# generated using pymatgen
data_Na2MnFe(PO4)2
_symmetry_space_group_name_H-M   'P 1'
_cell_length_a   22.34634437
_cell_length_b   20.09670631
_cell_length_c   19.44612745
_cell_angle_alpha   89.96381756
_cell_angle_beta   89.96777286
_cell_angle_gamma   89.98744231
_symmetry_Int_Tables_number   1
_chemical_formula_structural   Na2MnFe(PO4)2
_chemical_formula_sum   'Na96 Mn48 Fe48 P96 O384'
_cell_volume   8733.01759439
_cell_formula_units_Z   48
loop_
 _symmetry_equiv_pos_site_id
 _symmetry_equiv_pos_as_xyz
  1  'x, y, z'
loop_
 _atom_site_type_symbol
 _atom_site_label
 _atom_site_symmetry_multiplicity
 _atom_site_fract_x
 _atom_site_fract_y
 _atom_site_fract_z
 _atom_site_occupancy
  Na  Na0  1  0.14099684  0.25029969  0.24346776  1
  Na  Na1  1  0.14085260  0.24980050  0.49516597  1
  Na  Na2  1  0.14054573  0.24953159  0.74390537  1
  Na  Na3  1  0.14087890  0.25094152  0.99346620  1
  Na  Na4  1  0.14074388  0.58480557  0.24245485  1
  Na  Na5  1  0.14034687  0.58435702  0.49325959  1
  Na  Na6  1  0.14079137  0.58361062  0.74430247  1
  Na  Na7  1  0.14082306  0.58480779  0.99361647  1
  Na  Na8  1  0.14032419  0.91550410  0.24258208  1
  Na  Na9  1  0.14082984  0.91619201  0.49322416  1
  Na  Na10  1  0.14063535  0.91668857  0.74394632  1
  Na  Na11  1  0.14040152  0.91555233  0.99261169  1
  Na  Na12  1  0.64045607  0.24946073  0.24247066  1
  Na  Na13  1  0.64005150  0.24941788  0.49432049  1
  Na  Na14  1  0.64046754  0.25161926  0.74368814  1
  Na  Na15  1  0.64043190  0.25129558  0.99431209  1
  Na  Na16  1  0.63966702  0.58259869  0.24204752  1
  Na  Na17  1  0.63958129  0.58354104  0.49496979  1
  Na  Na18  1  0.64006999  0.58412220  0.74312830  1
  Na  Na19  1  0.64014709  0.58388385  0.99328633  1
  Na  Na20  1  0.64039278  0.91630233  0.24351112  1
  Na  Na21  1  0.64047956  0.91598073  0.49515315  1
  Na  Na22  1  0.64009129  0.91611559  0.74422690  1
  Na  Na23  1  0.64016858  0.91684583  0.99400997  1
  Na  Na24  1  0.35934202  0.08264273  0.00687393  1
  Na  Na25  1  0.35963622  0.08267273  0.25768003  1
  Na  Na26  1  0.35994057  0.08338982  0.50756442  1
  Na  Na27  1  0.35956379  0.08269120  0.75617110  1
  Na  Na28  1  0.35928445  0.41846166  0.00624469  1
  Na  Na29  1  0.35911550  0.41707300  0.25623567  1
  Na  Na30  1  0.35911276  0.41701636  0.50717778  1
  Na  Na31  1  0.35965314  0.41743050  0.75671462  1
  Na  Na32  1  0.36004355  0.74909531  0.00656851  1
  Na  Na33  1  0.35990872  0.74897986  0.25568909  1
  Na  Na34  1  0.35920194  0.74939483  0.50588570  1
  Na  Na35  1  0.35902851  0.74945801  0.75684191  1
  Na  Na36  1  0.85962489  0.08382964  0.00683700  1
  Na  Na37  1  0.85983607  0.08303782  0.25464652  1
  Na  Na38  1  0.85976116  0.08237851  0.50650890  1
  Na  Na39  1  0.85988579  0.08310315  0.75756515  1
  Na  Na40  1  0.85886089  0.41668667  0.00649058  1
  Na  Na41  1  0.85939426  0.41674782  0.25430793  1
  Na  Na42  1  0.85943353  0.41795425  0.50597130  1
  Na  Na43  1  0.85921787  0.41729115  0.75629579  1
  Na  Na44  1  0.86013911  0.75032259  0.00727318  1
  Na  Na45  1  0.86051691  0.74936757  0.25514878  1
  Na  Na46  1  0.85955602  0.74908373  0.50589753  1
  Na  Na47  1  0.85935640  0.74902910  0.75609827  1
  Na  Na48  1  0.10985263  0.08256660  0.11841800  1
  Na  Na49  1  0.11021399  0.08309046  0.36859699  1
  Na  Na50  1  0.10992333  0.08363957  0.61973673  1
  Na  Na51  1  0.10977518  0.08227427  0.86868724  1
  Na  Na52  1  0.11063140  0.41778541  0.11757913  1
  Na  Na53  1  0.10955795  0.41812136  0.36871234  1
  Na  Na54  1  0.10962764  0.41621911  0.61923151  1
  Na  Na55  1  0.10993338  0.41565051  0.86951299  1
  Na  Na56  1  0.11039281  0.75120373  0.11756462  1
  Na  Na57  1  0.11008426  0.75088867  0.36690700  1
  Na  Na58  1  0.11052798  0.74949549  0.61786501  1
  Na  Na59  1  0.11051079  0.75105233  0.86858342  1
  Na  Na60  1  0.60964882  0.08350754  0.11881073  1
  Na  Na61  1  0.60943605  0.08284862  0.36962020  1
  Na  Na62  1  0.60895804  0.08282597  0.61931028  1
  Na  Na63  1  0.60934921  0.08385018  0.86978327  1
  Na  Na64  1  0.60978580  0.41830667  0.11765139  1
  Na  Na65  1  0.60902602  0.41651019  0.36810504  1
  Na  Na66  1  0.60936762  0.41740890  0.61953053  1
  Na  Na67  1  0.60993541  0.41817479  0.86743378  1
  Na  Na68  1  0.60961240  0.74928240  0.11802431  1
  Na  Na69  1  0.60971185  0.74833230  0.36967187  1
  Na  Na70  1  0.60970557  0.75008850  0.61903800  1
  Na  Na71  1  0.60968934  0.75063123  0.86846509  1
  Na  Na72  1  0.39007288  0.25090236  0.13257983  1
  Na  Na73  1  0.39018386  0.24843252  0.38216361  1
  Na  Na74  1  0.39044741  0.24950066  0.63232286  1
  Na  Na75  1  0.39041037  0.25076299  0.88055729  1
  Na  Na76  1  0.38971038  0.58396788  0.13142450  1
  Na  Na77  1  0.38983154  0.58338218  0.38017966  1
  Na  Na78  1  0.38993263  0.58352049  0.63233861  1
  Na  Na79  1  0.38966750  0.58436007  0.88130775  1
  Na  Na80  1  0.39013183  0.91502162  0.13138175  1
  Na  Na81  1  0.39064442  0.91549575  0.38179141  1
  Na  Na82  1  0.38998274  0.91575406  0.63164737  1
  Na  Na83  1  0.38991481  0.91589185  0.88201438  1
  Na  Na84  1  0.89019664  0.24984868  0.13111806  1
  Na  Na85  1  0.89035311  0.25066922  0.37980638  1
  Na  Na86  1  0.89046195  0.24928066  0.63183629  1
  Na  Na87  1  0.89026687  0.24891581  0.88228838  1
  Na  Na88  1  0.89010476  0.58458983  0.13063641  1
  Na  Na89  1  0.89025925  0.58432016  0.37972394  1
  Na  Na90  1  0.88989639  0.58264120  0.63101755  1
  Na  Na91  1  0.89003140  0.58302683  0.88177495  1
  Na  Na92  1  0.89103167  0.91610961  0.13088408  1
  Na  Na93  1  0.89053141  0.91648554  0.37956367  1
  Na  Na94  1  0.89052435  0.91645182  0.63186862  1
  Na  Na95  1  0.89067629  0.91606761  0.88182239  1
  Mn  Mn96  1  0.75002853  0.66684997  0.87460930  1
  Mn  Mn97  1  -0.00040487  0.66624149  0.49901731  1
  Mn  Mn98  1  0.00060348  0.16600993  0.00027808  1
  Mn  Mn99  1  0.74961849  0.50004815  0.37431339  1
  Mn  Mn100  1  0.00044338  0.66649234  0.74980658  1
  Mn  Mn101  1  0.75031067  0.33467592  0.62452352  1
  Mn  Mn102  1  0.50048347  0.00007889  0.25082567  1
  Mn  Mn103  1  0.49955551  0.16746457  -0.00028715  1
  Mn  Mn104  1  0.25032380  -0.00075131  0.37532985  1
  Mn  Mn105  1  0.24964439  0.33282016  0.37561468  1
  Mn  Mn106  1  0.24975658  0.50078007  0.62529876  1
  Mn  Mn107  1  0.49975376  0.83247875  0.50069083  1
  Mn  Mn108  1  0.74958574  0.66580645  0.37526364  1
  Mn  Mn109  1  0.24976362  0.16664752  0.12497434  1
  Mn  Mn110  1  0.00010058  0.00006415  0.49987090  1
  Mn  Mn111  1  0.49980937  0.33467303  0.00039960  1
  Mn  Mn112  1  0.25065647  0.33437249  0.87505403  1
  Mn  Mn113  1  0.49928347  0.50051488  0.49995973  1
  Mn  Mn114  1  0.49947969  0.83350964  0.75007251  1
  Mn  Mn115  1  0.00043500  0.33428855  0.25039574  1
  Mn  Mn116  1  0.74913178  0.16787127  0.87595557  1
  Mn  Mn117  1  0.74962916  0.33338522  0.37447601  1
  Mn  Mn118  1  -0.00038199  0.16632698  0.49986901  1
  Mn  Mn119  1  -0.00017724  0.50158282  0.24845973  1
  Mn  Mn120  1  0.74976229  -0.00126297  0.62628868  1
  Mn  Mn121  1  0.25084950  0.16630381  0.87508479  1
  Mn  Mn122  1  0.24924158  0.50103093  0.37544307  1
  Mn  Mn123  1  0.49893573  -0.00028429  0.00072822  1
  Mn  Mn124  1  0.00034232  0.49933730  0.75100565  1
  Mn  Mn125  1  0.74998959  0.16620543  0.37423148  1
  Mn  Mn126  1  -0.00001891  0.83359590  0.74982027  1
  Mn  Mn127  1  0.75009998  0.16701879  0.62568144  1
  Mn  Mn128  1  0.00091100  0.16625047  0.24977863  1
  Mn  Mn129  1  0.00029153  0.83353801  0.49917032  1
  Mn  Mn130  1  0.50066112  0.83177510  0.25117610  1
  Mn  Mn131  1  0.00026110  0.50012548  0.00026977  1
  Mn  Mn132  1  0.25032109  -0.00045260  0.62465730  1
  Mn  Mn133  1  0.74990963  0.83331116  0.12514335  1
  Mn  Mn134  1  0.49976886  0.16649753  0.75024649  1
  Mn  Mn135  1  0.00037025  0.33425928  0.50056499  1
  Mn  Mn136  1  0.74956557  -0.00042018  0.87556064  1
  Mn  Mn137  1  0.25000078  -0.00162215  0.12582236  1
  Mn  Mn138  1  0.49924112  0.33237039  0.49931391  1
  Mn  Mn139  1  -0.00071505  0.33210218  0.74964531  1
  Mn  Mn140  1  0.50004481  0.33338741  0.25044712  1
  Mn  Mn141  1  0.75006448  -0.00043385  0.37510672  1
  Mn  Mn142  1  0.49930202  0.50168251  -0.00135879  1
  Mn  Mn143  1  0.74976128  0.83245472  0.37465218  1
  Fe  Fe144  1  0.25036172  0.33388064  0.12511697  1
  Fe  Fe145  1  0.00037679  0.66742419  0.00031346  1
  Fe  Fe146  1  0.74974706  0.33400515  0.12411165  1
  Fe  Fe147  1  0.49938529  0.66724695  0.75013059  1
  Fe  Fe148  1  0.25017164  0.16657203  0.62564170  1
  Fe  Fe149  1  0.49986461  0.16628138  0.25066886  1
  Fe  Fe150  1  0.50006182  0.16573200  0.50115866  1
  Fe  Fe151  1  0.25030130  0.83271766  0.87456297  1
  Fe  Fe152  1  0.74983490  0.66658844  0.12445507  1
  Fe  Fe153  1  0.00020759  0.33267119  -0.00023505  1
  Fe  Fe154  1  0.74975650  0.50003293  0.12393182  1
  Fe  Fe155  1  0.50016521  -0.00043781  0.50045663  1
  Fe  Fe156  1  0.49974328  0.66591866  0.50013900  1
  Fe  Fe157  1  0.75000322  0.16710564  0.12470747  1
  Fe  Fe158  1  0.00018003  0.16570582  0.75115732  1
  Fe  Fe159  1  0.25007821  0.50087778  0.12503145  1
  Fe  Fe160  1  0.24994658  0.83288373  0.62481924  1
  Fe  Fe161  1  0.25024130  0.66699436  0.87533572  1
  Fe  Fe162  1  0.49947422  0.50082846  0.74973021  1
  Fe  Fe163  1  0.50017692  0.83303517  0.00033337  1
  Fe  Fe164  1  0.24992046  0.66716903  0.12408709  1
  Fe  Fe165  1  0.75043426  0.83245999  0.62515448  1
  Fe  Fe166  1  0.75031958  0.83308958  0.87566735  1
  Fe  Fe167  1  0.74976777  0.66641980  0.62564493  1
  Fe  Fe168  1  0.00019897  -0.00043773  0.24877458  1
  Fe  Fe169  1  0.00045511  0.83323918  0.00005968  1
  Fe  Fe170  1  0.25026053  0.83236456  0.37434933  1
  Fe  Fe171  1  0.24988310  0.66742757  0.37410773  1
  Fe  Fe172  1  0.00053786  -0.00016790  0.75057259  1
  Fe  Fe173  1  0.50015269  0.33352425  0.74963849  1
  Fe  Fe174  1  0.00073834  0.66765468  0.24974402  1
  Fe  Fe175  1  0.24934642  0.50074112  0.87532146  1
  Fe  Fe176  1  0.49957407  -0.00012407  0.75045200  1
  Fe  Fe177  1  0.49973188  0.50045668  0.24979752  1
  Fe  Fe178  1  0.25001900  -0.00084675  0.87477098  1
  Fe  Fe179  1  0.75003850  0.50064271  0.87512299  1
  Fe  Fe180  1  0.25036949  0.16666512  0.37572525  1
  Fe  Fe181  1  0.00004753  -0.00044641  -0.00047200  1
  Fe  Fe182  1  0.50009795  0.66607701  0.24947190  1
  Fe  Fe183  1  0.25080153  0.83262013  0.12404452  1
  Fe  Fe184  1  0.50037088  0.66686421  -0.00011806  1
  Fe  Fe185  1  0.24991410  0.66734688  0.62503407  1
  Fe  Fe186  1  0.74894913  0.50038046  0.62551981  1
  Fe  Fe187  1  0.75035581  0.00009730  0.12441183  1
  Fe  Fe188  1  0.00033122  0.83363146  0.24861767  1
  Fe  Fe189  1  0.24989522  0.33352375  0.62563369  1
  Fe  Fe190  1  0.75017801  0.33440212  0.87527033  1
  Fe  Fe191  1  -0.00003433  0.50069417  0.49951690  1
  P  P192  1  0.04282904  0.25090652  0.10233133  1
  P  P193  1  0.04339461  0.25033093  0.35321388  1
  P  P194  1  0.04248261  0.24906421  0.60384312  1
  P  P195  1  0.04228945  0.24854753  0.85301910  1
  P  P196  1  0.04246710  0.58574564  0.10254018  1
  P  P197  1  0.04254789  0.58472178  0.35198220  1
  P  P198  1  0.04247880  0.58213430  0.60221354  1
  P  P199  1  0.04281420  0.58372663  0.85409238  1
  P  P200  1  0.04158144  0.91678669  0.10156984  1
  P  P201  1  0.04174750  0.91684610  0.35039874  1
  P  P202  1  0.04316009  0.91691848  0.60325104  1
  P  P203  1  0.04225830  0.91748428  0.85310737  1
  P  P204  1  0.54239031  0.25030452  0.10369019  1
  P  P205  1  0.54220354  0.24794044  0.35297304  1
  P  P206  1  0.54180341  0.24917507  0.60305357  1
  P  P207  1  0.54232384  0.25168340  0.85224997  1
  P  P208  1  0.54183877  0.58465920  0.10258115  1
  P  P209  1  0.54151483  0.58336817  0.35158427  1
  P  P210  1  0.54127473  0.58465208  0.60360407  1
  P  P211  1  0.54107910  0.58448118  0.85134866  1
  P  P212  1  0.54209693  0.91516495  0.10277512  1
  P  P213  1  0.54295843  0.91625933  0.35421267  1
  P  P214  1  0.54172327  0.91762044  0.60316802  1
  P  P215  1  0.54170306  0.91752130  0.85305520  1
  P  P216  1  0.45719286  0.08424736  0.14839735  1
  P  P217  1  0.45852075  0.08313298  0.39896338  1
  P  P218  1  0.45769018  0.08156250  0.64730783  1
  P  P219  1  0.45665488  0.08317273  0.89677858  1
  P  P220  1  0.45774193  0.41852264  0.14776150  1
  P  P221  1  0.45669547  0.41694854  0.39654631  1
  P  P222  1  0.45822275  0.41698847  0.64840365  1
  P  P223  1  0.45732301  0.41741927  0.89551913  1
  P  P224  1  0.45840095  0.74866408  0.14685256  1
  P  P225  1  0.45796206  0.74755986  0.39756512  1
  P  P226  1  0.45736886  0.74870216  0.64751860  1
  P  P227  1  0.45880458  0.74978996  0.89831701  1
  P  P228  1  0.95840427  0.08173171  0.14661941  1
  P  P229  1  0.95722590  0.08273236  0.39589483  1
  P  P230  1  0.95840802  0.08298627  0.64921673  1
  P  P231  1  0.95789159  0.08175858  0.89720754  1
  P  P232  1  0.95779368  0.41668552  0.14576386  1
  P  P233  1  0.95761941  0.41878318  0.39730359  1
  P  P234  1  0.95710404  0.41712652  0.64665498  1
  P  P235  1  0.95779956  0.41505297  0.89800369  1
  P  P236  1  0.95946427  0.75004507  0.14711206  1
  P  P237  1  0.95745158  0.75038620  0.39523172  1
  P  P238  1  0.95727595  0.74980065  0.64664775  1
  P  P239  1  0.95889643  0.75000204  0.89858463  1
  P  P240  1  0.20741280  0.08297571  0.22869963  1
  P  P241  1  0.20844861  0.08448019  0.47809437  1
  P  P242  1  0.20838660  0.08349379  0.72790213  1
  P  P243  1  0.20829745  0.08159422  0.97723988  1
  P  P244  1  0.20863965  0.41712893  0.22650289  1
  P  P245  1  0.20728190  0.41666753  0.47888583  1
  P  P246  1  0.20782075  0.41631945  0.72808345  1
  P  P247  1  0.20809646  0.41883114  0.97844001  1
  P  P248  1  0.20925267  0.75028854  0.22627491  1
  P  P249  1  0.20820373  0.74996893  0.47654223  1
  P  P250  1  0.20855236  0.75024116  0.72704789  1
  P  P251  1  0.20925957  0.75021279  0.97689715  1
  P  P252  1  0.70865707  0.08311289  0.22595886  1
  P  P253  1  0.70720510  0.08292139  0.47845120  1
  P  P254  1  0.70692515  0.08338129  0.72892774  1
  P  P255  1  0.70729605  0.08364588  0.97945667  1
  P  P256  1  0.70811612  0.41694263  0.22558753  1
  P  P257  1  0.70639388  0.41723821  0.47808327  1
  P  P258  1  0.70771275  0.41834125  0.72841401  1
  P  P259  1  0.70832363  0.41744952  0.97697770  1
  P  P260  1  0.70747444  0.74831950  0.22703255  1
  P  P261  1  0.70728114  0.74939787  0.47941052  1
  P  P262  1  0.70850746  0.75004785  0.72716241  1
  P  P263  1  0.70818280  0.75068206  0.97781621  1
  P  P264  1  0.29256319  0.25167925  0.02287491  1
  P  P265  1  0.29231205  0.24896310  0.27279540  1
  P  P266  1  0.29160983  0.24992399  0.52397726  1
  P  P267  1  0.29262552  0.25020357  0.77121392  1
  P  P268  1  0.29119957  0.58370552  0.02265889  1
  P  P269  1  0.29145179  0.58462309  0.27156947  1
  P  P270  1  0.29188860  0.58554656  0.52246744  1
  P  P271  1  0.29088498  0.58389692  0.77350666  1
  P  P272  1  0.29219849  0.91483121  0.02154187  1
  P  P273  1  0.29260442  0.91438378  0.27234623  1
  P  P274  1  0.29212081  0.91451497  0.52208493  1
  P  P275  1  0.29150091  0.91572199  0.77299597  1
  P  P276  1  0.79128003  0.25086825  0.02306822  1
  P  P277  1  0.79238283  0.25008240  0.27023075  1
  P  P278  1  0.79308388  0.25015201  0.52178080  1
  P  P279  1  0.79226936  0.25195448  0.77324571  1
  P  P280  1  0.79124166  0.58324607  0.02264645  1
  P  P281  1  0.79221751  0.58324492  0.27028657  1
  P  P282  1  0.79102277  0.58311899  0.52391345  1
  P  P283  1  0.79188012  0.58232542  0.77201244  1
  P  P284  1  0.79226879  0.91734754  0.02226585  1
  P  P285  1  0.79251660  0.91656281  0.27103257  1
  P  P286  1  0.79261689  0.91494498  0.52296707  1
  P  P287  1  0.79208372  0.91453768  0.77278284  1
  O  O288  1  0.03813209  0.25081793  0.18233072  1
  O  O289  1  0.03808461  0.25038163  0.43317817  1
  O  O290  1  0.03707290  0.24816419  0.68383072  1
  O  O291  1  0.03719567  0.24954884  0.93303387  1
  O  O292  1  0.03729708  0.58623511  0.18249255  1
  O  O293  1  0.03720813  0.58359892  0.43195018  1
  O  O294  1  0.03772898  0.58229450  0.68225556  1
  O  O295  1  0.03747012  0.58438416  0.93403703  1
  O  O296  1  0.03654224  0.91656453  0.18147486  1
  O  O297  1  0.03715759  0.91641504  0.43041006  1
  O  O298  1  0.03827265  0.91727025  0.68325246  1
  O  O299  1  0.03703069  0.91731679  0.93297844  1
  O  O300  1  0.53734455  0.24975045  0.18367733  1
  O  O301  1  0.53677393  0.24771580  0.43294461  1
  O  O302  1  0.53634827  0.25009597  0.68301468  1
  O  O303  1  0.53713739  0.25169527  0.93223043  1
  O  O304  1  0.53683602  0.58405848  0.18248739  1
  O  O305  1  0.53650462  0.58339812  0.43159063  1
  O  O306  1  0.53559201  0.58440368  0.68345342  1
  O  O307  1  0.53624877  0.58495170  0.93136173  1
  O  O308  1  0.53755119  0.91518211  0.18279989  1
  O  O309  1  0.53742005  0.91672103  0.43413724  1
  O  O310  1  0.53637593  0.91778149  0.68312851  1
  O  O311  1  0.53625682  0.91643719  0.93298388  1
  O  O312  1  0.46192608  0.08398283  0.06837294  1
  O  O313  1  0.46359186  0.08372996  0.31895177  1
  O  O314  1  0.46344608  0.08174084  0.56742790  1
  O  O315  1  0.46199098  0.08262572  0.81683754  1
  O  O316  1  0.46272097  0.41862082  0.06774265  1
  O  O317  1  0.46201258  0.41735394  0.31660601  1
  O  O318  1  0.46293951  0.41692849  0.56834917  1
  O  O319  1  0.46274971  0.41722372  0.81560976  1
  O  O320  1  0.46387643  0.74944200  0.06696021  1
  O  O321  1  0.46345259  0.74747142  0.31762985  1
  O  O322  1  0.46254424  0.74850876  0.56760769  1
  O  O323  1  0.46332148  0.74984856  0.81827957  1
  O  O324  1  0.96389657  0.08171747  0.06669617  1
  O  O325  1  0.96245568  0.08216458  0.31593357  1
  O  O326  1  0.96306532  0.08308388  0.56913841  1
  O  O327  1  0.96322955  0.08223544  0.81728628  1
  O  O328  1  0.96312808  0.41580358  0.06583942  1
  O  O329  1  0.96290905  0.41870699  0.31729380  1
  O  O330  1  0.96240724  0.41803191  0.56668749  1
  O  O331  1  0.96260369  0.41511577  0.81799438  1
  O  O332  1  0.96434758  0.75005634  0.06715818  1
  O  O333  1  0.96281614  0.75033084  0.31527721  1
  O  O334  1  0.96196974  0.74985772  0.56664167  1
  O  O335  1  0.96327564  0.75025135  0.81856553  1
  O  O336  1  0.21290319  0.08155303  0.05725485  1
  O  O337  1  0.21281346  0.08324021  0.30863354  1
  O  O338  1  0.21394065  0.08454438  0.55804033  1
  O  O339  1  0.21382424  0.08263723  0.80782081  1
  O  O340  1  0.21375027  0.41865471  0.05831304  1
  O  O341  1  0.21326664  0.41692621  0.30653644  1
  O  O342  1  0.21277512  0.41646364  0.55881479  1
  O  O343  1  0.21312849  0.41706929  0.80804121  1
  O  O344  1  0.21419397  0.75015576  0.05673816  1
  O  O345  1  0.21411831  0.75003501  0.30616357  1
  O  O346  1  0.21328813  0.75018020  0.55645089  1
  O  O347  1  0.21395668  0.75044634  0.80688349  1
  O  O348  1  0.71302541  0.08361163  0.05933867  1
  O  O349  1  0.71362579  0.08294383  0.30599647  1
  O  O350  1  0.71211399  0.08289131  0.55844891  1
  O  O351  1  0.71178885  0.08345531  0.80894939  1
  O  O352  1  0.71359837  0.41741849  0.05690488  1
  O  O353  1  0.71259260  0.41666282  0.30561309  1
  O  O354  1  0.71129295  0.41785529  0.55808674  1
  O  O355  1  0.71329240  0.41802552  0.80826745  1
  O  O356  1  0.71338988  0.74974247  0.05773505  1
  O  O357  1  0.71206453  0.74843067  0.30707486  1
  O  O358  1  0.71274647  0.74949053  0.55934007  1
  O  O359  1  0.71360049  0.75029532  0.80717168  1
  O  O360  1  0.28722266  0.24952517  0.19286252  1
  O  O361  1  0.28648216  0.24948812  0.44395256  1
  O  O362  1  0.28691860  0.25006138  0.69133746  1
  O  O363  1  0.28760319  0.25148466  0.94288698  1
  O  O364  1  0.28609310  0.58408811  0.19169720  1
  O  O365  1  0.28661639  0.58562614  0.44253330  1
  O  O366  1  0.28601497  0.58463116  0.69356393  1
  O  O367  1  0.28633566  0.58366737  0.94276111  1
  O  O368  1  0.28747922  0.91443957  0.19236085  1
  O  O369  1  0.28687790  0.91440449  0.44215261  1
  O  O370  1  0.28651056  0.91570876  0.69302616  1
  O  O371  1  0.28673367  0.91542907  0.94166367  1
  O  O372  1  0.78699044  0.25011121  0.19029469  1
  O  O373  1  0.78792629  0.24985254  0.44177239  1
  O  O374  1  0.78734745  0.25160567  0.69325544  1
  O  O375  1  0.78638121  0.25165447  0.94310076  1
  O  O376  1  0.78709627  0.58338028  0.19034169  1
  O  O377  1  0.78603995  0.58308404  0.44389408  1
  O  O378  1  0.78649054  0.58271898  0.69216811  1
  O  O379  1  0.78651493  0.58321644  0.94263443  1
  O  O380  1  0.78721185  0.91730462  0.19107055  1
  O  O381  1  0.78738396  0.91538579  0.44297977  1
  O  O382  1  0.78682884  0.91418198  0.69281121  1
  O  O383  1  0.78713579  0.91653726  0.94232255  1
  O  O384  1  0.22815753  0.25188475  0.05821770  1
  O  O385  1  0.22801608  0.24837107  0.30851089  1
  O  O386  1  0.22752445  0.25007687  0.56018276  1
  O  O387  1  0.22859139  0.25020134  0.80735967  1
  O  O388  1  0.22719350  0.58338267  0.05896937  1
  O  O389  1  0.22739553  0.58549139  0.30794278  1
  O  O390  1  0.22767253  0.58537989  0.55836231  1
  O  O391  1  0.22685550  0.58342756  0.80971557  1
  O  O392  1  0.22804916  0.91429865  0.05774497  1
  O  O393  1  0.22830696  0.91467350  0.30798167  1
  O  O394  1  0.22795234  0.91468634  0.55802991  1
  O  O395  1  0.22743748  0.91493643  0.80918299  1
  O  O396  1  0.72717300  0.25000235  0.05902318  1
  O  O397  1  0.72813318  0.24999013  0.30604388  1
  O  O398  1  0.72864414  0.25043739  0.55692145  1
  O  O399  1  0.72785393  0.25250453  0.80857162  1
  O  O400  1  0.72704763  0.58289731  0.05846877  1
  O  O401  1  0.72786085  0.58309389  0.30578528  1
  O  O402  1  0.72684112  0.58342484  0.55989811  1
  O  O403  1  0.72772177  0.58234535  0.80815835  1
  O  O404  1  0.72800236  0.91764864  0.05788686  1
  O  O405  1  0.72821551  0.91624218  0.30654698  1
  O  O406  1  0.72828421  0.91448944  0.55859080  1
  O  O407  1  0.72780450  0.91448235  0.80853648  1
  O  O408  1  0.27168639  0.08283345  0.19317066  1
  O  O409  1  0.27259514  0.08414723  0.44200403  1
  O  O410  1  0.27247599  0.08402060  0.69176290  1
  O  O411  1  0.27269280  0.08178620  0.94214232  1
  O  O412  1  0.27283843  0.41705968  0.19069686  1
  O  O413  1  0.27146205  0.41697954  0.44318768  1
  O  O414  1  0.27198585  0.41609215  0.69212893  1
  O  O415  1  0.27212818  0.41943094  0.94199079  1
  O  O416  1  0.27328939  0.75053897  0.18994446  1
  O  O417  1  0.27236953  0.74971715  0.44022308  1
  O  O418  1  0.27256416  0.75020840  0.69037336  1
  O  O419  1  0.27328207  0.75080853  0.94051798  1
  O  O420  1  0.77283882  0.08333498  0.19009223  1
  O  O421  1  0.77168044  0.08303445  0.44345899  1
  O  O422  1  0.77144597  0.08299087  0.69412347  1
  O  O423  1  0.77138750  0.08378379  0.94341452  1
  O  O424  1  0.77238758  0.41756359  0.19004294  1
  O  O425  1  0.77089034  0.41701446  0.44302045  1
  O  O426  1  0.77178937  0.41892687  0.69202613  1
  O  O427  1  0.77239685  0.41742752  0.94057432  1
  O  O428  1  0.77193231  0.74866132  0.19197222  1
  O  O429  1  0.77145399  0.74932634  0.44345822  1
  O  O430  1  0.77264202  0.74970952  0.69107417  1
  O  O431  1  0.77244768  0.75091104  0.94206090  1
  O  O432  1  0.02256301  0.08145662  0.18257824  1
  O  O433  1  0.02165061  0.08312985  0.43107169  1
  O  O434  1  0.02273694  0.08293896  0.68472041  1
  O  O435  1  0.02213546  0.08143201  0.93304040  1
  O  O436  1  0.02208322  0.41737066  0.18112116  1
  O  O437  1  0.02194262  0.41904586  0.43288890  1
  O  O438  1  0.02145106  0.41615807  0.68193693  1
  O  O439  1  0.02223617  0.41552145  0.93299753  1
  O  O440  1  0.02349683  0.74986033  0.18331850  1
  O  O441  1  0.02171124  0.74990522  0.43087036  1
  O  O442  1  0.02183675  0.75006616  0.68133164  1
  O  O443  1  0.02325617  0.74951686  0.93382766  1
  O  O444  1  0.52172841  0.08473993  0.18338919  1
  O  O445  1  0.52265530  0.08326706  0.43499431  1
  O  O446  1  0.52170927  0.08128105  0.68375473  1
  O  O447  1  0.52094754  0.08322983  0.93216961  1
  O  O448  1  0.52205632  0.41827225  0.18317990  1
  O  O449  1  0.52100185  0.41669149  0.43184138  1
  O  O450  1  0.52237447  0.41771796  0.68415470  1
  O  O451  1  0.52153016  0.41774324  0.93125876  1
  O  O452  1  0.52249138  0.74792139  0.18309468  1
  O  O453  1  0.52206282  0.74771728  0.43363437  1
  O  O454  1  0.52164586  0.74886531  0.68315274  1
  O  O455  1  0.52300849  0.74944331  0.93403076  1
  O  O456  1  0.47797194  0.25074311  0.06856824  1
  O  O457  1  0.47794088  0.24831219  0.31721213  1
  O  O458  1  0.47766462  0.24808160  0.56701503  1
  O  O459  1  0.47802355  0.25141696  0.81682824  1
  O  O460  1  0.47759883  0.58548506  0.06676245  1
  O  O461  1  0.47732318  0.58344124  0.31562319  1
  O  O462  1  0.47720891  0.58496597  0.56724527  1
  O  O463  1  0.47679658  0.58430019  0.81571735  1
  O  O464  1  0.47766993  0.91489086  0.06769300  1
  O  O465  1  0.47874218  0.91598576  0.31862809  1
  O  O466  1  0.47758798  0.91739930  0.56723019  1
  O  O467  1  0.47749328  0.91802946  0.81712488  1
  O  O468  1  0.97835723  0.25037757  0.06734835  1
  O  O469  1  0.97902172  0.25014390  0.31803132  1
  O  O470  1  0.97825221  0.24991890  0.56832005  1
  O  O471  1  0.97795766  0.24780408  0.81756777  1
  O  O472  1  0.97821465  0.58537635  0.06691090  1
  O  O473  1  0.97830230  0.58564592  0.31624549  1
  O  O474  1  0.97802419  0.58192269  0.56697411  1
  O  O475  1  0.97847691  0.58353084  0.81877702  1
  O  O476  1  0.97756397  0.91704864  0.06531487  1
  O  O477  1  0.97756330  0.91726381  0.31470485  1
  O  O478  1  0.97866104  0.91662473  0.56836391  1
  O  O479  1  0.97810527  0.91788470  0.81707444  1
  O  O480  1  0.07299867  0.31462789  0.07342468  1
  O  O481  1  0.07430703  0.31400559  0.32529302  1
  O  O482  1  0.07380070  0.31272257  0.57640203  1
  O  O483  1  0.07334369  0.31192073  0.82448392  1
  O  O484  1  0.07334912  0.64896200  0.07349206  1
  O  O485  1  0.07357832  0.64837222  0.32410996  1
  O  O486  1  0.07321575  0.64593513  0.57425340  1
  O  O487  1  0.07407033  0.64681523  0.82519636  1
  O  O488  1  0.07295797  0.98005137  0.07313261  1
  O  O489  1  0.07295041  0.98037900  0.32259198  1
  O  O490  1  0.07409013  0.98029690  0.57452530  1
  O  O491  1  0.07333701  0.98074408  0.82421083  1
  O  O492  1  0.57342937  0.31397800  0.07575053  1
  O  O493  1  0.57338848  0.31175100  0.32547819  1
  O  O494  1  0.57252583  0.31282739  0.57470219  1
  O  O495  1  0.57280212  0.31531857  0.82359098  1
  O  O496  1  0.57310161  0.64783197  0.07377351  1
  O  O497  1  0.57265277  0.64674942  0.32323223  1
  O  O498  1  0.57240274  0.64794261  0.57492996  1
  O  O499  1  0.57212397  0.64792946  0.82292646  1
  O  O500  1  0.57284372  0.97898964  0.07496185  1
  O  O501  1  0.57411172  0.97951664  0.32551141  1
  O  O502  1  0.57275876  0.98081648  0.57432063  1
  O  O503  1  0.57260646  0.98117744  0.82511321  1
  O  O504  1  0.42672387  0.02026156  0.17641210  1
  O  O505  1  0.42799119  0.01895381  0.42657453  1
  O  O506  1  0.42646405  0.01828413  0.67591776  1
  O  O507  1  0.42529343  0.02012561  0.92555029  1
  O  O508  1  0.42651273  0.35498795  0.17547670  1
  O  O509  1  0.42565591  0.35331527  0.42462571  1
  O  O510  1  0.42813440  0.35283483  0.67646397  1
  O  O511  1  0.42615333  0.35421610  0.92438132  1
  O  O512  1  0.42718856  0.68526056  0.17514780  1
  O  O513  1  0.42698212  0.68428124  0.42621442  1
  O  O514  1  0.42640446  0.68558697  0.67669436  1
  O  O515  1  0.42752354  0.68643703  0.92661014  1
  O  O516  1  0.92725147  0.01845665  0.17501750  1
  O  O517  1  0.92629985  0.01944268  0.42490240  1
  O  O518  1  0.92778871  0.01915783  0.67734157  1
  O  O519  1  0.92680464  0.01841535  0.92577407  1
  O  O520  1  0.92666555  0.35362553  0.17476088  1
  O  O521  1  0.92676970  0.35497976  0.42499447  1
  O  O522  1  0.92571474  0.35353968  0.67422873  1
  O  O523  1  0.92760099  0.35122944  0.92661330  1
  O  O524  1  0.92819130  0.68675793  0.17567870  1
  O  O525  1  0.92590011  0.68718936  0.42371615  1
  O  O526  1  0.92665492  0.68613613  0.67496641  1
  O  O527  1  0.92760918  0.68659486  0.92673352  1
  O  O528  1  0.17648532  0.01927891  0.20081450  1
  O  O529  1  0.17722506  0.02071397  0.45068004  1
  O  O530  1  0.17733769  0.02004710  0.69962170  1
  O  O531  1  0.17804140  0.01791692  0.94834061  1
  O  O532  1  0.17798651  0.35335999  0.19830432  1
  O  O533  1  0.17607003  0.35338719  0.45063809  1
  O  O534  1  0.17721454  0.35255413  0.69997860  1
  O  O535  1  0.17722057  0.35506683  0.95046504  1
  O  O536  1  0.17867388  0.68662953  0.19743297  1
  O  O537  1  0.17723933  0.68651448  0.44795216  1
  O  O538  1  0.17766097  0.68654791  0.69882989  1
  O  O539  1  0.17902190  0.68624441  0.94829672  1
  O  O540  1  0.67792866  0.01931829  0.19802624  1
  O  O541  1  0.67638463  0.01932327  0.45030724  1
  O  O542  1  0.67579860  0.01992366  0.70096479  1
  O  O543  1  0.67601875  0.02029189  0.95119462  1
  O  O544  1  0.67787515  0.35299952  0.19720081  1
  O  O545  1  0.67562353  0.35352428  0.44999276  1
  O  O546  1  0.67676626  0.35478359  0.70010156  1
  O  O547  1  0.67744293  0.35381495  0.94869043  1
  O  O548  1  0.67716644  0.68476115  0.19813166  1
  O  O549  1  0.67606556  0.68597383  0.45117488  1
  O  O550  1  0.67772385  0.68616628  0.69937806  1
  O  O551  1  0.67683882  0.68752371  0.94929887  1
  O  O552  1  0.32319231  0.31526671  0.05132353  1
  O  O553  1  0.32325140  0.31257796  0.30086737  1
  O  O554  1  0.32228823  0.31390808  0.55175402  1
  O  O555  1  0.32395756  0.31356419  0.79933716  1
  O  O556  1  0.32156488  0.64768053  0.05110725  1
  O  O557  1  0.32284535  0.64783586  0.29991200  1
  O  O558  1  0.32275790  0.64872076  0.55143217  1
  O  O559  1  0.32149142  0.64751540  0.80234425  1
  O  O560  1  0.32322846  0.97821916  0.05021927  1
  O  O561  1  0.32378423  0.97796171  0.30028102  1
  O  O562  1  0.32308153  0.97835117  0.54967156  1
  O  O563  1  0.32127223  0.98003909  0.80128163  1
  O  O564  1  0.82157822  0.31466140  0.05181712  1
  O  O565  1  0.82342356  0.31356772  0.29862673  1
  O  O566  1  0.82411082  0.31373703  0.54952738  1
  O  O567  1  0.82318497  0.31537640  0.80158010  1
  O  O568  1  0.82147010  0.64734116  0.05087201  1
  O  O569  1  0.82326941  0.64649538  0.29913410  1
  O  O570  1  0.82210343  0.64669732  0.55180508  1
  O  O571  1  0.82322891  0.64578836  0.80014826  1
  O  O572  1  0.82291637  0.98108773  0.05034453  1
  O  O573  1  0.82376087  0.97964983  0.29970985  1
  O  O574  1  0.82337633  0.97868837  0.55099979  1
  O  O575  1  0.82290351  0.97849164  0.80019378  1
  O  O576  1  0.42629851  0.14758255  0.17701221  1
  O  O577  1  0.42734521  0.14634733  0.42774096  1
  O  O578  1  0.42664322  0.14527878  0.67515583  1
  O  O579  1  0.42585015  0.14706686  0.92441558  1
  O  O580  1  0.42721048  0.48221640  0.17614338  1
  O  O581  1  0.42543763  0.48013698  0.42514108  1
  O  O582  1  0.42684104  0.48043258  0.67633573  1
  O  O583  1  0.42602485  0.48088429  0.92371782  1
  O  O584  1  0.42748382  0.81213351  0.17552827  1
  O  O585  1  0.42691321  0.81136746  0.42514466  1
  O  O586  1  0.42643350  0.81250289  0.67531457  1
  O  O587  1  0.42868872  0.81381762  0.92685489  1
  O  O588  1  0.92765453  0.14569701  0.17415043  1
  O  O589  1  0.92609829  0.14628874  0.42390100  1
  O  O590  1  0.92760670  0.14662217  0.67747971  1
  O  O591  1  0.92685001  0.14528543  0.92567471  1
  O  O592  1  0.92664264  0.48052258  0.17301513  1
  O  O593  1  0.92676925  0.48235684  0.42551469  1
  O  O594  1  0.92636275  0.48035757  0.67583300  1
  O  O595  1  0.92644073  0.47854779  0.92567780  1
  O  O596  1  0.92890540  0.81397993  0.17544804  1
  O  O597  1  0.92661004  0.81394349  0.42364326  1
  O  O598  1  0.92620378  0.81306983  0.67516674  1
  O  O599  1  0.92883247  0.81398845  0.92724931  1
  O  O600  1  0.07424596  0.18739997  0.07468336  1
  O  O601  1  0.07447610  0.18692607  0.32500748  1
  O  O602  1  0.07348698  0.18581984  0.57509847  1
  O  O603  1  0.07312841  0.18478147  0.82514962  1
  O  O604  1  0.07349617  0.52183365  0.07536995  1
  O  O605  1  0.07355254  0.52134367  0.32336581  1
  O  O606  1  0.07322326  0.51870885  0.57361787  1
  O  O607  1  0.07371662  0.51989168  0.82652198  1
  O  O608  1  0.07198639  0.85282599  0.07295609  1
  O  O609  1  0.07198937  0.85295857  0.32166435  1
  O  O610  1  0.07412173  0.85344747  0.57477105  1
  O  O611  1  0.07323991  0.85378803  0.82506764  1
  O  O612  1  0.57333895  0.18705206  0.07488364  1
  O  O613  1  0.57296477  0.18462649  0.32406705  1
  O  O614  1  0.57303525  0.18560151  0.57537102  1
  O  O615  1  0.57363460  0.18806271  0.82480981  1
  O  O616  1  0.57251603  0.52105603  0.07386434  1
  O  O617  1  0.57195625  0.51941788  0.32324357  1
  O  O618  1  0.57229809  0.52101640  0.57549409  1
  O  O619  1  0.57166544  0.52059959  0.82330860  1
  O  O620  1  0.57284334  0.85174933  0.07395448  1
  O  O621  1  0.57414232  0.85263776  0.32652357  1
  O  O622  1  0.57277164  0.85371279  0.57586324  1
  O  O623  1  0.57278322  0.85409145  0.82457882  1
  O  O624  1  0.32346508  0.18787288  0.05050084  1
  O  O625  1  0.32306837  0.18542442  0.30148034  1
  O  O626  1  0.32259316  0.18639003  0.55231505  1
  O  O627  1  0.32399426  0.18685022  0.79954701  1
  O  O628  1  0.32263865  0.52055762  0.05141450  1
  O  O629  1  0.32208730  0.52087881  0.30008527  1
  O  O630  1  0.32298808  0.52175290  0.55016716  1
  O  O631  1  0.32188622  0.52017900  0.80122610  1
  O  O632  1  0.32336970  0.85139344  0.04990256  1
  O  O633  1  0.32346186  0.85095816  0.30085891  1
  O  O634  1  0.32307493  0.85128770  0.55095878  1
  O  O635  1  0.32331802  0.85268271  0.80123279  1
  O  O636  1  0.82267730  0.18727424  0.05068455  1
  O  O637  1  0.82371949  0.18674739  0.29859086  1
  O  O638  1  0.82397804  0.18669815  0.55031828  1
  O  O639  1  0.82291754  0.18812506  0.80129118  1
  O  O640  1  0.82262453  0.51994656  0.05079528  1
  O  O641  1  0.82337622  0.51984424  0.29885960  1
  O  O642  1  0.82153777  0.51925001  0.55192465  1
  O  O643  1  0.82276835  0.51900703  0.80098791  1
  O  O644  1  0.82352165  0.85395381  0.05050482  1
  O  O645  1  0.82333929  0.85266199  0.29859662  1
  O  O646  1  0.82360821  0.85146899  0.55114364  1
  O  O647  1  0.82313603  0.85134007  0.80172783  1
  O  O648  1  0.17604475  0.14609956  0.20008551  1
  O  O649  1  0.17767603  0.14791436  0.44947908  1
  O  O650  1  0.17745632  0.14716955  0.69996041  1
  O  O651  1  0.17704651  0.14522638  0.94962729  1
  O  O652  1  0.17792738  0.48095546  0.19853383  1
  O  O653  1  0.17618022  0.48024385  0.45076997  1
  O  O654  1  0.17645413  0.47972700  0.70006259  1
  O  O655  1  0.17675973  0.48201717  0.94974732  1
  O  O656  1  0.17808471  0.81373535  0.19785391  1
  O  O657  1  0.17746917  0.81359890  0.44773497  1
  O  O658  1  0.17752574  0.81371255  0.69840726  1
  O  O659  1  0.17762885  0.81327530  0.94837301  1
  O  O660  1  0.67775678  0.14684339  0.19805502  1
  O  O661  1  0.67620989  0.14631986  0.45000463  1
  O  O662  1  0.67624036  0.14707398  0.70082871  1
  O  O663  1  0.67582737  0.14701341  0.95132203  1
  O  O664  1  0.67694383  0.48037969  0.19740805  1
  O  O665  1  0.67522391  0.48041239  0.44925121  1
  O  O666  1  0.67647851  0.48168837  0.69989115  1
  O  O667  1  0.67737803  0.48111526  0.94865192  1
  O  O668  1  0.67617746  0.81188384  0.19934121  1
  O  O669  1  0.67609630  0.81269967  0.45076005  1
  O  O670  1  0.67751621  0.81349404  0.69877064  1
  O  O671  1  0.67762964  0.81455684  0.94981207  1
