# generated using pymatgen
data_Na2MnFe(PO4)2
_symmetry_space_group_name_H-M   'P 1'
_cell_length_a   22.34639427
_cell_length_b   20.09693458
_cell_length_c   19.44652421
_cell_angle_alpha   90.00109359
_cell_angle_beta   89.99910164
_cell_angle_gamma   89.97241639
_symmetry_Int_Tables_number   1
_chemical_formula_structural   Na2MnFe(PO4)2
_chemical_formula_sum   'Na96 Mn48 Fe48 P96 O384'
_cell_volume   8733.31679001
_cell_formula_units_Z   48
loop_
 _symmetry_equiv_pos_site_id
 _symmetry_equiv_pos_as_xyz
  1  'x, y, z'
loop_
 _atom_site_type_symbol
 _atom_site_label
 _atom_site_symmetry_multiplicity
 _atom_site_fract_x
 _atom_site_fract_y
 _atom_site_fract_z
 _atom_site_occupancy
  Na  Na0  1  0.14052229  0.24941341  0.24529212  1
  Na  Na1  1  0.14038967  0.25044310  0.49299038  1
  Na  Na2  1  0.14024856  0.25052212  0.74393814  1
  Na  Na3  1  0.14055610  0.24956782  0.99326357  1
  Na  Na4  1  0.14029429  0.58307728  0.24456934  1
  Na  Na5  1  0.13996718  0.58365386  0.49252662  1
  Na  Na6  1  0.14062051  0.58263483  0.74407276  1
  Na  Na7  1  0.14076307  0.58319819  0.99451127  1
  Na  Na8  1  0.14002499  0.91584263  0.24398233  1
  Na  Na9  1  0.14049453  0.91727761  0.49313424  1
  Na  Na10  1  0.14036117  0.91580206  0.74414522  1
  Na  Na11  1  0.14004279  0.91528846  0.99441194  1
  Na  Na12  1  0.64027393  0.25012537  0.24475464  1
  Na  Na13  1  0.64068357  0.24963742  0.49407050  1
  Na  Na14  1  0.64035970  0.24903226  0.74393166  1
  Na  Na15  1  0.64109132  0.24983155  0.99269655  1
  Na  Na16  1  0.64052287  0.58306066  0.24436157  1
  Na  Na17  1  0.64038074  0.58409629  0.49489630  1
  Na  Na18  1  0.64009765  0.58300042  0.74271648  1
  Na  Na19  1  0.64026496  0.58209460  0.99215887  1
  Na  Na20  1  0.63951702  0.91860087  0.24286678  1
  Na  Na21  1  0.64015122  0.91789046  0.49313244  1
  Na  Na22  1  0.64062981  0.91799963  0.74219182  1
  Na  Na23  1  0.63947886  0.91804061  0.99228710  1
  Na  Na24  1  0.35960804  0.08136471  0.00571568  1
  Na  Na25  1  0.35957544  0.08204391  0.25767075  1
  Na  Na26  1  0.35974852  0.08283000  0.50489123  1
  Na  Na27  1  0.35994323  0.08328863  0.75617941  1
  Na  Na28  1  0.36023119  0.41730606  0.00594345  1
  Na  Na29  1  0.35971298  0.41608212  0.25634049  1
  Na  Na30  1  0.35956390  0.41724692  0.50603411  1
  Na  Na31  1  0.35996133  0.41700424  0.75713307  1
  Na  Na32  1  0.35984177  0.75018361  0.00686531  1
  Na  Na33  1  0.35992194  0.75029412  0.25660189  1
  Na  Na34  1  0.35996307  0.75027427  0.50607388  1
  Na  Na35  1  0.35984696  0.74912855  0.75611675  1
  Na  Na36  1  0.85955207  0.08367385  0.00498682  1
  Na  Na37  1  0.85931431  0.08475384  0.25725151  1
  Na  Na38  1  0.85889204  0.08420412  0.50620028  1
  Na  Na39  1  0.85918640  0.08446750  0.75604874  1
  Na  Na40  1  0.85948230  0.41556553  0.00553472  1
  Na  Na41  1  0.85976079  0.41624831  0.25764506  1
  Na  Na42  1  0.86005846  0.41576928  0.50757999  1
  Na  Na43  1  0.85915741  0.41508073  0.75598200  1
  Na  Na44  1  0.85963918  0.75013720  0.00594516  1
  Na  Na45  1  0.85925341  0.75093161  0.25594429  1
  Na  Na46  1  0.85944757  0.75093255  0.50760996  1
  Na  Na47  1  0.85948237  0.75063879  0.75630105  1
  Na  Na48  1  0.10933504  0.08236136  0.12032090  1
  Na  Na49  1  0.10974302  0.08313927  0.36786306  1
  Na  Na50  1  0.10964818  0.08472790  0.61929361  1
  Na  Na51  1  0.10970697  0.08262041  0.86805999  1
  Na  Na52  1  0.10955778  0.41734862  0.11968182  1
  Na  Na53  1  0.10972747  0.41598169  0.36885213  1
  Na  Na54  1  0.10933395  0.41722811  0.61841343  1
  Na  Na55  1  0.11016150  0.41615058  0.86813666  1
  Na  Na56  1  0.10965775  0.74990031  0.11882881  1
  Na  Na57  1  0.10933325  0.74936155  0.36844043  1
  Na  Na58  1  0.10952662  0.74969291  0.61860185  1
  Na  Na59  1  0.10967288  0.74952052  0.87032939  1
  Na  Na60  1  0.60957943  0.08343292  0.11811183  1
  Na  Na61  1  0.61013358  0.08197034  0.36783783  1
  Na  Na62  1  0.61002571  0.08279869  0.61759631  1
  Na  Na63  1  0.61015222  0.08334927  0.86784281  1
  Na  Na64  1  0.60984582  0.41637693  0.11824683  1
  Na  Na65  1  0.60990890  0.41561060  0.37002571  1
  Na  Na66  1  0.60951339  0.41750313  0.61898296  1
  Na  Na67  1  0.61007720  0.41785942  0.86781948  1
  Na  Na68  1  0.60908647  0.75119381  0.11871479  1
  Na  Na69  1  0.60970280  0.75091581  0.37001781  1
  Na  Na70  1  0.60973623  0.75069267  0.61790657  1
  Na  Na71  1  0.60900788  0.75104418  0.86764796  1
  Na  Na72  1  0.39058487  0.24962225  0.13076027  1
  Na  Na73  1  0.39020893  0.24892528  0.38226854  1
  Na  Na74  1  0.39059420  0.25062370  0.63057476  1
  Na  Na75  1  0.39075554  0.25061522  0.88229777  1
  Na  Na76  1  0.39083179  0.58364751  0.13106055  1
  Na  Na77  1  0.39059925  0.58306669  0.38197172  1
  Na  Na78  1  0.39035347  0.58426357  0.63142306  1
  Na  Na79  1  0.39063382  0.58312593  0.88142501  1
  Na  Na80  1  0.39025861  0.91608919  0.13130254  1
  Na  Na81  1  0.39041589  0.91512309  0.38141268  1
  Na  Na82  1  0.39043727  0.91580991  0.63007333  1
  Na  Na83  1  0.39062785  0.91701614  0.88103685  1
  Na  Na84  1  0.89005576  0.24974157  0.13222104  1
  Na  Na85  1  0.88970919  0.25033501  0.38262956  1
  Na  Na86  1  0.88990196  0.25061497  0.63174913  1
  Na  Na87  1  0.88967369  0.24971343  0.88058250  1
  Na  Na88  1  0.89034984  0.58370424  0.13014437  1
  Na  Na89  1  0.89082749  0.58209041  0.38209875  1
  Na  Na90  1  0.89044726  0.58328036  0.63143213  1
  Na  Na91  1  0.89025827  0.58343616  0.88085812  1
  Na  Na92  1  0.89015944  0.91728716  0.13097402  1
  Na  Na93  1  0.88978346  0.91730067  0.38181742  1
  Na  Na94  1  0.88976072  0.91748660  0.63217325  1
  Na  Na95  1  0.89031757  0.91600665  0.88038944  1
  Mn  Mn96  1  -0.00111771  0.83341181  0.25003251  1
  Mn  Mn97  1  0.74989211  0.49925386  0.62500220  1
  Mn  Mn98  1  -0.00045551  0.33351065  0.25044119  1
  Mn  Mn99  1  0.50028984  0.50036108  0.50034311  1
  Mn  Mn100  1  0.74928000  0.66614408  0.87477806  1
  Mn  Mn101  1  -0.00044877  -0.00075606  -0.00067031  1
  Mn  Mn102  1  0.49982752  0.49978721  0.25060220  1
  Mn  Mn103  1  -0.00065633  0.66576084  0.24971882  1
  Mn  Mn104  1  0.75011298  0.66740544  0.37533289  1
  Mn  Mn105  1  -0.00033118  0.50050309  -0.00062272  1
  Mn  Mn106  1  0.75003983  0.49925342  0.12504409  1
  Mn  Mn107  1  0.50027450  0.33444100  0.75060103  1
  Mn  Mn108  1  -0.00054923  0.16758197  0.49980947  1
  Mn  Mn109  1  0.00029267  -0.00018204  0.75016062  1
  Mn  Mn110  1  0.74913506  0.83512381  0.37575669  1
  Mn  Mn111  1  0.25020226  0.66701145  0.37460332  1
  Mn  Mn112  1  0.24999825  0.16619994  0.87504419  1
  Mn  Mn113  1  0.49951629  0.33274128  0.24955032  1
  Mn  Mn114  1  -0.00018456  0.00062648  0.50089318  1
  Mn  Mn115  1  0.74944049  0.83466346  0.12465445  1
  Mn  Mn116  1  0.00010522  0.16646729  0.00045727  1
  Mn  Mn117  1  0.50016633  0.16599107  0.75005790  1
  Mn  Mn118  1  0.00038140  0.49966089  0.75012042  1
  Mn  Mn119  1  0.74936690  0.83430197  0.87423632  1
  Mn  Mn120  1  0.50010012  0.16573585  0.49988954  1
  Mn  Mn121  1  0.00043878  0.83313011  0.49988954  1
  Mn  Mn122  1  0.25038596  0.16684269  0.62496730  1
  Mn  Mn123  1  0.24979286  0.66572930  0.87589489  1
  Mn  Mn124  1  0.74960916  0.66666943  0.12460946  1
  Mn  Mn125  1  0.25001191  0.33316650  0.12535699  1
  Mn  Mn126  1  0.24958978  0.50053392  0.62506001  1
  Mn  Mn127  1  0.25024782  0.16590970  0.12476639  1
  Mn  Mn128  1  0.75010928  0.00188727  0.12405104  1
  Mn  Mn129  1  0.75042416  0.49937539  0.37550342  1
  Mn  Mn130  1  0.24972886  -0.00000956  0.62426037  1
  Mn  Mn131  1  0.24966641  0.83297795  0.87524540  1
  Mn  Mn132  1  0.49966306  0.16600347  -0.00008631  1
  Mn  Mn133  1  0.74980426  0.33221212  0.12517864  1
  Mn  Mn134  1  0.50105459  0.66749662  0.25017048  1
  Mn  Mn135  1  0.50035316  0.66724076  -0.00006266  1
  Mn  Mn136  1  0.50050433  0.16531818  0.24999466  1
  Mn  Mn137  1  0.24957823  0.50012556  0.12555822  1
  Mn  Mn138  1  0.50030732  0.83389714  0.74925874  1
  Mn  Mn139  1  0.25037179  0.83273875  0.62487942  1
  Mn  Mn140  1  0.25016042  0.33373449  0.62445477  1
  Mn  Mn141  1  0.00027922  0.33329835  0.00047325  1
  Mn  Mn142  1  0.00053285  0.66732768  0.75033491  1
  Mn  Mn143  1  0.24942840  -0.00138011  0.12634738  1
  Fe  Fe144  1  0.75010101  0.33219702  0.87502235  1
  Fe  Fe145  1  0.25058514  0.50040775  0.37479410  1
  Fe  Fe146  1  0.00000670  0.83279574  0.75039448  1
  Fe  Fe147  1  0.50011443  0.83323416  0.49979595  1
  Fe  Fe148  1  0.50002341  -0.00088976  0.49900412  1
  Fe  Fe149  1  0.25002513  0.16672342  0.37487427  1
  Fe  Fe150  1  0.25071888  0.66641677  0.12557185  1
  Fe  Fe151  1  0.75002706  0.00114169  0.37519442  1
  Fe  Fe152  1  -0.00011050  0.49975857  0.25065094  1
  Fe  Fe153  1  -0.00076813  0.66652347  0.50000298  1
  Fe  Fe154  1  -0.00000801  0.16669489  0.25057394  1
  Fe  Fe155  1  0.49993837  -0.00026007  -0.00051342  1
  Fe  Fe156  1  0.25033577  0.83285872  0.12550437  1
  Fe  Fe157  1  0.24977946  0.66646207  0.62468089  1
  Fe  Fe158  1  0.25060961  0.33352159  0.37483398  1
  Fe  Fe159  1  0.50077949  0.33389442  -0.00001881  1
  Fe  Fe160  1  0.74939822  0.33243400  0.62597099  1
  Fe  Fe161  1  0.49971518  0.83406564  -0.00051289  1
  Fe  Fe162  1  0.00032224  0.33327477  0.50028847  1
  Fe  Fe163  1  0.24997078  -0.00049406  0.37500439  1
  Fe  Fe164  1  0.49985751  0.66738570  0.75008933  1
  Fe  Fe165  1  0.49938557  0.50082674  0.75002640  1
  Fe  Fe166  1  0.75000667  0.16684105  0.12496870  1
  Fe  Fe167  1  0.00028184  0.66686045  0.00024212  1
  Fe  Fe168  1  0.75050987  0.66677194  0.62542958  1
  Fe  Fe169  1  0.75013605  0.83437195  0.62499349  1
  Fe  Fe170  1  0.74979836  0.33278801  0.37604088  1
  Fe  Fe171  1  0.50026423  0.66685173  0.50035839  1
  Fe  Fe172  1  0.24997399  -0.00072247  0.87550306  1
  Fe  Fe173  1  -0.00026930  -0.00020249  0.25018764  1
  Fe  Fe174  1  0.74975182  0.16684903  0.62477183  1
  Fe  Fe175  1  0.00005380  0.49962063  0.50046622  1
  Fe  Fe176  1  0.00013018  0.16742162  0.74950049  1
  Fe  Fe177  1  0.24918346  0.83269555  0.37496150  1
  Fe  Fe178  1  0.74984023  0.00114437  0.62433099  1
  Fe  Fe179  1  0.50006518  0.33336960  0.50053449  1
  Fe  Fe180  1  0.49974605  0.83362202  0.24998282  1
  Fe  Fe181  1  0.75044713  0.00094120  0.87356168  1
  Fe  Fe182  1  -0.00034324  0.33316876  0.74950701  1
  Fe  Fe183  1  0.25044882  0.33332952  0.87484044  1
  Fe  Fe184  1  0.25047386  0.49983735  0.87505870  1
  Fe  Fe185  1  0.74982354  0.16725344  0.37568929  1
  Fe  Fe186  1  -0.00017196  0.83300741  0.00056390  1
  Fe  Fe187  1  0.75039704  0.49907678  0.87380520  1
  Fe  Fe188  1  0.50080661  0.50066184  -0.00014548  1
  Fe  Fe189  1  0.74994169  0.16639656  0.87417455  1
  Fe  Fe190  1  0.49961846  -0.00124687  0.24910399  1
  Fe  Fe191  1  0.50008298  -0.00039387  0.74919525  1
  P  P192  1  0.04294360  0.24960691  0.10408833  1
  P  P193  1  0.04176231  0.24931789  0.35300254  1
  P  P194  1  0.04218360  0.25154104  0.60314723  1
  P  P195  1  0.04150135  0.25013451  0.85138564  1
  P  P196  1  0.04235892  0.58415497  0.10273039  1
  P  P197  1  0.04176361  0.58170082  0.35346838  1
  P  P198  1  0.04140055  0.58369108  0.60145655  1
  P  P199  1  0.04297574  0.58376152  0.85348386  1
  P  P200  1  0.04174258  0.91591731  0.10298714  1
  P  P201  1  0.04194973  0.91745063  0.35250510  1
  P  P202  1  0.04291601  0.91649865  0.60384125  1
  P  P203  1  0.04212378  0.91444656  0.85302114  1
  P  P204  1  0.54241325  0.25056607  0.10191969  1
  P  P205  1  0.54229133  0.24947641  0.35374048  1
  P  P206  1  0.54225017  0.25101696  0.60251669  1
  P  P207  1  0.54232838  0.25035536  0.85366852  1
  P  P208  1  0.54298860  0.58278041  0.10228043  1
  P  P209  1  0.54294247  0.58377189  0.35396757  1
  P  P210  1  0.54198352  0.58514859  0.60354044  1
  P  P211  1  0.54142388  0.58372488  0.85164837  1
  P  P212  1  0.54133961  0.91690671  0.10157592  1
  P  P213  1  0.54130360  0.91630275  0.35183883  1
  P  P214  1  0.54141765  0.91687135  0.60115240  1
  P  P215  1  0.54258388  0.91823991  0.85221938  1
  P  P216  1  0.45754724  0.08126307  0.14705886  1
  P  P217  1  0.45817804  0.08076821  0.39665968  1
  P  P218  1  0.45802919  0.08152463  0.64667662  1
  P  P219  1  0.45787980  0.08162213  0.89678335  1
  P  P220  1  0.45751285  0.41697505  0.14586613  1
  P  P221  1  0.45764864  0.41528450  0.39808054  1
  P  P222  1  0.45775657  0.41833111  0.64761086  1
  P  P223  1  0.45926938  0.41780492  0.89829271  1
  P  P224  1  0.45790818  0.75178066  0.14734682  1
  P  P225  1  0.45892400  0.74995791  0.39829388  1
  P  P226  1  0.45817656  0.74914362  0.64677289  1
  P  P227  1  0.45787937  0.75138754  0.89719674  1
  P  P228  1  0.95830778  0.08319423  0.14891183  1
  P  P229  1  0.95732707  0.08341528  0.39632855  1
  P  P230  1  0.95768668  0.08504471  0.64787962  1
  P  P231  1  0.95773356  0.08373310  0.89605215  1
  P  P232  1  0.95735227  0.41819189  0.14793885  1
  P  P233  1  0.95870513  0.41640133  0.39877027  1
  P  P234  1  0.95804139  0.41562160  0.64693292  1
  P  P235  1  0.95753059  0.41590570  0.89618391  1
  P  P236  1  0.95687845  0.74986482  0.14612421  1
  P  P237  1  0.95710481  0.74868428  0.39775158  1
  P  P238  1  0.95763099  0.75093369  0.64743661  1
  P  P239  1  0.95850219  0.75012514  0.89836122  1
  P  P240  1  0.20770090  0.08317212  0.22948498  1
  P  P241  1  0.20841753  0.08345883  0.47602163  1
  P  P242  1  0.20742096  0.08298627  0.72851439  1
  P  P243  1  0.20738420  0.08130751  0.97766649  1
  P  P244  1  0.20740466  0.41641042  0.22950342  1
  P  P245  1  0.20872246  0.41718114  0.47610910  1
  P  P246  1  0.20756384  0.41655871  0.72880797  1
  P  P247  1  0.20864374  0.41678834  0.97648873  1
  P  P248  1  0.20857304  0.74984613  0.22697178  1
  P  P249  1  0.20740981  0.75068231  0.47752604  1
  P  P250  1  0.20775811  0.74828253  0.72743948  1
  P  P251  1  0.20770344  0.74959902  0.97957543  1
  P  P252  1  0.70768409  0.08551047  0.22790563  1
  P  P253  1  0.70852710  0.08389618  0.47723166  1
  P  P254  1  0.70861388  0.08400223  0.72648827  1
  P  P255  1  0.70848616  0.08379351  0.97582715  1
  P  P256  1  0.70727457  0.41561608  0.22884229  1
  P  P257  1  0.70812726  0.41492858  0.47857072  1
  P  P258  1  0.70781190  0.41483091  0.72840143  1
  P  P259  1  0.70894941  0.41610616  0.97590632  1
  P  P260  1  0.70681662  0.75094271  0.22803011  1
  P  P261  1  0.70779918  0.75085526  0.47969882  1
  P  P262  1  0.70857125  0.75064320  0.72617078  1
  P  P263  1  0.70657682  0.75045672  0.97743783  1
  P  P264  1  0.29272212  0.25009054  0.02134352  1
  P  P265  1  0.29207134  0.24971967  0.27359125  1
  P  P266  1  0.29272626  0.25003564  0.52057886  1
  P  P267  1  0.29283222  0.25100183  0.77276531  1
  P  P268  1  0.29253586  0.58394971  0.02276000  1
  P  P269  1  0.29282851  0.58266054  0.27231345  1
  P  P270  1  0.29199801  0.58454093  0.52197664  1
  P  P271  1  0.29243197  0.58223775  0.77243452  1
  P  P272  1  0.29192093  0.91531703  0.02284270  1
  P  P273  1  0.29108915  0.91535044  0.27367138  1
  P  P274  1  0.29232595  0.91645123  0.52058101  1
  P  P275  1  0.29230359  0.91733763  0.77269749  1
  P  P276  1  0.79228368  0.24813971  0.02189680  1
  P  P277  1  0.79133729  0.25007414  0.27403377  1
  P  P278  1  0.79128076  0.25008942  0.52332541  1
  P  P279  1  0.79088428  0.24939744  0.77251483  1
  P  P280  1  0.79229599  0.58238451  0.02085930  1
  P  P281  1  0.79300489  0.58338327  0.27217891  1
  P  P282  1  0.79231279  0.58419290  0.52307839  1
  P  P283  1  0.79179087  0.58233156  0.77173826  1
  P  P284  1  0.79245989  0.91802366  0.02069510  1
  P  P285  1  0.79173317  0.91911260  0.27272398  1
  P  P286  1  0.79122831  0.91789800  0.52327914  1
  P  P287  1  0.79187166  0.91851002  0.77098061  1
  O  O288  1  0.03761498  0.24924768  0.18403716  1
  O  O289  1  0.03670331  0.25002954  0.43295979  1
  O  O290  1  0.03668390  0.25114074  0.68305953  1
  O  O291  1  0.03700986  0.24995798  0.93145874  1
  O  O292  1  0.03703322  0.58325943  0.18266133  1
  O  O293  1  0.03621767  0.58224393  0.43333409  1
  O  O294  1  0.03691499  0.58346543  0.68147721  1
  O  O295  1  0.03769764  0.58435811  0.93337918  1
  O  O296  1  0.03630819  0.91685842  0.18294032  1
  O  O297  1  0.03725592  0.91730291  0.43251925  1
  O  O298  1  0.03783883  0.91588990  0.68382580  1
  O  O299  1  0.03647759  0.91431012  0.93297533  1
  O  O300  1  0.53743976  0.25008379  0.18194179  1
  O  O301  1  0.53682797  0.24986885  0.43370220  1
  O  O302  1  0.53709334  0.25073594  0.68248938  1
  O  O303  1  0.53692202  0.25049159  0.93358631  1
  O  O304  1  0.53789903  0.58299775  0.18227239  1
  O  O305  1  0.53754746  0.58427171  0.43393344  1
  O  O306  1  0.53637856  0.58514646  0.68341627  1
  O  O307  1  0.53666718  0.58317623  0.93168860  1
  O  O308  1  0.53610958  0.91681641  0.18149375  1
  O  O309  1  0.53609561  0.91643899  0.43173037  1
  O  O310  1  0.53676465  0.91721216  0.68111794  1
  O  O311  1  0.53737044  0.91811660  0.93208288  1
  O  O312  1  0.46264912  0.08134672  0.06705656  1
  O  O313  1  0.46346384  0.08076875  0.31671428  1
  O  O314  1  0.46352269  0.08157645  0.56670940  1
  O  O315  1  0.46318273  0.08150732  0.81682113  1
  O  O316  1  0.46314279  0.41726495  0.06595512  1
  O  O317  1  0.46246526  0.41551704  0.31808805  1
  O  O318  1  0.46305754  0.41750307  0.56769969  1
  O  O319  1  0.46414981  0.41841052  0.81827569  1
  O  O320  1  0.46300810  0.75192989  0.06740181  1
  O  O321  1  0.46381976  0.75067741  0.31832630  1
  O  O322  1  0.46346200  0.74903065  0.56690627  1
  O  O323  1  0.46322142  0.75074156  0.81725566  1
  O  O324  1  0.96321803  0.08309852  0.06886194  1
  O  O325  1  0.96269090  0.08315898  0.31641466  1
  O  O326  1  0.96249682  0.08504518  0.56788030  1
  O  O327  1  0.96328398  0.08443767  0.81617189  1
  O  O328  1  0.96258975  0.41777917  0.06796608  1
  O  O329  1  0.96330208  0.41711810  0.31876323  1
  O  O330  1  0.96350465  0.41566389  0.56704714  1
  O  O331  1  0.96281424  0.41537064  0.81623635  1
  O  O332  1  0.96237819  0.75006538  0.06621655  1
  O  O333  1  0.96192946  0.74879445  0.31775210  1
  O  O334  1  0.96281266  0.75012373  0.56748941  1
  O  O335  1  0.96375066  0.75063916  0.81835270  1
  O  O336  1  0.21252528  0.08163784  0.05767610  1
  O  O337  1  0.21314162  0.08340690  0.30936267  1
  O  O338  1  0.21315167  0.08357749  0.55606550  1
  O  O339  1  0.21243318  0.08242788  0.80849246  1
  O  O340  1  0.21342384  0.41674995  0.05653223  1
  O  O341  1  0.21305854  0.41650838  0.30937397  1
  O  O342  1  0.21356265  0.41723957  0.55614455  1
  O  O343  1  0.21286595  0.41655848  0.80872166  1
  O  O344  1  0.21325710  0.74964361  0.05944428  1
  O  O345  1  0.21351667  0.75030049  0.30699607  1
  O  O346  1  0.21255781  0.74993701  0.55745150  1
  O  O347  1  0.21279134  0.74853893  0.80741117  1
  O  O348  1  0.71338212  0.08420490  0.05577977  1
  O  O349  1  0.71264619  0.08495649  0.30777043  1
  O  O350  1  0.71356903  0.08402885  0.55710573  1
  O  O351  1  0.71373395  0.08340961  0.80635511  1
  O  O352  1  0.71342880  0.41599747  0.05597068  1
  O  O353  1  0.71238434  0.41524322  0.30883124  1
  O  O354  1  0.71331211  0.41476746  0.55853913  1
  O  O355  1  0.71355449  0.41544122  0.80824363  1
  O  O356  1  0.71161162  0.75058777  0.05741382  1
  O  O357  1  0.71201977  0.75127793  0.30805254  1
  O  O358  1  0.71363937  0.75067912  0.55957642  1
  O  O359  1  0.71308816  0.75056976  0.80621518  1
  O  O360  1  0.28711820  0.24972055  0.19355151  1
  O  O361  1  0.28742160  0.25001969  0.44064790  1
  O  O362  1  0.28802790  0.25082410  0.69269341  1
  O  O363  1  0.28743477  0.25056656  0.94137460  1
  O  O364  1  0.28737473  0.58333233  0.19240560  1
  O  O365  1  0.28704888  0.58384250  0.44199205  1
  O  O366  1  0.28704806  0.58311829  0.69249493  1
  O  O367  1  0.28720676  0.58306114  0.94281212  1
  O  O368  1  0.28639965  0.91495935  0.19367336  1
  O  O369  1  0.28678293  0.91603985  0.44072196  1
  O  O370  1  0.28720710  0.91691069  0.69271037  1
  O  O371  1  0.28670090  0.91613593  0.94291221  1
  O  O372  1  0.78687009  0.24945237  0.19404355  1
  O  O373  1  0.78594251  0.25039301  0.44345473  1
  O  O374  1  0.78587341  0.24975113  0.69265522  1
  O  O375  1  0.78707148  0.24830791  0.94203850  1
  O  O376  1  0.78773148  0.58312412  0.19217508  1
  O  O377  1  0.78746349  0.58401363  0.44309960  1
  O  O378  1  0.78657308  0.58307464  0.69175937  1
  O  O379  1  0.78696609  0.58175582  0.94084943  1
  O  O380  1  0.78668598  0.91890407  0.19274070  1
  O  O381  1  0.78627500  0.91841465  0.44329678  1
  O  O382  1  0.78647298  0.91800343  0.69108568  1
  O  O383  1  0.78742732  0.91834321  0.94070643  1
  O  O384  1  0.22839865  0.24966804  0.05673247  1
  O  O385  1  0.22787339  0.24991363  0.30940962  1
  O  O386  1  0.22845717  0.24992119  0.55623470  1
  O  O387  1  0.22841364  0.25110487  0.80794173  1
  O  O388  1  0.22832702  0.58498136  0.05865014  1
  O  O389  1  0.22856017  0.58212218  0.30804487  1
  O  O390  1  0.22765394  0.58489645  0.55751327  1
  O  O391  1  0.22821604  0.58119018  0.80829576  1
  O  O392  1  0.22771804  0.91442759  0.05874512  1
  O  O393  1  0.22685789  0.91532998  0.30938611  1
  O  O394  1  0.22817601  0.91607355  0.55647787  1
  O  O395  1  0.22797030  0.91774584  0.80822525  1
  O  O396  1  0.72802492  0.24812496  0.05787367  1
  O  O397  1  0.72709154  0.25071734  0.30969240  1
  O  O398  1  0.72725567  0.24974658  0.55988331  1
  O  O399  1  0.72693866  0.24881142  0.80893793  1
  O  O400  1  0.72799613  0.58245636  0.05629753  1
  O  O401  1  0.72861639  0.58321844  0.30733852  1
  O  O402  1  0.72800294  0.58404140  0.55842099  1
  O  O403  1  0.72755790  0.58178084  0.80741426  1
  O  O404  1  0.72807928  0.91829438  0.05592450  1
  O  O405  1  0.72737134  0.91951908  0.30818599  1
  O  O406  1  0.72709022  0.91706872  0.55915805  1
  O  O407  1  0.72774081  0.91898180  0.80708257  1
  O  O408  1  0.27187341  0.08271129  0.19361938  1
  O  O409  1  0.27259882  0.08375008  0.44031531  1
  O  O410  1  0.27178346  0.08308280  0.69322242  1
  O  O411  1  0.27174062  0.08139315  0.94219677  1
  O  O412  1  0.27157352  0.41659874  0.19364782  1
  O  O413  1  0.27294968  0.41731202  0.44035547  1
  O  O414  1  0.27180992  0.41706102  0.69316794  1
  O  O415  1  0.27290138  0.41703990  0.94071691  1
  O  O416  1  0.27279071  0.74976525  0.19105050  1
  O  O417  1  0.27176567  0.75132204  0.44199950  1
  O  O418  1  0.27211220  0.74792799  0.69196602  1
  O  O419  1  0.27180930  0.74966419  0.94358621  1
  O  O420  1  0.77200083  0.08571742  0.19206780  1
  O  O421  1  0.77250875  0.08341697  0.44080901  1
  O  O422  1  0.77265470  0.08483332  0.69021267  1
  O  O423  1  0.77265939  0.08379724  0.93974732  1
  O  O424  1  0.77165032  0.41562307  0.19358899  1
  O  O425  1  0.77235444  0.41485552  0.44276184  1
  O  O426  1  0.77183405  0.41465946  0.69199915  1
  O  O427  1  0.77317311  0.41645441  0.94039907  1
  O  O428  1  0.77119960  0.75087703  0.19284702  1
  O  O429  1  0.77182061  0.75136147  0.44350938  1
  O  O430  1  0.77287340  0.75122990  0.69075711  1
  O  O431  1  0.77101386  0.75033145  0.94245091  1
  O  O432  1  0.02247801  0.08290954  0.18481561  1
  O  O433  1  0.02158879  0.08370308  0.43195215  1
  O  O434  1  0.02204472  0.08484067  0.68314647  1
  O  O435  1  0.02189178  0.08317373  0.93180303  1
  O  O436  1  0.02165499  0.41796128  0.18351316  1
  O  O437  1  0.02292876  0.41563949  0.43449488  1
  O  O438  1  0.02216880  0.41512731  0.68302332  1
  O  O439  1  0.02182768  0.41642173  0.93162677  1
  O  O440  1  0.02104464  0.74988025  0.18198744  1
  O  O441  1  0.02157053  0.74815285  0.43290226  1
  O  O442  1  0.02201489  0.75170824  0.68298461  1
  O  O443  1  0.02251821  0.74971612  0.93475490  1
  O  O444  1  0.52191114  0.08103039  0.18254337  1
  O  O445  1  0.52236211  0.08115915  0.43257936  1
  O  O446  1  0.52225673  0.08144498  0.68258455  1
  O  O447  1  0.52208112  0.08191580  0.93262696  1
  O  O448  1  0.52168611  0.41669443  0.18173748  1
  O  O449  1  0.52201119  0.41536213  0.43347619  1
  O  O450  1  0.52198879  0.41891912  0.68339123  1
  O  O451  1  0.52344053  0.41789024  0.93423193  1
  O  O452  1  0.52219927  0.75224873  0.18306073  1
  O  O453  1  0.52298166  0.74955953  0.43438691  1
  O  O454  1  0.52227435  0.74915007  0.68300625  1
  O  O455  1  0.52204086  0.75192654  0.93315635  1
  O  O456  1  0.47810428  0.25082150  0.06657459  1
  O  O457  1  0.47810868  0.24883620  0.31802692  1
  O  O458  1  0.47800838  0.25089066  0.56690935  1
  O  O459  1  0.47816927  0.25009774  0.81797197  1
  O  O460  1  0.47865750  0.58246180  0.06676892  1
  O  O461  1  0.47868232  0.58401340  0.31843155  1
  O  O462  1  0.47797296  0.58501461  0.56712046  1
  O  O463  1  0.47721034  0.58362748  0.81580005  1
  O  O464  1  0.47728693  0.91687246  0.06512369  1
  O  O465  1  0.47723556  0.91605348  0.31533971  1
  O  O466  1  0.47724860  0.91708999  0.56534299  1
  O  O467  1  0.47833159  0.91812316  0.81628859  1
  O  O468  1  0.97851309  0.24996895  0.06891158  1
  O  O469  1  0.97752832  0.24906219  0.31730932  1
  O  O470  1  0.97794307  0.25228760  0.56721772  1
  O  O471  1  0.97720019  0.25023860  0.81584389  1
  O  O472  1  0.97818333  0.58506483  0.06673059  1
  O  O473  1  0.97766101  0.58142845  0.31719195  1
  O  O474  1  0.97711254  0.58408977  0.56599677  1
  O  O475  1  0.97868641  0.58359128  0.81806850  1
  O  O476  1  0.97757760  0.91548599  0.06705310  1
  O  O477  1  0.97750014  0.91807579  0.31739272  1
  O  O478  1  0.97848111  0.91644233  0.56874616  1
  O  O479  1  0.97802087  0.91470096  0.81684429  1
  O  O480  1  0.07397282  0.31321364  0.07598892  1
  O  O481  1  0.07301691  0.31269269  0.32496085  1
  O  O482  1  0.07353630  0.31463090  0.57435185  1
  O  O483  1  0.07223045  0.31381925  0.82329626  1
  O  O484  1  0.07333739  0.64772075  0.07472327  1
  O  O485  1  0.07301714  0.64515570  0.32521776  1
  O  O486  1  0.07239173  0.64717576  0.57329405  1
  O  O487  1  0.07428424  0.64688843  0.82486520  1
  O  O488  1  0.07301387  0.97923313  0.07463110  1
  O  O489  1  0.07299242  0.98066150  0.32389691  1
  O  O490  1  0.07354956  0.98046733  0.57607882  1
  O  O491  1  0.07324584  0.97824365  0.82564584  1
  O  O492  1  0.57308324  0.31421772  0.07357393  1
  O  O493  1  0.57330436  0.31280942  0.32535131  1
  O  O494  1  0.57270332  0.31483122  0.57437130  1
  O  O495  1  0.57353449  0.31370890  0.82559133  1
  O  O496  1  0.57367391  0.64662494  0.07447689  1
  O  O497  1  0.57450204  0.64679224  0.32550958  1
  O  O498  1  0.57288237  0.64843684  0.57460439  1
  O  O499  1  0.57173561  0.64793845  0.82393124  1
  O  O500  1  0.57235087  0.98051897  0.07326960  1
  O  O501  1  0.57203034  0.97987954  0.32310416  1
  O  O502  1  0.57280528  0.97998375  0.57255686  1
  O  O503  1  0.57332080  0.98155871  0.82306788  1
  O  O504  1  0.42650794  0.01804532  0.17583188  1
  O  O505  1  0.42743400  0.01728926  0.42513844  1
  O  O506  1  0.42695622  0.01826553  0.67520065  1
  O  O507  1  0.42705827  0.01836216  0.92571297  1
  O  O508  1  0.42611694  0.35352530  0.17390717  1
  O  O509  1  0.42725952  0.35164052  0.42665490  1
  O  O510  1  0.42669262  0.35488472  0.67596942  1
  O  O511  1  0.42906522  0.35354081  0.92604425  1
  O  O512  1  0.42749194  0.68770376  0.17512877  1
  O  O513  1  0.42782763  0.68630361  0.42608462  1
  O  O514  1  0.42718757  0.68599764  0.67597863  1
  O  O515  1  0.42685077  0.68786900  0.92537560  1
  O  O516  1  0.92725435  0.01960778  0.17682400  1
  O  O517  1  0.92627869  0.02017877  0.42530175  1
  O  O518  1  0.92659963  0.02139260  0.67541951  1
  O  O519  1  0.92654675  0.02001740  0.92354101  1
  O  O520  1  0.92608498  0.35463362  0.17573818  1
  O  O521  1  0.92758606  0.35273238  0.42649986  1
  O  O522  1  0.92673409  0.35249995  0.67578900  1
  O  O523  1  0.92652650  0.35266062  0.92493941  1
  O  O524  1  0.92566743  0.68648480  0.17434353  1
  O  O525  1  0.92623525  0.68534236  0.42637070  1
  O  O526  1  0.92686213  0.68737741  0.67594669  1
  O  O527  1  0.92771185  0.68619836  0.92596950  1
  O  O528  1  0.17629362  0.01973718  0.20147869  1
  O  O529  1  0.17817653  0.01934868  0.44795967  1
  O  O530  1  0.17606058  0.01994717  0.69980973  1
  O  O531  1  0.17694161  0.01757327  0.94939584  1
  O  O532  1  0.17634845  0.35296866  0.20110463  1
  O  O533  1  0.17813987  0.35329385  0.44822929  1
  O  O534  1  0.17673658  0.35310871  0.70010501  1
  O  O535  1  0.17815996  0.35291183  0.94832778  1
  O  O536  1  0.17810372  0.68575799  0.19931254  1
  O  O537  1  0.17654320  0.68725561  0.44891372  1
  O  O538  1  0.17703973  0.68474528  0.69897993  1
  O  O539  1  0.17647399  0.68625770  0.95119085  1
  O  O540  1  0.67662095  0.02213981  0.19915658  1
  O  O541  1  0.67733742  0.02049858  0.44877211  1
  O  O542  1  0.67835556  0.02026860  0.69720611  1
  O  O543  1  0.67800967  0.01992892  0.94759785  1
  O  O544  1  0.67605376  0.35249496  0.20001879  1
  O  O545  1  0.67709868  0.35172335  0.44986213  1
  O  O546  1  0.67682949  0.35129445  0.70018437  1
  O  O547  1  0.67874677  0.35199497  0.94780036  1
  O  O548  1  0.67589414  0.68728679  0.20019847  1
  O  O549  1  0.67672132  0.68743932  0.45132296  1
  O  O550  1  0.67854450  0.68641811  0.69816569  1
  O  O551  1  0.67553806  0.68693845  0.94940684  1
  O  O552  1  0.32377705  0.31332672  0.04997840  1
  O  O553  1  0.32293235  0.31343453  0.30158098  1
  O  O554  1  0.32374301  0.31348386  0.54904833  1
  O  O555  1  0.32347548  0.31456189  0.80132475  1
  O  O556  1  0.32364824  0.64745294  0.05085593  1
  O  O557  1  0.32390603  0.64618316  0.30040468  1
  O  O558  1  0.32244131  0.64833062  0.55033439  1
  O  O559  1  0.32321670  0.64579539  0.80080670  1
  O  O560  1  0.32271822  0.97887273  0.05125278  1
  O  O561  1  0.32133813  0.97950220  0.30173353  1
  O  O562  1  0.32317520  0.98016327  0.54861727  1
  O  O563  1  0.32307780  0.98079568  0.80114622  1
  O  O564  1  0.82341075  0.31165084  0.05023327  1
  O  O565  1  0.82247633  0.31359410  0.30217192  1
  O  O566  1  0.82204032  0.31356139  0.55215318  1
  O  O567  1  0.82126243  0.31317804  0.80145300  1
  O  O568  1  0.82298717  0.64631071  0.04857062  1
  O  O569  1  0.82388277  0.64702282  0.29999068  1
  O  O570  1  0.82274955  0.64784813  0.55170371  1
  O  O571  1  0.82291203  0.64581669  0.79989440  1
  O  O572  1  0.82392496  0.98111418  0.04921075  1
  O  O573  1  0.82256665  0.98253607  0.30119699  1
  O  O574  1  0.82154984  0.98179342  0.55182097  1
  O  O575  1  0.82292136  0.98195194  0.79936716  1
  O  O576  1  0.42679653  0.14516040  0.17492259  1
  O  O577  1  0.42687485  0.14430787  0.42449379  1
  O  O578  1  0.42713594  0.14544216  0.67436987  1
  O  O579  1  0.42661435  0.14531883  0.92433047  1
  O  O580  1  0.42639661  0.48026831  0.17473460  1
  O  O581  1  0.42655862  0.47894198  0.42580858  1
  O  O582  1  0.42687870  0.48198172  0.67574259  1
  O  O583  1  0.42796860  0.48103426  0.92680079  1
  O  O584  1  0.42666476  0.81477185  0.17640645  1
  O  O585  1  0.42838297  0.81364621  0.42711704  1
  O  O586  1  0.42700973  0.81287943  0.67453387  1
  O  O587  1  0.42703054  0.81501550  0.92537550  1
  O  O588  1  0.92794281  0.14723751  0.17697168  1
  O  O589  1  0.92598505  0.14681649  0.42456069  1
  O  O590  1  0.92715903  0.14872774  0.67628591  1
  O  O591  1  0.92655094  0.14688164  0.92483737  1
  O  O592  1  0.92685685  0.48182921  0.17634990  1
  O  O593  1  0.92831993  0.48003460  0.42791719  1
  O  O594  1  0.92713372  0.47945091  0.67481345  1
  O  O595  1  0.92634706  0.47955123  0.92381732  1
  O  O596  1  0.92552147  0.81318769  0.17465154  1
  O  O597  1  0.92650865  0.81266785  0.42545415  1
  O  O598  1  0.92668911  0.81441995  0.67580230  1
  O  O599  1  0.92754664  0.81370213  0.92660527  1
  O  O600  1  0.07400576  0.18631275  0.07543166  1
  O  O601  1  0.07244226  0.18560946  0.32474431  1
  O  O602  1  0.07298158  0.18777413  0.57497925  1
  O  O603  1  0.07219127  0.18634576  0.82314081  1
  O  O604  1  0.07330101  0.52055125  0.07449662  1
  O  O605  1  0.07257388  0.51816344  0.32484414  1
  O  O606  1  0.07169226  0.51964046  0.57319464  1
  O  O607  1  0.07390563  0.52009386  0.82550277  1
  O  O608  1  0.07252357  0.85215086  0.07503413  1
  O  O609  1  0.07242139  0.85340553  0.32475558  1
  O  O610  1  0.07436592  0.85358322  0.57488111  1
  O  O611  1  0.07307602  0.85108912  0.82448215  1
  O  O612  1  0.57352114  0.18695145  0.07414333  1
  O  O613  1  0.57356165  0.18588790  0.32594492  1
  O  O614  1  0.57352662  0.18748254  0.57475941  1
  O  O615  1  0.57343022  0.18680684  0.82552627  1
  O  O616  1  0.57398031  0.51942008  0.07374732  1
  O  O617  1  0.57360209  0.51980505  0.32629311  1
  O  O618  1  0.57342881  0.52154821  0.57582076  1
  O  O619  1  0.57259635  0.52052863  0.82282160  1
  O  O620  1  0.57218457  0.85331980  0.07295510  1
  O  O621  1  0.57240298  0.85273341  0.32364071  1
  O  O622  1  0.57153175  0.85266610  0.57299567  1
  O  O623  1  0.57378615  0.85471566  0.82396347  1
  O  O624  1  0.32381763  0.18635814  0.04911038  1
  O  O625  1  0.32281219  0.18591766  0.30149638  1
  O  O626  1  0.32399651  0.18671065  0.54915084  1
  O  O627  1  0.32390687  0.18737598  0.80055758  1
  O  O628  1  0.32332944  0.52034204  0.05098235  1
  O  O629  1  0.32376085  0.51914016  0.30064310  1
  O  O630  1  0.32322994  0.52120167  0.55028935  1
  O  O631  1  0.32357846  0.51880125  0.80065465  1
  O  O632  1  0.32305002  0.85186411  0.05107079  1
  O  O633  1  0.32229610  0.85207342  0.30215849  1
  O  O634  1  0.32391450  0.85343508  0.54937596  1
  O  O635  1  0.32314278  0.85348015  0.80041032  1
  O  O636  1  0.82297998  0.18476219  0.05105379  1
  O  O637  1  0.82168150  0.18642411  0.30317696  1
  O  O638  1  0.82237388  0.18639792  0.55128365  1
  O  O639  1  0.82241669  0.18611170  0.80069131  1
  O  O640  1  0.82382153  0.51936069  0.04947529  1
  O  O641  1  0.82411292  0.51997937  0.30056262  1
  O  O642  1  0.82354794  0.52056885  0.55065091  1
  O  O643  1  0.82271549  0.51860515  0.79966352  1
  O  O644  1  0.82309524  0.85427866  0.04896450  1
  O  O645  1  0.82266562  0.85541918  0.30066900  1
  O  O646  1  0.82272660  0.85451268  0.55121770  1
  O  O647  1  0.82294233  0.85494534  0.79930284  1
  O  O648  1  0.17670297  0.14650883  0.20072580  1
  O  O649  1  0.17716377  0.14692441  0.44807947  1
  O  O650  1  0.17673290  0.14686178  0.70050464  1
  O  O651  1  0.17616114  0.14485757  0.94982965  1
  O  O652  1  0.17601939  0.47966087  0.20095823  1
  O  O653  1  0.17793675  0.48095593  0.44823626  1
  O  O654  1  0.17597670  0.47971725  0.70021162  1
  O  O655  1  0.17778804  0.48053350  0.94860471  1
  O  O656  1  0.17751535  0.81327093  0.19855485  1
  O  O657  1  0.17636309  0.81414731  0.44920078  1
  O  O658  1  0.17688532  0.81203207  0.69966507  1
  O  O659  1  0.17638419  0.81283534  0.95091596  1
  O  O660  1  0.67699265  0.14897341  0.19891289  1
  O  O661  1  0.67806001  0.14775910  0.44872587  1
  O  O662  1  0.67691188  0.14724721  0.69849311  1
  O  O663  1  0.67733795  0.14716900  0.94738077  1
  O  O664  1  0.67633881  0.47926721  0.20073880  1
  O  O665  1  0.67718525  0.47887349  0.45112724  1
  O  O666  1  0.67652392  0.47825060  0.70008224  1
  O  O667  1  0.67780722  0.47948834  0.94752273  1
  O  O668  1  0.67581563  0.81445795  0.19984069  1
  O  O669  1  0.67619727  0.81418370  0.45162887  1
  O  O670  1  0.67726909  0.81408423  0.69815892  1
  O  O671  1  0.67561898  0.81386676  0.94901797  1
