# generated using pymatgen
data_Na2MnFe(PO4)2
_symmetry_space_group_name_H-M   'P 1'
_cell_length_a   22.34670702
_cell_length_b   20.09707030
_cell_length_c   19.44684755
_cell_angle_alpha   89.97239264
_cell_angle_beta   89.95384762
_cell_angle_gamma   89.98664682
_symmetry_Int_Tables_number   1
_chemical_formula_structural   Na2MnFe(PO4)2
_chemical_formula_sum   'Na96 Mn48 Fe48 P96 O384'
_cell_volume   8733.64014358
_cell_formula_units_Z   48
loop_
 _symmetry_equiv_pos_site_id
 _symmetry_equiv_pos_as_xyz
  1  'x, y, z'
loop_
 _atom_site_type_symbol
 _atom_site_label
 _atom_site_symmetry_multiplicity
 _atom_site_fract_x
 _atom_site_fract_y
 _atom_site_fract_z
 _atom_site_occupancy
  Na  Na0  1  0.14090698  0.24920732  0.24392220  1
  Na  Na1  1  0.14063070  0.25058864  0.49352952  1
  Na  Na2  1  0.14008627  0.25069764  0.74280201  1
  Na  Na3  1  0.14045113  0.24859999  0.99423409  1
  Na  Na4  1  0.14041344  0.58512997  0.24442581  1
  Na  Na5  1  0.14001826  0.58473084  0.49332515  1
  Na  Na6  1  0.14065965  0.58514415  0.74206673  1
  Na  Na7  1  0.14065034  0.58494896  0.99326648  1
  Na  Na8  1  0.14097043  0.91690199  0.24338144  1
  Na  Na9  1  0.14106591  0.91691240  0.49220645  1
  Na  Na10  1  0.14129560  0.91582509  0.74407763  1
  Na  Na11  1  0.14131263  0.91567331  0.99458299  1
  Na  Na12  1  0.64060986  0.24911906  0.24286308  1
  Na  Na13  1  0.64044245  0.24943682  0.49509561  1
  Na  Na14  1  0.63990434  0.24980526  0.74314279  1
  Na  Na15  1  0.64019529  0.25058075  0.99395439  1
  Na  Na16  1  0.64017188  0.58329607  0.24387185  1
  Na  Na17  1  0.64004780  0.58409112  0.49370121  1
  Na  Na18  1  0.64029472  0.58324162  0.74394516  1
  Na  Na19  1  0.64062900  0.58398572  0.99349277  1
  Na  Na20  1  0.64008525  0.91558727  0.24404898  1
  Na  Na21  1  0.64037864  0.91583687  0.49368859  1
  Na  Na22  1  0.64045801  0.91586838  0.74384184  1
  Na  Na23  1  0.64046473  0.91606282  0.99434271  1
  Na  Na24  1  0.35950011  0.08250892  0.00763668  1
  Na  Na25  1  0.35993753  0.08225342  0.25714553  1
  Na  Na26  1  0.35998471  0.08219503  0.50544170  1
  Na  Na27  1  0.35952174  0.08315304  0.75714949  1
  Na  Na28  1  0.35886165  0.41691038  0.00646181  1
  Na  Na29  1  0.35897722  0.41721533  0.25709616  1
  Na  Na30  1  0.35948019  0.41848677  0.50659519  1
  Na  Na31  1  0.35917127  0.41781559  0.75588763  1
  Na  Na32  1  0.36000602  0.75111837  0.00758150  1
  Na  Na33  1  0.35968392  0.75041578  0.25679820  1
  Na  Na34  1  0.35892960  0.74968667  0.50544519  1
  Na  Na35  1  0.35909375  0.75127329  0.75664473  1
  Na  Na36  1  0.85954935  0.08367040  0.00619806  1
  Na  Na37  1  0.85991141  0.08160761  0.25651101  1
  Na  Na38  1  0.86001541  0.08274447  0.50714979  1
  Na  Na39  1  0.85949521  0.08336709  0.75545324  1
  Na  Na40  1  0.85963530  0.41708084  0.00545360  1
  Na  Na41  1  0.85938189  0.41691240  0.25587959  1
  Na  Na42  1  0.85944061  0.41721188  0.50736006  1
  Na  Na43  1  0.85963488  0.41702948  0.75658472  1
  Na  Na44  1  0.85956490  0.74930734  0.00488367  1
  Na  Na45  1  0.85963365  0.74911924  0.25644890  1
  Na  Na46  1  0.85976909  0.74942849  0.50548179  1
  Na  Na47  1  0.85927805  0.74831283  0.75519446  1
  Na  Na48  1  0.11060424  0.08239946  0.11933866  1
  Na  Na49  1  0.11024811  0.08376266  0.36770394  1
  Na  Na50  1  0.10964796  0.08415448  0.61873661  1
  Na  Na51  1  0.11004944  0.08321079  0.86892210  1
  Na  Na52  1  0.10977192  0.41613234  0.12005872  1
  Na  Na53  1  0.10946981  0.41900423  0.36960994  1
  Na  Na54  1  0.10946057  0.41850472  0.61876082  1
  Na  Na55  1  0.10935713  0.41689120  0.86713649  1
  Na  Na56  1  0.11058041  0.74941290  0.11875141  1
  Na  Na57  1  0.11034467  0.75070603  0.36757177  1
  Na  Na58  1  0.11048684  0.74957977  0.61698328  1
  Na  Na59  1  0.11095763  0.74913153  0.86733530  1
  Na  Na60  1  0.60966472  0.08173708  0.11927080  1
  Na  Na61  1  0.60971842  0.08191337  0.36878362  1
  Na  Na62  1  0.60940981  0.08371409  0.61933570  1
  Na  Na63  1  0.60944732  0.08448296  0.86939919  1
  Na  Na64  1  0.60979100  0.41659797  0.11810894  1
  Na  Na65  1  0.60923302  0.41679197  0.36849092  1
  Na  Na66  1  0.60926265  0.41577148  0.61925783  1
  Na  Na67  1  0.60930665  0.41629236  0.86905748  1
  Na  Na68  1  0.60938557  0.74989853  0.11929390  1
  Na  Na69  1  0.60971176  0.75048182  0.36834853  1
  Na  Na70  1  0.61010882  0.74972326  0.61787607  1
  Na  Na71  1  0.61034764  0.75025448  0.86864058  1
  Na  Na72  1  0.39017798  0.24776535  0.13170624  1
  Na  Na73  1  0.39065861  0.24872729  0.38092363  1
  Na  Na74  1  0.39036552  0.25017433  0.63092372  1
  Na  Na75  1  0.39018675  0.25004331  0.88083790  1
  Na  Na76  1  0.38992868  0.58539642  0.13211866  1
  Na  Na77  1  0.38976386  0.58397100  0.38155771  1
  Na  Na78  1  0.38936221  0.58250922  0.63160989  1
  Na  Na79  1  0.38981974  0.58517877  0.88155071  1
  Na  Na80  1  0.39041154  0.91632853  0.13300895  1
  Na  Na81  1  0.38981620  0.91649440  0.38075001  1
  Na  Na82  1  0.38979264  0.91762351  0.63134250  1
  Na  Na83  1  0.38993414  0.91693023  0.88330839  1
  Na  Na84  1  0.89029207  0.24965660  0.13196360  1
  Na  Na85  1  0.89059702  0.25085617  0.38121752  1
  Na  Na86  1  0.89046255  0.25076996  0.63241007  1
  Na  Na87  1  0.89046530  0.25037215  0.87953417  1
  Na  Na88  1  0.89011663  0.58190955  0.13105231  1
  Na  Na89  1  0.89019731  0.58417980  0.38108264  1
  Na  Na90  1  0.89022354  0.58311091  0.63136334  1
  Na  Na91  1  0.88988164  0.58276420  0.88016904  1
  Na  Na92  1  0.89038106  0.91588397  0.13128801  1
  Na  Na93  1  0.89073256  0.91591416  0.38125732  1
  Na  Na94  1  0.89078453  0.91633976  0.63070819  1
  Na  Na95  1  0.89015937  0.91589613  0.88021625  1
  Mn  Mn96  1  0.75008356  0.16623828  0.12497530  1
  Mn  Mn97  1  0.75012463  0.16702868  0.87562189  1
  Mn  Mn98  1  0.49921214  0.33220229  -0.00015622  1
  Mn  Mn99  1  0.24947924  -0.00111422  0.62498347  1
  Mn  Mn100  1  0.24963957  0.33269307  0.12613605  1
  Mn  Mn101  1  0.00037837  0.33492076  0.50128168  1
  Mn  Mn102  1  0.74998912  -0.00106273  0.62518408  1
  Mn  Mn103  1  0.00028764  0.66585477  -0.00085868  1
  Mn  Mn104  1  0.00065695  0.83353850  0.49931120  1
  Mn  Mn105  1  0.25008909  0.16557473  0.87487148  1
  Mn  Mn106  1  0.24929901  0.50195449  0.87577409  1
  Mn  Mn107  1  0.00015067  0.83231579  -0.00010369  1
  Mn  Mn108  1  0.74989010  -0.00174233  0.37630077  1
  Mn  Mn109  1  0.74972905  0.66586093  0.12474355  1
  Mn  Mn110  1  0.74921440  0.50057666  0.37571706  1
  Mn  Mn111  1  0.49910897  0.50075511  -0.00022818  1
  Mn  Mn112  1  0.74955327  0.50035400  0.62503633  1
  Mn  Mn113  1  0.50005756  0.49938298  0.75112492  1
  Mn  Mn114  1  0.24951417  0.33365076  0.87507622  1
  Mn  Mn115  1  0.49960423  0.33234828  0.24939207  1
  Mn  Mn116  1  0.49993313  0.00005489  0.00095431  1
  Mn  Mn117  1  0.25014406  0.33370055  0.37522158  1
  Mn  Mn118  1  0.24933145  0.50149143  0.12540340  1
  Mn  Mn119  1  0.75050322  0.16615042  0.37504101  1
  Mn  Mn120  1  0.25060228  0.33493009  0.62386897  1
  Mn  Mn121  1  0.75018884  0.33412786  0.87467968  1
  Mn  Mn122  1  0.74973260  0.83324175  0.12494127  1
  Mn  Mn123  1  0.49908676  0.66612694  0.49971004  1
  Mn  Mn124  1  0.50030492  0.16575194  0.50029706  1
  Mn  Mn125  1  0.50023811  0.33351944  0.49997135  1
  Mn  Mn126  1  0.49949241  0.83417155  0.49939881  1
  Mn  Mn127  1  0.00048150  0.00057985  0.75010489  1
  Mn  Mn128  1  0.00016361  0.50026943  0.25026893  1
  Mn  Mn129  1  0.00021671  0.33279529  -0.00090191  1
  Mn  Mn130  1  0.49976408  0.66686265  0.75001474  1
  Mn  Mn131  1  0.00026473  0.83290898  0.25012226  1
  Mn  Mn132  1  0.74948895  -0.00078232  0.87444261  1
  Mn  Mn133  1  0.50004687  0.00112753  0.75172254  1
  Mn  Mn134  1  0.49919789  0.50085899  0.24897875  1
  Mn  Mn135  1  -0.00000220  0.16638571  0.00019274  1
  Mn  Mn136  1  0.49991153  0.83390991  0.75026335  1
  Mn  Mn137  1  0.00072988  0.16702762  0.49973362  1
  Mn  Mn138  1  -0.00011987  -0.00051913  -0.00064020  1
  Mn  Mn139  1  0.00099286  0.83258955  0.74879052  1
  Mn  Mn140  1  0.00052354  0.49958377  -0.00035699  1
  Mn  Mn141  1  0.25016099  0.16628966  0.62471773  1
  Mn  Mn142  1  0.00017972  0.16656814  0.25043102  1
  Mn  Mn143  1  0.74983786  0.33331401  0.37511991  1
  Fe  Fe144  1  0.25056027  0.66772161  0.12538939  1
  Fe  Fe145  1  0.24996047  0.83322888  0.37438492  1
  Fe  Fe146  1  0.25059364  -0.00036234  0.12577876  1
  Fe  Fe147  1  0.50043808  0.16544954  0.25078462  1
  Fe  Fe148  1  0.24989077  0.66735849  0.37526516  1
  Fe  Fe149  1  0.00029065  0.00052754  0.50002871  1
  Fe  Fe150  1  0.25040121  0.83317500  0.62453135  1
  Fe  Fe151  1  0.00044782  -0.00027396  0.24981444  1
  Fe  Fe152  1  0.74973992  0.33328689  0.62552581  1
  Fe  Fe153  1  0.49990174  0.83338072  0.25028638  1
  Fe  Fe154  1  0.75054519  0.83281797  0.87444262  1
  Fe  Fe155  1  0.75018464  0.83230140  0.37480451  1
  Fe  Fe156  1  0.00006648  0.50053793  0.74910953  1
  Fe  Fe157  1  0.50007224  0.16658185  0.00025575  1
  Fe  Fe158  1  0.24993256  -0.00090289  0.87624186  1
  Fe  Fe159  1  0.50018553  0.66707422  0.25036380  1
  Fe  Fe160  1  0.75009855  0.33371371  0.12464103  1
  Fe  Fe161  1  0.50025176  0.66759696  0.00097519  1
  Fe  Fe162  1  0.25023361  0.83359448  0.12504777  1
  Fe  Fe163  1  0.49932346  0.33309400  0.74998018  1
  Fe  Fe164  1  0.24992004  0.66772662  0.62416361  1
  Fe  Fe165  1  0.49945331  0.16700312  0.74995881  1
  Fe  Fe166  1  0.25034361  0.16563208  0.12497801  1
  Fe  Fe167  1  0.74928609  0.49995104  0.87491896  1
  Fe  Fe168  1  0.49962407  0.49983188  0.49996982  1
  Fe  Fe169  1  0.74982052  0.66673410  0.62511556  1
  Fe  Fe170  1  0.75010643  0.50008495  0.12455132  1
  Fe  Fe171  1  0.50033023  -0.00066898  0.24974355  1
  Fe  Fe172  1  0.24967730  0.50180885  0.62529241  1
  Fe  Fe173  1  0.24991294  0.50128481  0.37547543  1
  Fe  Fe174  1  0.75060279  -0.00087014  0.12506071  1
  Fe  Fe175  1  -0.00007222  0.66660382  0.49957197  1
  Fe  Fe176  1  0.74987624  0.83202156  0.62459522  1
  Fe  Fe177  1  0.74975734  0.16651579  0.62533463  1
  Fe  Fe178  1  0.00011565  0.33385873  0.74965954  1
  Fe  Fe179  1  0.25039293  0.66814245  0.87418445  1
  Fe  Fe180  1  0.00018145  0.66650012  0.24988276  1
  Fe  Fe181  1  -0.00068697  0.50084291  0.50010966  1
  Fe  Fe182  1  0.50051519  0.83306470  0.00148472  1
  Fe  Fe183  1  -0.00039539  0.16688083  0.74938091  1
  Fe  Fe184  1  0.74968484  0.66648994  0.87450941  1
  Fe  Fe185  1  -0.00003304  0.66616317  0.74865240  1
  Fe  Fe186  1  0.49998164  -0.00018248  0.49990120  1
  Fe  Fe187  1  0.25002365  -0.00020162  0.37445918  1
  Fe  Fe188  1  0.00011777  0.33385130  0.25072706  1
  Fe  Fe189  1  0.74985277  0.66677552  0.37478420  1
  Fe  Fe190  1  0.25053923  0.16619163  0.37451049  1
  Fe  Fe191  1  0.25064664  0.83337042  0.87554959  1
  P  P192  1  0.04265810  0.25007377  0.10377337  1
  P  P193  1  0.04260570  0.25184901  0.35276268  1
  P  P194  1  0.04280682  0.25063873  0.60411366  1
  P  P195  1  0.04164493  0.24983693  0.85079522  1
  P  P196  1  0.04312627  0.58306363  0.10333091  1
  P  P197  1  0.04204409  0.58525367  0.35320269  1
  P  P198  1  0.04114972  0.58349783  0.60180100  1
  P  P199  1  0.04188522  0.58322226  0.85035861  1
  P  P200  1  0.04286950  0.91633858  0.10343221  1
  P  P201  1  0.04248467  0.91822519  0.35250707  1
  P  P202  1  0.04290171  0.91798930  0.60177997  1
  P  P203  1  0.04327488  0.91608501  0.85265015  1
  P  P204  1  0.54206595  0.24773369  0.10304878  1
  P  P205  1  0.54262109  0.24846725  0.35231084  1
  P  P206  1  0.54241532  0.24983345  0.60395105  1
  P  P207  1  0.54129136  0.24972611  0.85175268  1
  P  P208  1  0.54191115  0.58499381  0.10274736  1
  P  P209  1  0.54179156  0.58417992  0.35258570  1
  P  P210  1  0.54177595  0.58172107  0.60237846  1
  P  P211  1  0.54248081  0.58427244  0.85402481  1
  P  P212  1  0.54195721  0.91531703  0.10388840  1
  P  P213  1  0.54133041  0.91692563  0.35193271  1
  P  P214  1  0.54219442  0.91818058  0.60254644  1
  P  P215  1  0.54269496  0.91649639  0.85454526  1
  P  P216  1  0.45867208  0.08286813  0.14876111  1
  P  P217  1  0.45830768  0.08147834  0.39678765  1
  P  P218  1  0.45733958  0.08415456  0.64790485  1
  P  P219  1  0.45756477  0.08504739  0.89821246  1
  P  P220  1  0.45643667  0.41633012  0.14663950  1
  P  P221  1  0.45737579  0.41787355  0.39739631  1
  P  P222  1  0.45755357  0.41580156  0.64749562  1
  P  P223  1  0.45646646  0.41623453  0.89671354  1
  P  P224  1  0.45897073  0.75015343  0.14840317  1
  P  P225  1  0.45717213  0.75024355  0.39588965  1
  P  P226  1  0.45693987  0.75038208  0.64687532  1
  P  P227  1  0.45886198  0.75069475  0.89935281  1
  P  P228  1  0.95790125  0.08185188  0.14781959  1
  P  P229  1  0.95809254  0.08202382  0.39723533  1
  P  P230  1  0.95784494  0.08424326  0.64683031  1
  P  P231  1  0.95698067  0.08378903  0.89607539  1
  P  P232  1  0.95777437  0.41534410  0.14786079  1
  P  P233  1  0.95749902  0.41833690  0.39787422  1
  P  P234  1  0.95820995  0.41771614  0.64824195  1
  P  P235  1  0.95755815  0.41675714  0.89533453  1
  P  P236  1  0.95764525  0.74821486  0.14751797  1
  P  P237  1  0.95843429  0.74882072  0.39695246  1
  P  P238  1  0.95837861  0.74825248  0.64614455  1
  P  P239  1  0.95780131  0.74907217  0.89545874  1
  P  P240  1  0.20927604  0.08293390  0.22750125  1
  P  P241  1  0.20879560  0.08318034  0.47599125  1
  P  P242  1  0.20726989  0.08240495  0.72844029  1
  P  P243  1  0.20808764  0.08130285  0.97869967  1
  P  P244  1  0.20737645  0.41771466  0.22924656  1
  P  P245  1  0.20808139  0.41926148  0.47788378  1
  P  P246  1  0.20762933  0.41897424  0.72711866  1
  P  P247  1  0.20656934  0.41713342  0.97842863  1
  P  P248  1  0.20913984  0.75077507  0.22717905  1
  P  P249  1  0.20849972  0.75057379  0.47663952  1
  P  P250  1  0.20888157  0.75061467  0.72645314  1
  P  P251  1  0.20915058  0.75027759  0.97708094  1
  P  P252  1  0.70823166  0.08104577  0.22760561  1
  P  P253  1  0.70758096  0.08325199  0.47905373  1
  P  P254  1  0.70760648  0.08382254  0.72750754  1
  P  P255  1  0.70726581  0.08268766  0.97869241  1
  P  P256  1  0.70835592  0.41706916  0.22634563  1
  P  P257  1  0.70694454  0.41636667  0.47890053  1
  P  P258  1  0.70758444  0.41607483  0.72774250  1
  P  P259  1  0.70760628  0.41804200  0.97820048  1
  P  P260  1  0.70735364  0.74943763  0.22863415  1
  P  P261  1  0.70837735  0.74966559  0.47703096  1
  P  P262  1  0.70813330  0.74950530  0.72706168  1
  P  P263  1  0.70892520  0.75006369  0.97614589  1
  P  P264  1  0.29200148  0.24847688  0.02288119  1
  P  P265  1  0.29222695  0.24838471  0.27225487  1
  P  P266  1  0.29286892  0.24980676  0.52096979  1
  P  P267  1  0.29248779  0.25033144  0.77172995  1
  P  P268  1  0.29209994  0.58599786  0.02251237  1
  P  P269  1  0.29120518  0.58460891  0.27345946  1
  P  P270  1  0.29086432  0.58416279  0.52263545  1
  P  P271  1  0.29201419  0.58551571  0.77180819  1
  P  P272  1  0.29187533  0.91669543  0.02372989  1
  P  P273  1  0.29118521  0.91646789  0.27270769  1
  P  P274  1  0.29191319  0.91503393  0.52151380  1
  P  P275  1  0.29177293  0.91662024  0.77394164  1
  P  P276  1  0.79242210  0.25155963  0.02272039  1
  P  P277  1  0.79275779  0.25020944  0.27134325  1
  P  P278  1  0.79170001  0.24999072  0.52397687  1
  P  P279  1  0.79208030  0.25002578  0.77089408  1
  P  P280  1  0.79217176  0.58200418  0.02137450  1
  P  P281  1  0.79197453  0.58385711  0.27239315  1
  P  P282  1  0.79176369  0.58524044  0.52229987  1
  P  P283  1  0.79072502  0.58315715  0.77305102  1
  P  P284  1  0.79258623  0.91708771  0.02191910  1
  P  P285  1  0.79233420  0.91495784  0.27252433  1
  P  P286  1  0.79224313  0.91400848  0.52236873  1
  P  P287  1  0.79213648  0.91429769  0.77156218  1
  O  O288  1  0.03753948  0.25049220  0.18375362  1
  O  O289  1  0.03756795  0.25153226  0.43276339  1
  O  O290  1  0.03738416  0.25032024  0.68401911  1
  O  O291  1  0.03672430  0.24974596  0.93087406  1
  O  O292  1  0.03801583  0.58361026  0.18329254  1
  O  O293  1  0.03642186  0.58520555  0.43308017  1
  O  O294  1  0.03596300  0.58337356  0.68172946  1
  O  O295  1  0.03733390  0.58306680  0.93039926  1
  O  O296  1  0.03764538  0.91671110  0.18345327  1
  O  O297  1  0.03722683  0.91840669  0.43245692  1
  O  O298  1  0.03779747  0.91735425  0.68172840  1
  O  O299  1  0.03801734  0.91586133  0.93261924  1
  O  O300  1  0.53685954  0.24760104  0.18300395  1
  O  O301  1  0.53753679  0.24897543  0.43228613  1
  O  O302  1  0.53696043  0.25005626  0.68385454  1
  O  O303  1  0.53622421  0.24928446  0.93177314  1
  O  O304  1  0.53674828  0.58521431  0.18272342  1
  O  O305  1  0.53626787  0.58312508  0.43251583  1
  O  O306  1  0.53695525  0.58200020  0.68238998  1
  O  O307  1  0.53714444  0.58492608  0.93394724  1
  O  O308  1  0.53637583  0.91560136  0.18379186  1
  O  O309  1  0.53642789  0.91734395  0.43191514  1
  O  O310  1  0.53727131  0.91794067  0.68256125  1
  O  O311  1  0.53752626  0.91576594  0.93451754  1
  O  O312  1  0.46329782  0.08327552  0.06878901  1
  O  O313  1  0.46389248  0.08164311  0.31691655  1
  O  O314  1  0.46258622  0.08310862  0.56795889  1
  O  O315  1  0.46262636  0.08522847  0.81824584  1
  O  O316  1  0.46143732  0.41622329  0.06664996  1
  O  O317  1  0.46232754  0.41766343  0.31740362  1
  O  O318  1  0.46299337  0.41665428  0.56752771  1
  O  O319  1  0.46194509  0.41567724  0.81675456  1
  O  O320  1  0.46419085  0.75027698  0.06846797  1
  O  O321  1  0.46258547  0.75003046  0.31599238  1
  O  O322  1  0.46179635  0.75041505  0.56689224  1
  O  O323  1  0.46332871  0.75065427  0.81931156  1
  O  O324  1  0.96272506  0.08217752  0.06779586  1
  O  O325  1  0.96339051  0.08171931  0.31724615  1
  O  O326  1  0.96335023  0.08367088  0.56686610  1
  O  O327  1  0.96216084  0.08447918  0.81609028  1
  O  O328  1  0.96291696  0.41559733  0.06787165  1
  O  O329  1  0.96285192  0.41754942  0.31796828  1
  O  O330  1  0.96326246  0.41832874  0.56827283  1
  O  O331  1  0.96284190  0.41688569  0.81540266  1
  O  O332  1  0.96270428  0.74862130  0.06750011  1
  O  O333  1  0.96358182  0.74884531  0.31699955  1
  O  O334  1  0.96373383  0.74813834  0.56618230  1
  O  O335  1  0.96301610  0.74877775  0.81547959  1
  O  O336  1  0.21372181  0.08179332  0.05859660  1
  O  O337  1  0.21451541  0.08335260  0.30740355  1
  O  O338  1  0.21319896  0.08264176  0.55601436  1
  O  O339  1  0.21230702  0.08200000  0.80840460  1
  O  O340  1  0.21172459  0.41696801  0.05842134  1
  O  O341  1  0.21301606  0.41826430  0.30917150  1
  O  O342  1  0.21352471  0.41948827  0.55783392  1
  O  O343  1  0.21247244  0.41872814  0.80711880  1
  O  O344  1  0.21384209  0.75011207  0.05695777  1
  O  O345  1  0.21410548  0.75122564  0.30701790  1
  O  O346  1  0.21329862  0.75040842  0.55649225  1
  O  O347  1  0.21365025  0.74999145  0.80631723  1
  O  O348  1  0.71274808  0.08210770  0.05863579  1
  O  O349  1  0.71335393  0.08126885  0.30759890  1
  O  O350  1  0.71283889  0.08374944  0.55899938  1
  O  O351  1  0.71256597  0.08356715  0.80751080  1
  O  O352  1  0.71311483  0.41763398  0.05808662  1
  O  O353  1  0.71305900  0.41688911  0.30640533  1
  O  O354  1  0.71230200  0.41585078  0.55882947  1
  O  O355  1  0.71267099  0.41691145  0.80770024  1
  O  O356  1  0.71363241  0.74969025  0.05609641  1
  O  O357  1  0.71252371  0.74945386  0.30854183  1
  O  O358  1  0.71347000  0.74957662  0.55696864  1
  O  O359  1  0.71345938  0.74963396  0.80693412  1
  O  O360  1  0.28655480  0.24805641  0.19231513  1
  O  O361  1  0.28755462  0.24928739  0.44100492  1
  O  O362  1  0.28764255  0.25056261  0.69172919  1
  O  O363  1  0.28675154  0.24868744  0.94290484  1
  O  O364  1  0.28636451  0.58522196  0.19348788  1
  O  O365  1  0.28593796  0.58407341  0.44274144  1
  O  O366  1  0.28658070  0.58486367  0.69191537  1
  O  O367  1  0.28693831  0.58632925  0.94254714  1
  O  O368  1  0.28644017  0.91707599  0.19283800  1
  O  O369  1  0.28638212  0.91529988  0.44170317  1
  O  O370  1  0.28689761  0.91607575  0.69398900  1
  O  O371  1  0.28717784  0.91658369  0.94385649  1
  O  O372  1  0.78747149  0.25083792  0.19139734  1
  O  O373  1  0.78678393  0.25002745  0.44390265  1
  O  O374  1  0.78651101  0.24984545  0.69099374  1
  O  O375  1  0.78740889  0.25147159  0.94271160  1
  O  O376  1  0.78689824  0.58293861  0.19243720  1
  O  O377  1  0.78648332  0.58526222  0.44236926  1
  O  O378  1  0.78585456  0.58385029  0.69308974  1
  O  O379  1  0.78664770  0.58208258  0.94153036  1
  O  O380  1  0.78721174  0.91589950  0.19254733  1
  O  O381  1  0.78701547  0.91394177  0.44240125  1
  O  O382  1  0.78670110  0.91417858  0.69164389  1
  O  O383  1  0.78734369  0.91644985  0.94196372  1
  O  O384  1  0.22776173  0.24816411  0.05859222  1
  O  O385  1  0.22814519  0.24859619  0.30844858  1
  O  O386  1  0.22859480  0.25038871  0.55647228  1
  O  O387  1  0.22804265  0.24979376  0.80676962  1
  O  O388  1  0.22781584  0.58627337  0.05824648  1
  O  O389  1  0.22708413  0.58409413  0.30945252  1
  O  O390  1  0.22681699  0.58402389  0.55896573  1
  O  O391  1  0.22782641  0.58626439  0.80793151  1
  O  O392  1  0.22776820  0.91729866  0.05986852  1
  O  O393  1  0.22716486  0.91587006  0.30895730  1
  O  O394  1  0.22780534  0.91453907  0.55790576  1
  O  O395  1  0.22765506  0.91704370  0.81006700  1
  O  O396  1  0.72807015  0.25119924  0.05810719  1
  O  O397  1  0.72840326  0.24969808  0.30672022  1
  O  O398  1  0.72745419  0.24997041  0.55970941  1
  O  O399  1  0.72798366  0.25028405  0.80696687  1
  O  O400  1  0.72800523  0.58148958  0.05764217  1
  O  O401  1  0.72767555  0.58461972  0.30811994  1
  O  O402  1  0.72754231  0.58511790  0.55814475  1
  O  O403  1  0.72665880  0.58265337  0.80918678  1
  O  O404  1  0.72828789  0.91787928  0.05773257  1
  O  O405  1  0.72806053  0.91421806  0.30831905  1
  O  O406  1  0.72796919  0.91434460  0.55807323  1
  O  O407  1  0.72796458  0.91410916  0.80764117  1
  O  O408  1  0.27327173  0.08284862  0.19095594  1
  O  O409  1  0.27311157  0.08351699  0.44060051  1
  O  O410  1  0.27163348  0.08225342  0.69309628  1
  O  O411  1  0.27218103  0.08098454  0.94235585  1
  O  O412  1  0.27148021  0.41749874  0.19330711  1
  O  O413  1  0.27223178  0.41886571  0.44189058  1
  O  O414  1  0.27199431  0.41938508  0.69166768  1
  O  O415  1  0.27098250  0.41754356  0.94328673  1
  O  O416  1  0.27318593  0.75028029  0.19078713  1
  O  O417  1  0.27257444  0.75106122  0.44037828  1
  O  O418  1  0.27298613  0.75112263  0.69023145  1
  O  O419  1  0.27331903  0.74969434  0.94089273  1
  O  O420  1  0.77247829  0.08137076  0.19186673  1
  O  O421  1  0.77193139  0.08256413  0.44368480  1
  O  O422  1  0.77189728  0.08362069  0.69200697  1
  O  O423  1  0.77152221  0.08262146  0.94308622  1
  O  O424  1  0.77258099  0.41747793  0.19057412  1
  O  O425  1  0.77130215  0.41687253  0.44356514  1
  O  O426  1  0.77182805  0.41595333  0.69200438  1
  O  O427  1  0.77170313  0.41865564  0.94183733  1
  O  O428  1  0.77155808  0.74942504  0.19290344  1
  O  O429  1  0.77245064  0.74971583  0.44055243  1
  O  O430  1  0.77221448  0.74932716  0.69052609  1
  O  O431  1  0.77302747  0.75031629  0.94014482  1
  O  O432  1  0.02230752  0.08216884  0.18302717  1
  O  O433  1  0.02242321  0.08203385  0.43282209  1
  O  O434  1  0.02202188  0.08495340  0.68265552  1
  O  O435  1  0.02140348  0.08333342  0.93118859  1
  O  O436  1  0.02205251  0.41536274  0.18346762  1
  O  O437  1  0.02174286  0.41928568  0.43366887  1
  O  O438  1  0.02236994  0.41783309  0.68416176  1
  O  O439  1  0.02185790  0.41648139  0.93088292  1
  O  O440  1  0.02206197  0.74818932  0.18280942  1
  O  O441  1  0.02265837  0.74898065  0.43252759  1
  O  O442  1  0.02264559  0.74793858  0.68179414  1
  O  O443  1  0.02216698  0.74933834  0.93073646  1
  O  O444  1  0.52292218  0.08232608  0.18443956  1
  O  O445  1  0.52236391  0.08119909  0.43308479  1
  O  O446  1  0.52161020  0.08492968  0.68363645  1
  O  O447  1  0.52187438  0.08470226  0.93379353  1
  O  O448  1  0.52092963  0.41646519  0.18138975  1
  O  O449  1  0.52174873  0.41824339  0.43271823  1
  O  O450  1  0.52169663  0.41494117  0.68348731  1
  O  O451  1  0.52075959  0.41644862  0.93207555  1
  O  O452  1  0.52290296  0.74961932  0.18484212  1
  O  O453  1  0.52129228  0.74996293  0.43173140  1
  O  O454  1  0.52148315  0.75040330  0.68159821  1
  O  O455  1  0.52318704  0.75091284  0.93477194  1
  O  O456  1  0.47775091  0.24768996  0.06745691  1
  O  O457  1  0.47823771  0.24820339  0.31704505  1
  O  O458  1  0.47832070  0.24971331  0.56800462  1
  O  O459  1  0.47715583  0.24983156  0.81564286  1
  O  O460  1  0.47759734  0.58538791  0.06727499  1
  O  O461  1  0.47760008  0.58509942  0.31668526  1
  O  O462  1  0.47736767  0.58153274  0.56715526  1
  O  O463  1  0.47815810  0.58376144  0.81870781  1
  O  O464  1  0.47790220  0.91503991  0.06769902  1
  O  O465  1  0.47724781  0.91733664  0.31594173  1
  O  O466  1  0.47779579  0.91847943  0.56725250  1
  O  O467  1  0.47829770  0.91697306  0.81937431  1
  O  O468  1  0.97831782  0.24992829  0.06844874  1
  O  O469  1  0.97829012  0.25156665  0.31734226  1
  O  O470  1  0.97862096  0.25047052  0.56843615  1
  O  O471  1  0.97745414  0.25007162  0.81502813  1
  O  O472  1  0.97872085  0.58275903  0.06817443  1
  O  O473  1  0.97800333  0.58527861  0.31685488  1
  O  O474  1  0.97705200  0.58343013  0.56559462  1
  O  O475  1  0.97748662  0.58318200  0.81502996  1
  O  O476  1  0.97851365  0.91596072  0.06818885  1
  O  O477  1  0.97825528  0.91775375  0.31681625  1
  O  O478  1  0.97855357  0.91811217  0.56638998  1
  O  O479  1  0.97894013  0.91601761  0.81747068  1
  O  O480  1  0.07394122  0.31316235  0.07499522  1
  O  O481  1  0.07296223  0.31570147  0.32464729  1
  O  O482  1  0.07382171  0.31433417  0.57611145  1
  O  O483  1  0.07247245  0.31366001  0.82290359  1
  O  O484  1  0.07421024  0.64627222  0.07447023  1
  O  O485  1  0.07304407  0.64855383  0.32432007  1
  O  O486  1  0.07210419  0.64710794  0.57346540  1
  O  O487  1  0.07245568  0.64702167  0.82206061  1
  O  O488  1  0.07393517  0.97960989  0.07490564  1
  O  O489  1  0.07320362  0.98154855  0.32346972  1
  O  O490  1  0.07357080  0.98167287  0.57364953  1
  O  O491  1  0.07419871  0.97972580  0.82485079  1
  O  O492  1  0.57284190  0.31162327  0.07519180  1
  O  O493  1  0.57358773  0.31206740  0.32415418  1
  O  O494  1  0.57363179  0.31311569  0.57529960  1
  O  O495  1  0.57183669  0.31375079  0.82389204  1
  O  O496  1  0.57316519  0.64817662  0.07402612  1
  O  O497  1  0.57284683  0.64782654  0.32477445  1
  O  O498  1  0.57264304  0.64547575  0.57446066  1
  O  O499  1  0.57351583  0.64745612  0.82507394  1
  O  O500  1  0.57300511  0.97890077  0.07575730  1
  O  O501  1  0.57307405  0.97982312  0.32332116  1
  O  O502  1  0.57293904  0.98167838  0.57408874  1
  O  O503  1  0.57370807  0.98023760  0.82681942  1
  O  O504  1  0.42769038  0.01911323  0.17670835  1
  O  O505  1  0.42730189  0.01812708  0.42558669  1
  O  O506  1  0.42639565  0.02073722  0.67662823  1
  O  O507  1  0.42662422  0.02125336  0.92604554  1
  O  O508  1  0.42556766  0.35284132  0.17498045  1
  O  O509  1  0.42658019  0.35405446  0.42515693  1
  O  O510  1  0.42648402  0.35222501  0.67549557  1
  O  O511  1  0.42519619  0.35303602  0.92522143  1
  O  O512  1  0.42748825  0.68691877  0.17678730  1
  O  O513  1  0.42561223  0.68715063  0.42450062  1
  O  O514  1  0.42614569  0.68678249  0.67506799  1
  O  O515  1  0.42839934  0.68683786  0.92768071  1
  O  O516  1  0.92758218  0.01803803  0.17622567  1
  O  O517  1  0.92706936  0.01886639  0.42626863  1
  O  O518  1  0.92683692  0.02059563  0.67481532  1
  O  O519  1  0.92595962  0.02001573  0.92371496  1
  O  O520  1  0.92717305  0.35184751  0.17653286  1
  O  O521  1  0.92671666  0.35476287  0.42635425  1
  O  O522  1  0.92791595  0.35358361  0.67613136  1
  O  O523  1  0.92622925  0.35343435  0.92373068  1
  O  O524  1  0.92704244  0.68455660  0.17579954  1
  O  O525  1  0.92736082  0.68565276  0.42572367  1
  O  O526  1  0.92714039  0.68515416  0.67503554  1
  O  O527  1  0.92671436  0.68570246  0.92388581  1
  O  O528  1  0.17830980  0.01922313  0.19956976  1
  O  O529  1  0.17853803  0.01931753  0.44730381  1
  O  O530  1  0.17596046  0.01925975  0.69988536  1
  O  O531  1  0.17716406  0.01784628  0.95026601  1
  O  O532  1  0.17632486  0.35394530  0.20179366  1
  O  O533  1  0.17680231  0.35552066  0.45056359  1
  O  O534  1  0.17689038  0.35527844  0.69914085  1
  O  O535  1  0.17585887  0.35352718  0.95014595  1
  O  O536  1  0.17785090  0.68735967  0.19905462  1
  O  O537  1  0.17824195  0.68662044  0.44796687  1
  O  O538  1  0.17838925  0.68705897  0.69712723  1
  O  O539  1  0.17756848  0.68737787  0.94807206  1
  O  O540  1  0.67789495  0.01727729  0.19928971  1
  O  O541  1  0.67632429  0.01967020  0.45136653  1
  O  O542  1  0.67639237  0.02018640  0.69998882  1
  O  O543  1  0.67569403  0.01977027  0.95007587  1
  O  O544  1  0.67799198  0.35311690  0.19810013  1
  O  O545  1  0.67588945  0.35316437  0.45018140  1
  O  O546  1  0.67712337  0.35224982  0.69960851  1
  O  O547  1  0.67665843  0.35432271  0.95013903  1
  O  O548  1  0.67616433  0.68618865  0.20000713  1
  O  O549  1  0.67746177  0.68609858  0.44859631  1
  O  O550  1  0.67718280  0.68588720  0.69871324  1
  O  O551  1  0.67849788  0.68619356  0.94783864  1
  O  O552  1  0.32300362  0.31214033  0.05061818  1
  O  O553  1  0.32337516  0.31221246  0.29948083  1
  O  O554  1  0.32404897  0.31348629  0.54853656  1
  O  O555  1  0.32302056  0.31402616  0.79999443  1
  O  O556  1  0.32332037  0.64895896  0.05158835  1
  O  O557  1  0.32166948  0.64826022  0.30227262  1
  O  O558  1  0.32141996  0.64803293  0.55104135  1
  O  O559  1  0.32333710  0.64887556  0.80002118  1
  O  O560  1  0.32348937  0.97972266  0.05232577  1
  O  O561  1  0.32145065  0.98027927  0.30178097  1
  O  O562  1  0.32274365  0.97875644  0.54967679  1
  O  O563  1  0.32285140  0.98008448  0.80215109  1
  O  O564  1  0.82280075  0.31529444  0.05110658  1
  O  O565  1  0.82374636  0.31344938  0.30014048  1
  O  O566  1  0.82238873  0.31383629  0.55191375  1
  O  O567  1  0.82348545  0.31339294  0.79891172  1
  O  O568  1  0.82299527  0.64583341  0.04929178  1
  O  O569  1  0.82283595  0.64747554  0.30045183  1
  O  O570  1  0.82272810  0.64840468  0.55111063  1
  O  O571  1  0.82126896  0.64684197  0.80172092  1
  O  O572  1  0.82355023  0.98050959  0.05036800  1
  O  O573  1  0.82334668  0.97831782  0.30099994  1
  O  O574  1  0.82340630  0.97768102  0.55003097  1
  O  O575  1  0.82292189  0.97827514  0.79897047  1
  O  O576  1  0.42817971  0.14643931  0.17765614  1
  O  O577  1  0.42715578  0.14504991  0.42483343  1
  O  O578  1  0.42639184  0.14780353  0.67585080  1
  O  O579  1  0.42684195  0.14836976  0.92711053  1
  O  O580  1  0.42532536  0.47989569  0.17449442  1
  O  O581  1  0.42658493  0.48137005  0.42592968  1
  O  O582  1  0.42658563  0.47932409  0.67579156  1
  O  O583  1  0.42539065  0.47995574  0.92437879  1
  O  O584  1  0.42857450  0.81413624  0.17684286  1
  O  O585  1  0.42622281  0.81386370  0.42401982  1
  O  O586  1  0.42606031  0.81387896  0.67524008  1
  O  O587  1  0.42789451  0.81418958  0.92774464  1
  O  O588  1  0.92656443  0.14524904  0.17579766  1
  O  O589  1  0.92723394  0.14604678  0.42464462  1
  O  O590  1  0.92678764  0.14772578  0.67502015  1
  O  O591  1  0.92593884  0.14697943  0.92499798  1
  O  O592  1  0.92669654  0.47899835  0.17565024  1
  O  O593  1  0.92642375  0.48187451  0.42599945  1
  O  O594  1  0.92685445  0.48099077  0.67657241  1
  O  O595  1  0.92671428  0.48021473  0.92411820  1
  O  O596  1  0.92655754  0.81176955  0.17550057  1
  O  O597  1  0.92747572  0.81265448  0.42468073  1
  O  O598  1  0.92765781  0.81225794  0.67360204  1
  O  O599  1  0.92669886  0.81251153  0.92377048  1
  O  O600  1  0.07347722  0.18627183  0.07577762  1
  O  O601  1  0.07387581  0.18829271  0.32502611  1
  O  O602  1  0.07434684  0.18763911  0.57521557  1
  O  O603  1  0.07233263  0.18605413  0.82284507  1
  O  O604  1  0.07402248  0.51939025  0.07530968  1
  O  O605  1  0.07325329  0.52162424  0.32546235  1
  O  O606  1  0.07203055  0.51994042  0.57325807  1
  O  O607  1  0.07272756  0.51967194  0.82206238  1
  O  O608  1  0.07390799  0.85265164  0.07554518  1
  O  O609  1  0.07371222  0.85445158  0.32507625  1
  O  O610  1  0.07386347  0.85437736  0.57369829  1
  O  O611  1  0.07448452  0.85278754  0.82432705  1
  O  O612  1  0.57303628  0.18448279  0.07424792  1
  O  O613  1  0.57330634  0.18472707  0.32425696  1
  O  O614  1  0.57371285  0.18644055  0.57570784  1
  O  O615  1  0.57228833  0.18625215  0.82337835  1
  O  O616  1  0.57251942  0.52099575  0.07510518  1
  O  O617  1  0.57280358  0.52073977  0.32411044  1
  O  O618  1  0.57246673  0.51821062  0.57384973  1
  O  O619  1  0.57359449  0.52058831  0.82637800  1
  O  O620  1  0.57320814  0.85199184  0.07544123  1
  O  O621  1  0.57136052  0.85259663  0.32394669  1
  O  O622  1  0.57302007  0.85447733  0.57444335  1
  O  O623  1  0.57377314  0.85342597  0.82544030  1
  O  O624  1  0.32289073  0.18488381  0.05109015  1
  O  O625  1  0.32324940  0.18503984  0.30077091  1
  O  O626  1  0.32389967  0.18647285  0.54957039  1
  O  O627  1  0.32375959  0.18694855  0.79977052  1
  O  O628  1  0.32275593  0.52193258  0.05007197  1
  O  O629  1  0.32234741  0.52094244  0.30128816  1
  O  O630  1  0.32215163  0.52090008  0.55129251  1
  O  O631  1  0.32286041  0.52199399  0.80050333  1
  O  O632  1  0.32196408  0.85265412  0.05263138  1
  O  O633  1  0.32267297  0.85312265  0.30073717  1
  O  O634  1  0.32310129  0.85185376  0.55037101  1
  O  O635  1  0.32221209  0.85285628  0.80278358  1
  O  O636  1  0.82379395  0.18801823  0.05031363  1
  O  O637  1  0.82390069  0.18654196  0.29913943  1
  O  O638  1  0.82244786  0.18618456  0.55191825  1
  O  O639  1  0.82324757  0.18666285  0.79940642  1
  O  O640  1  0.82341974  0.51894298  0.05046398  1
  O  O641  1  0.82293031  0.52042671  0.30095746  1
  O  O642  1  0.82274466  0.52144160  0.55007744  1
  O  O643  1  0.82175397  0.51944232  0.80074494  1
  O  O644  1  0.82340027  0.85338282  0.05008176  1
  O  O645  1  0.82319940  0.85126838  0.30057003  1
  O  O646  1  0.82304250  0.85061766  0.55099934  1
  O  O647  1  0.82331894  0.85108865  0.80019648  1
  O  O648  1  0.17823037  0.14640563  0.19886674  1
  O  O649  1  0.17771501  0.14679059  0.44812038  1
  O  O650  1  0.17656582  0.14612291  0.70018608  1
  O  O651  1  0.17683632  0.14480266  0.95048096  1
  O  O652  1  0.17603625  0.48094516  0.20088184  1
  O  O653  1  0.17721080  0.48262757  0.44920880  1
  O  O654  1  0.17680275  0.48253691  0.69880647  1
  O  O655  1  0.17543970  0.48066616  0.95050544  1
  O  O656  1  0.17865380  0.81448782  0.19819075  1
  O  O657  1  0.17708527  0.81370988  0.44794822  1
  O  O658  1  0.17770241  0.81411799  0.69821283  1
  O  O659  1  0.17912549  0.81443208  0.94841291  1
  O  O660  1  0.67681608  0.14455539  0.20001450  1
  O  O661  1  0.67667221  0.14654522  0.45022513  1
  O  O662  1  0.67708904  0.14750039  0.69916548  1
  O  O663  1  0.67652232  0.14667487  0.95107621  1
  O  O664  1  0.67730689  0.48067792  0.19845309  1
  O  O665  1  0.67581053  0.47999521  0.45103821  1
  O  O666  1  0.67614945  0.47937103  0.69955656  1
  O  O667  1  0.67633781  0.48122442  0.94948811  1
  O  O668  1  0.67620810  0.81284255  0.20015154  1
  O  O669  1  0.67743091  0.81327583  0.44858114  1
  O  O670  1  0.67719052  0.81300453  0.69838841  1
  O  O671  1  0.67793357  0.81372508  0.94838999  1
