# generated using pymatgen
data_Na2MnFe(PO4)2
_symmetry_space_group_name_H-M   'P 1'
_cell_length_a   22.33943635
_cell_length_b   20.08971089
_cell_length_c   19.45345162
_cell_angle_alpha   90.08782116
_cell_angle_beta   90.03035606
_cell_angle_gamma   90.00284169
_symmetry_Int_Tables_number   1
_chemical_formula_structural   Na2MnFe(PO4)2
_chemical_formula_sum   'Na96 Mn48 Fe48 P96 O384'
_cell_volume   8730.55787622
_cell_formula_units_Z   48
loop_
 _symmetry_equiv_pos_site_id
 _symmetry_equiv_pos_as_xyz
  1  'x, y, z'
loop_
 _atom_site_type_symbol
 _atom_site_label
 _atom_site_symmetry_multiplicity
 _atom_site_fract_x
 _atom_site_fract_y
 _atom_site_fract_z
 _atom_site_occupancy
  Na  Na0  1  0.14016942  0.25065764  0.24350562  1
  Na  Na1  1  0.14012490  0.25085710  0.49321039  1
  Na  Na2  1  0.13951356  0.25018142  0.74421416  1
  Na  Na3  1  0.13956757  0.25005309  0.99312836  1
  Na  Na4  1  0.13992985  0.58231314  0.24394552  1
  Na  Na5  1  0.14007633  0.58324400  0.49396023  1
  Na  Na6  1  0.13997692  0.58368769  0.74421650  1
  Na  Na7  1  0.14044621  0.58297757  0.99379195  1
  Na  Na8  1  0.13927725  0.91635978  0.24342741  1
  Na  Na9  1  0.13933985  0.91652233  0.49302500  1
  Na  Na10  1  0.14024189  0.91469570  0.74337794  1
  Na  Na11  1  0.14025950  0.91485955  0.99360769  1
  Na  Na12  1  0.64019550  0.24914115  0.24393020  1
  Na  Na13  1  0.63988366  0.24950463  0.49423105  1
  Na  Na14  1  0.64096050  0.25103136  0.74332829  1
  Na  Na15  1  0.64098890  0.24952011  0.99482310  1
  Na  Na16  1  0.64040366  0.58215699  0.24276574  1
  Na  Na17  1  0.64049455  0.58433449  0.49470570  1
  Na  Na18  1  0.64054424  0.58499513  0.74308374  1
  Na  Na19  1  0.64036353  0.58254864  0.99374053  1
  Na  Na20  1  0.64067921  0.91491949  0.24328033  1
  Na  Na21  1  0.64070813  0.91643220  0.49467410  1
  Na  Na22  1  0.64081708  0.91801718  0.74307835  1
  Na  Na23  1  0.64040873  0.91588331  0.99357874  1
  Na  Na24  1  0.35937891  0.08344538  0.00544594  1
  Na  Na25  1  0.35952891  0.08436234  0.25698684  1
  Na  Na26  1  0.35941052  0.08413974  0.50609351  1
  Na  Na27  1  0.35928253  0.08333445  0.75573368  1
  Na  Na28  1  0.35971054  0.41777853  0.00600081  1
  Na  Na29  1  0.35961271  0.41757558  0.25601967  1
  Na  Na30  1  0.35963577  0.41721620  0.50577209  1
  Na  Na31  1  0.35952956  0.41763589  0.75591294  1
  Na  Na32  1  0.35996341  0.74922768  0.00635655  1
  Na  Na33  1  0.35987254  0.74910663  0.25583928  1
  Na  Na34  1  0.35984878  0.74973008  0.50488402  1
  Na  Na35  1  0.35966418  0.74916956  0.75660307  1
  Na  Na36  1  0.85984427  0.08376788  0.00676925  1
  Na  Na37  1  0.86033557  0.08249367  0.25703289  1
  Na  Na38  1  0.85975816  0.08217440  0.50723537  1
  Na  Na39  1  0.85957301  0.08499968  0.75624519  1
  Na  Na40  1  0.86004451  0.41616969  0.00762772  1
  Na  Na41  1  0.86003771  0.41597998  0.25543339  1
  Na  Na42  1  0.85970708  0.41657971  0.50718991  1
  Na  Na43  1  0.85947682  0.41835752  0.75668958  1
  Na  Na44  1  0.86024931  0.75016513  0.00545013  1
  Na  Na45  1  0.86003573  0.74944600  0.25660086  1
  Na  Na46  1  0.85987542  0.75049318  0.50805648  1
  Na  Na47  1  0.86039405  0.75151155  0.75619736  1
  Na  Na48  1  0.10906087  0.08297487  0.11931956  1
  Na  Na49  1  0.10885877  0.08146420  0.36788872  1
  Na  Na50  1  0.10886628  0.08367557  0.61818262  1
  Na  Na51  1  0.10888281  0.08331424  0.86886119  1
  Na  Na52  1  0.10933918  0.41648650  0.11829537  1
  Na  Na53  1  0.10958340  0.41551600  0.36846959  1
  Na  Na54  1  0.10936799  0.41706890  0.61807719  1
  Na  Na55  1  0.10933415  0.41641189  0.86891874  1
  Na  Na56  1  0.10973092  0.74924706  0.11835543  1
  Na  Na57  1  0.10884819  0.74962562  0.36895220  1
  Na  Na58  1  0.10955061  0.75046535  0.61901478  1
  Na  Na59  1  0.11010793  0.75018373  0.86814275  1
  Na  Na60  1  0.60969894  0.08307253  0.11899289  1
  Na  Na61  1  0.60955953  0.08271694  0.36937701  1
  Na  Na62  1  0.60975746  0.08381805  0.61854009  1
  Na  Na63  1  0.61010790  0.08348721  0.86842891  1
  Na  Na64  1  0.60991823  0.41667717  0.11902572  1
  Na  Na65  1  0.60964109  0.41550174  0.36889876  1
  Na  Na66  1  0.60968650  0.41729540  0.61901778  1
  Na  Na67  1  0.60991502  0.41837808  0.86904709  1
  Na  Na68  1  0.60984990  0.74859144  0.11883395  1
  Na  Na69  1  0.61017513  0.74922584  0.36818816  1
  Na  Na70  1  0.61027741  0.74988669  0.61877669  1
  Na  Na71  1  0.60995918  0.75054948  0.86768140  1
  Na  Na72  1  0.39053739  0.25114587  0.13103661  1
  Na  Na73  1  0.39049073  0.25023745  0.38157456  1
  Na  Na74  1  0.39003854  0.25101810  0.63079638  1
  Na  Na75  1  0.39036493  0.25154729  0.88050475  1
  Na  Na76  1  0.39009072  0.58381660  0.13169458  1
  Na  Na77  1  0.39043976  0.58222092  0.37964742  1
  Na  Na78  1  0.39035812  0.58373883  0.63137728  1
  Na  Na79  1  0.39047490  0.58500330  0.88105519  1
  Na  Na80  1  0.39084127  0.91598888  0.13128693  1
  Na  Na81  1  0.39036666  0.91673907  0.38033386  1
  Na  Na82  1  0.39035553  0.91632099  0.63106276  1
  Na  Na83  1  0.39076333  0.91669193  0.88051965  1
  Na  Na84  1  0.89027352  0.24944246  0.13163739  1
  Na  Na85  1  0.89061749  0.24778671  0.38086432  1
  Na  Na86  1  0.89044374  0.25029544  0.63168933  1
  Na  Na87  1  0.89037423  0.25089237  0.88272288  1
  Na  Na88  1  0.89061037  0.58363907  0.13109131  1
  Na  Na89  1  0.89055221  0.58239733  0.38196939  1
  Na  Na90  1  0.89003663  0.58506705  0.63241052  1
  Na  Na91  1  0.89039062  0.58471187  0.88143754  1
  Na  Na92  1  0.89118907  0.91673771  0.13151256  1
  Na  Na93  1  0.89031415  0.91474548  0.38236049  1
  Na  Na94  1  0.89014756  0.91713063  0.63181334  1
  Na  Na95  1  0.89030323  0.91742166  0.88055451  1
  Mn  Mn96  1  0.24984915  -0.00012558  0.12440201  1
  Mn  Mn97  1  0.25063261  0.83223553  0.12476903  1
  Mn  Mn98  1  0.24958765  -0.00040608  0.62507237  1
  Mn  Mn99  1  0.00002120  0.00030099  0.75036384  1
  Mn  Mn100  1  0.74956696  -0.00130886  0.37598318  1
  Mn  Mn101  1  0.75072688  0.83158949  0.12368295  1
  Mn  Mn102  1  0.49988778  0.66594532  0.49907956  1
  Mn  Mn103  1  0.50069116  0.66694854  0.00027142  1
  Mn  Mn104  1  0.24989305  0.50002753  0.87461938  1
  Mn  Mn105  1  0.24911977  0.83358339  0.37486996  1
  Mn  Mn106  1  0.75012069  0.16701143  0.87515321  1
  Mn  Mn107  1  0.75027973  0.83359118  0.87469666  1
  Mn  Mn108  1  0.50044600  0.33475444  0.75049283  1
  Mn  Mn109  1  0.49982571  0.16711387  -0.00032093  1
  Mn  Mn110  1  0.75061711  0.50069980  0.87554998  1
  Mn  Mn111  1  0.50043191  0.00015054  0.49944944  1
  Mn  Mn112  1  0.25061532  0.83211687  0.62410749  1
  Mn  Mn113  1  0.75086255  0.66710566  0.37546759  1
  Mn  Mn114  1  0.74994349  0.50001190  0.37496765  1
  Mn  Mn115  1  0.50035910  0.83362382  0.74962242  1
  Mn  Mn116  1  0.74994887  0.33406361  0.62524543  1
  Mn  Mn117  1  0.49981849  -0.00006637  0.24991710  1
  Mn  Mn118  1  -0.00067324  0.33332427  0.75062401  1
  Mn  Mn119  1  -0.00024016  0.33259890  0.24936264  1
  Mn  Mn120  1  0.50064331  0.33506628  0.00077022  1
  Mn  Mn121  1  0.50009215  0.33317978  0.25002487  1
  Mn  Mn122  1  -0.00002950  0.66739208  0.00054922  1
  Mn  Mn123  1  0.50102264  0.49950527  0.50006758  1
  Mn  Mn124  1  0.50035315  0.16672412  0.75006081  1
  Mn  Mn125  1  0.24939293  0.66575540  0.37485679  1
  Mn  Mn126  1  -0.00067728  0.50117448  0.74975167  1
  Mn  Mn127  1  0.75077060  -0.00067348  0.12531733  1
  Mn  Mn128  1  0.24947553  0.16732774  0.87484789  1
  Mn  Mn129  1  0.24904873  0.16785722  0.62518036  1
  Mn  Mn130  1  0.24915748  -0.00118140  0.87515590  1
  Mn  Mn131  1  0.75053700  0.33273672  0.37584858  1
  Mn  Mn132  1  0.75064241  0.49951302  0.12464714  1
  Mn  Mn133  1  0.49983027  0.83263767  0.49990071  1
  Mn  Mn134  1  0.24989283  0.16739200  0.12529857  1
  Mn  Mn135  1  -0.00021621  0.16581339  0.49983503  1
  Mn  Mn136  1  0.49963862  -0.00030130  0.00023353  1
  Mn  Mn137  1  0.74997817  0.16592681  0.37524170  1
  Mn  Mn138  1  0.25027116  0.33450730  0.12461472  1
  Mn  Mn139  1  0.24935279  0.16763813  0.37510177  1
  Mn  Mn140  1  -0.00005344  0.66617751  0.24988476  1
  Mn  Mn141  1  0.00033085  -0.00021092  0.00000184  1
  Mn  Mn142  1  0.24968408  0.50018302  0.62526401  1
  Mn  Mn143  1  -0.00032135  0.49977172  0.50041657  1
  Fe  Fe144  1  0.50006240  0.66712811  0.75019603  1
  Fe  Fe145  1  0.00018802  0.16590446  0.25002502  1
  Fe  Fe146  1  0.50050817  0.83309008  -0.00004093  1
  Fe  Fe147  1  0.49977552  0.33311467  0.49967333  1
  Fe  Fe148  1  0.50048138  0.83260018  0.24988355  1
  Fe  Fe149  1  0.50062592  0.66606203  0.24917170  1
  Fe  Fe150  1  -0.00046320  0.16649407  0.00042192  1
  Fe  Fe151  1  -0.00052214  0.83277390  0.25079971  1
  Fe  Fe152  1  0.49992047  0.49968730  0.25006103  1
  Fe  Fe153  1  0.00046526  0.83379652  0.74941168  1
  Fe  Fe154  1  0.24999691  0.66606707  0.87502110  1
  Fe  Fe155  1  -0.00017455  0.49917862  0.25037670  1
  Fe  Fe156  1  -0.00008951  0.33338301  0.00027466  1
  Fe  Fe157  1  0.25005394  0.33379769  0.87496911  1
  Fe  Fe158  1  0.75027550  0.16712982  0.62570505  1
  Fe  Fe159  1  -0.00000847  0.16711175  0.75014418  1
  Fe  Fe160  1  0.49953140  0.16643890  0.50020332  1
  Fe  Fe161  1  -0.00038921  -0.00104641  0.49944247  1
  Fe  Fe162  1  0.74997603  0.83293679  0.37561016  1
  Fe  Fe163  1  0.24930960  0.50024258  0.12491882  1
  Fe  Fe164  1  0.75001810  0.66715420  0.87395878  1
  Fe  Fe165  1  0.75032009  0.33367926  0.87534370  1
  Fe  Fe166  1  0.50008204  0.16668101  0.25031170  1
  Fe  Fe167  1  0.50002020  0.50094743  0.74970381  1
  Fe  Fe168  1  0.00040604  0.83349491  -0.00001671  1
  Fe  Fe169  1  0.24982160  0.50016775  0.37482763  1
  Fe  Fe170  1  0.00015052  0.50051781  0.00003247  1
  Fe  Fe171  1  0.25048300  0.83194624  0.87468700  1
  Fe  Fe172  1  -0.00012617  0.66678830  0.50031825  1
  Fe  Fe173  1  0.24977106  0.66627825  0.62488439  1
  Fe  Fe174  1  -0.00037512  -0.00109908  0.24990873  1
  Fe  Fe175  1  0.74996068  0.00043264  0.62518116  1
  Fe  Fe176  1  0.25003035  0.33453275  0.37446692  1
  Fe  Fe177  1  0.49995371  0.00016331  0.74972676  1
  Fe  Fe178  1  0.00031377  0.66796563  0.75067709  1
  Fe  Fe179  1  0.24955470  0.66610254  0.12493923  1
  Fe  Fe180  1  -0.00039729  0.33263027  0.49955465  1
  Fe  Fe181  1  0.24938035  0.33418693  0.62435655  1
  Fe  Fe182  1  0.75030018  0.66766972  0.62490597  1
  Fe  Fe183  1  0.75012590  0.16589132  0.12519194  1
  Fe  Fe184  1  0.75016691  0.00072982  0.87437445  1
  Fe  Fe185  1  -0.00016898  0.83310435  0.50022314  1
  Fe  Fe186  1  0.49991688  0.50125645  -0.00017268  1
  Fe  Fe187  1  0.75040655  0.66613200  0.12487614  1
  Fe  Fe188  1  0.74975297  0.50097059  0.62598717  1
  Fe  Fe189  1  0.75012776  0.83398475  0.62571121  1
  Fe  Fe190  1  0.75004892  0.33252009  0.12550651  1
  Fe  Fe191  1  0.24987803  0.00028907  0.37474456  1
  P  P192  1  0.04112328  0.24950538  0.10182106  1
  P  P193  1  0.04195954  0.24821835  0.35241814  1
  P  P194  1  0.04198000  0.25098864  0.60233555  1
  P  P195  1  0.04146187  0.24890169  0.85357122  1
  P  P196  1  0.04217145  0.58212380  0.10284401  1
  P  P197  1  0.04163797  0.58177244  0.35290903  1
  P  P198  1  0.04184694  0.58540103  0.60295916  1
  P  P199  1  0.04182543  0.58477759  0.85296894  1
  P  P200  1  0.04227256  0.91526957  0.10317349  1
  P  P201  1  0.04088788  0.91585177  0.35230199  1
  P  P202  1  0.04104891  0.91670655  0.60177403  1
  P  P203  1  0.04231800  0.91539976  0.85248274  1
  P  P204  1  0.54292374  0.25011440  0.10366770  1
  P  P205  1  0.54209741  0.24845321  0.35331491  1
  P  P206  1  0.54121381  0.25041480  0.60156205  1
  P  P207  1  0.54349381  0.25102678  0.85314279  1
  P  P208  1  0.54221761  0.58227613  0.10324873  1
  P  P209  1  0.54211254  0.58274860  0.35114097  1
  P  P210  1  0.54262240  0.58368075  0.60395871  1
  P  P211  1  0.54166142  0.58375400  0.85174813  1
  P  P212  1  0.54234361  0.91479062  0.10284661  1
  P  P213  1  0.54247940  0.91533201  0.35206872  1
  P  P214  1  0.54268508  0.91674482  0.60333522  1
  P  P215  1  0.54280304  0.91805369  0.85236912  1
  P  P216  1  0.45741917  0.08460094  0.14771501  1
  P  P217  1  0.45766816  0.08465412  0.39712635  1
  P  P218  1  0.45777085  0.08260751  0.64704518  1
  P  P219  1  0.45710058  0.08314928  0.89623799  1
  P  P220  1  0.45774847  0.41847517  0.14730696  1
  P  P221  1  0.45817375  0.41554731  0.39719399  1
  P  P222  1  0.45778599  0.41795730  0.64730979  1
  P  P223  1  0.45804180  0.41930724  0.89734603  1
  P  P224  1  0.45887528  0.74980293  0.14800123  1
  P  P225  1  0.45764266  0.74942409  0.39514381  1
  P  P226  1  0.45760500  0.74877503  0.64755609  1
  P  P227  1  0.45860824  0.75106303  0.89725788  1
  P  P228  1  0.95870850  0.08312706  0.14832941  1
  P  P229  1  0.95736085  0.08068511  0.39698246  1
  P  P230  1  0.95790298  0.08452458  0.64765384  1
  P  P231  1  0.95769235  0.08460803  0.89760072  1
  P  P232  1  0.95824854  0.41781564  0.14664008  1
  P  P233  1  0.95754329  0.41485648  0.39731003  1
  P  P234  1  0.95708459  0.41675366  0.64673302  1
  P  P235  1  0.95854174  0.41719674  0.89892304  1
  P  P236  1  0.95800927  0.75135456  0.14760705  1
  P  P237  1  0.95834905  0.74960323  0.39871110  1
  P  P238  1  0.95889943  0.75045138  0.64790005  1
  P  P239  1  0.95839066  0.75177273  0.89686229  1
  P  P240  1  0.20738408  0.08332878  0.22861957  1
  P  P241  1  0.20721262  0.08259601  0.47706736  1
  P  P242  1  0.20646992  0.08333694  0.72802484  1
  P  P243  1  0.20655386  0.08329792  0.97793646  1
  P  P244  1  0.20752343  0.41824938  0.22790002  1
  P  P245  1  0.20818218  0.41716717  0.47656748  1
  P  P246  1  0.20706315  0.41549440  0.72756333  1
  P  P247  1  0.20760203  0.41625028  0.97741025  1
  P  P248  1  0.20740172  0.74833985  0.22721195  1
  P  P249  1  0.20679254  0.74933817  0.47818126  1
  P  P250  1  0.20819960  0.74827217  0.72798739  1
  P  P251  1  0.20879576  0.74882642  0.97669455  1
  P  P252  1  0.70795734  0.08349720  0.22753386  1
  P  P253  1  0.70738997  0.08298858  0.47952712  1
  P  P254  1  0.70866483  0.08389732  0.72695803  1
  P  P255  1  0.70812558  0.08229599  0.97770966  1
  P  P256  1  0.70787534  0.41512923  0.22741765  1
  P  P257  1  0.70737934  0.41723742  0.47901786  1
  P  P258  1  0.70787392  0.41858703  0.72825550  1
  P  P259  1  0.70848724  0.41526050  0.97809035  1
  P  P260  1  0.70813904  0.74837269  0.22751211  1
  P  P261  1  0.70814161  0.75147754  0.47853035  1
  P  P262  1  0.70898239  0.75074638  0.72686860  1
  P  P263  1  0.70801035  0.74806216  0.97702734  1
  P  P264  1  0.29275815  0.25067951  0.02132861  1
  P  P265  1  0.29223162  0.25208225  0.27261894  1
  P  P266  1  0.29161694  0.25216029  0.52190825  1
  P  P267  1  0.29182311  0.25218045  0.77194032  1
  P  P268  1  0.29140540  0.58345973  0.02317099  1
  P  P269  1  0.29165949  0.58181172  0.27155200  1
  P  P270  1  0.29235162  0.58391227  0.52231576  1
  P  P271  1  0.29203449  0.58447588  0.77216810  1
  P  P272  1  0.29290515  0.91553252  0.02110159  1
  P  P273  1  0.29178758  0.91749987  0.27235148  1
  P  P274  1  0.29258996  0.91702414  0.52103262  1
  P  P275  1  0.29206952  0.91462991  0.77256953  1
  P  P276  1  0.79149005  0.24977771  0.02363363  1
  P  P277  1  0.79267959  0.24938700  0.27132362  1
  P  P278  1  0.79254242  0.24874204  0.52327460  1
  P  P279  1  0.79248870  0.25167796  0.77271457  1
  P  P280  1  0.79275142  0.58463001  0.02204409  1
  P  P281  1  0.79319700  0.58324236  0.27159007  1
  P  P282  1  0.79149122  0.58348772  0.52403298  1
  P  P283  1  0.79224805  0.58527066  0.77174524  1
  P  P284  1  0.79331388  0.91648782  0.02117015  1
  P  P285  1  0.79228274  0.91463427  0.27299471  1
  P  P286  1  0.79151946  0.91623451  0.52386396  1
  P  P287  1  0.79190595  0.91858853  0.77158103  1
  O  O288  1  0.03640635  0.24956537  0.18176356  1
  O  O289  1  0.03657865  0.24889504  0.43227592  1
  O  O290  1  0.03685005  0.25078474  0.68226402  1
  O  O291  1  0.03602614  0.24895431  0.93341204  1
  O  O292  1  0.03678800  0.58190870  0.18273687  1
  O  O293  1  0.03634864  0.58247780  0.43279475  1
  O  O294  1  0.03659409  0.58578668  0.68287532  1
  O  O295  1  0.03664843  0.58419359  0.93289466  1
  O  O296  1  0.03658629  0.91542614  0.18298605  1
  O  O297  1  0.03599187  0.91635401  0.43219379  1
  O  O298  1  0.03636237  0.91638322  0.68172603  1
  O  O299  1  0.03736683  0.91531777  0.93239960  1
  O  O300  1  0.53767497  0.24965598  0.18361115  1
  O  O301  1  0.53630509  0.24878800  0.43315044  1
  O  O302  1  0.53668615  0.25046025  0.68154375  1
  O  O303  1  0.53849938  0.25110078  0.93306167  1
  O  O304  1  0.53675580  0.58255482  0.18307329  1
  O  O305  1  0.53726042  0.58284048  0.43115282  1
  O  O306  1  0.53728384  0.58405779  0.68383598  1
  O  O307  1  0.53692310  0.58366687  0.93176777  1
  O  O308  1  0.53694334  0.91471254  0.18275612  1
  O  O309  1  0.53738873  0.91575379  0.43202609  1
  O  O310  1  0.53747059  0.91732817  0.68325491  1
  O  O311  1  0.53766240  0.91741061  0.93229094  1
  O  O312  1  0.46264576  0.08398964  0.06776915  1
  O  O313  1  0.46269873  0.08475295  0.31717304  1
  O  O314  1  0.46320079  0.08328019  0.56710099  1
  O  O315  1  0.46241697  0.08258813  0.81629638  1
  O  O316  1  0.46302131  0.41889154  0.06738663  1
  O  O317  1  0.46336365  0.41603433  0.31728413  1
  O  O318  1  0.46310413  0.41692347  0.56741171  1
  O  O319  1  0.46337240  0.41939867  0.81744153  1
  O  O320  1  0.46408063  0.75011501  0.06802906  1
  O  O321  1  0.46325986  0.74930744  0.31527080  1
  O  O322  1  0.46221634  0.74871050  0.56754757  1
  O  O323  1  0.46371987  0.75021365  0.81734544  1
  O  O324  1  0.96361616  0.08328280  0.06837964  1
  O  O325  1  0.96261769  0.08073567  0.31718042  1
  O  O326  1  0.96291328  0.08368164  0.56778579  1
  O  O327  1  0.96297461  0.08478270  0.81771421  1
  O  O328  1  0.96386218  0.41795476  0.06681039  1
  O  O329  1  0.96287460  0.41537133  0.31737288  1
  O  O330  1  0.96219791  0.41619906  0.56682492  1
  O  O331  1  0.96296884  0.41683324  0.81891245  1
  O  O332  1  0.96342069  0.75156107  0.06772060  1
  O  O333  1  0.96318090  0.75022705  0.31876900  1
  O  O334  1  0.96372190  0.74993029  0.56800902  1
  O  O335  1  0.96402222  0.75133046  0.81701589  1
  O  O336  1  0.21178854  0.08353139  0.05789947  1
  O  O337  1  0.21273869  0.08292697  0.30858221  1
  O  O338  1  0.21187632  0.08280214  0.55707613  1
  O  O339  1  0.21163824  0.08340740  0.80794532  1
  O  O340  1  0.21283000  0.41730928  0.05731603  1
  O  O341  1  0.21280516  0.41804401  0.30778194  1
  O  O342  1  0.21319986  0.41672756  0.55654281  1
  O  O343  1  0.21236682  0.41557620  0.80747784  1
  O  O344  1  0.21367983  0.74862391  0.05666820  1
  O  O345  1  0.21223600  0.74882299  0.30713989  1
  O  O346  1  0.21215657  0.74895163  0.55809109  1
  O  O347  1  0.21377101  0.74878030  0.80787565  1
  O  O348  1  0.71353949  0.08274492  0.05761775  1
  O  O349  1  0.71256144  0.08311294  0.30753661  1
  O  O350  1  0.71282401  0.08320515  0.55941656  1
  O  O351  1  0.71379052  0.08344832  0.80693146  1
  O  O352  1  0.71376372  0.41507254  0.05801288  1
  O  O353  1  0.71299562  0.41568309  0.30737533  1
  O  O354  1  0.71255805  0.41805236  0.55898414  1
  O  O355  1  0.71337094  0.41804280  0.80814906  1
  O  O356  1  0.71339451  0.74768721  0.05694329  1
  O  O357  1  0.71326622  0.74927911  0.30744487  1
  O  O358  1  0.71332043  0.75171171  0.55840061  1
  O  O359  1  0.71382147  0.75008903  0.80680201  1
  O  O360  1  0.28741799  0.25168893  0.19263180  1
  O  O361  1  0.28623963  0.25214839  0.44198153  1
  O  O362  1  0.28624144  0.25223570  0.69199955  1
  O  O363  1  0.28755316  0.25092216  0.94138934  1
  O  O364  1  0.28607399  0.58188461  0.19171569  1
  O  O365  1  0.28704531  0.58290802  0.44241512  1
  O  O366  1  0.28685964  0.58451385  0.69228777  1
  O  O367  1  0.28633078  0.58382977  0.94320621  1
  O  O368  1  0.28714368  0.91707884  0.19232177  1
  O  O369  1  0.28711680  0.91782466  0.44110806  1
  O  O370  1  0.28717320  0.91467831  0.69258268  1
  O  O371  1  0.28744808  0.91474561  0.94119370  1
  O  O372  1  0.78725810  0.24917239  0.19141656  1
  O  O373  1  0.78753375  0.24876993  0.44332430  1
  O  O374  1  0.78711003  0.25102280  0.69282886  1
  O  O375  1  0.78678581  0.24998420  0.94364149  1
  O  O376  1  0.78817897  0.58348021  0.19162068  1
  O  O377  1  0.78691136  0.58355812  0.44401572  1
  O  O378  1  0.78668872  0.58472638  0.69191052  1
  O  O379  1  0.78742933  0.58464187  0.94211624  1
  O  O380  1  0.78750005  0.91476357  0.19302612  1
  O  O381  1  0.78630474  0.91556029  0.44391229  1
  O  O382  1  0.78613113  0.91841128  0.69173328  1
  O  O383  1  0.78804728  0.91721130  0.94126138  1
  O  O384  1  0.22834989  0.25069631  0.05650792  1
  O  O385  1  0.22780571  0.25231194  0.30777768  1
  O  O386  1  0.22735488  0.25225630  0.55774343  1
  O  O387  1  0.22762038  0.25239955  0.80786362  1
  O  O388  1  0.22718085  0.58375453  0.05913117  1
  O  O389  1  0.22753856  0.58121418  0.30778012  1
  O  O390  1  0.22805336  0.58452185  0.55814322  1
  O  O391  1  0.22777130  0.58452442  0.80787562  1
  O  O392  1  0.22857266  0.91555870  0.05647746  1
  O  O393  1  0.22734159  0.91778940  0.30741814  1
  O  O394  1  0.22827367  0.91608129  0.55642419  1
  O  O395  1  0.22771000  0.91415491  0.80785888  1
  O  O396  1  0.72738619  0.24989872  0.05964941  1
  O  O397  1  0.72843980  0.24969670  0.30704350  1
  O  O398  1  0.72817708  0.24860283  0.55868261  1
  O  O399  1  0.72823511  0.25185486  0.80847672  1
  O  O400  1  0.72853017  0.58444058  0.05792523  1
  O  O401  1  0.72878792  0.58372307  0.30672631  1
  O  O402  1  0.72726429  0.58318764  0.55958444  1
  O  O403  1  0.72816111  0.58501173  0.80805169  1
  O  O404  1  0.72899014  0.91607222  0.05648757  1
  O  O405  1  0.72786101  0.91426107  0.30830549  1
  O  O406  1  0.72743233  0.91611797  0.55998573  1
  O  O407  1  0.72796088  0.91859305  0.80817919  1
  O  O408  1  0.27169964  0.08349743  0.19322514  1
  O  O409  1  0.27164431  0.08312501  0.44197995  1
  O  O410  1  0.27089525  0.08376849  0.69295791  1
  O  O411  1  0.27093147  0.08306063  0.94284525  1
  O  O412  1  0.27175361  0.41875037  0.19203984  1
  O  O413  1  0.27235250  0.41748780  0.44049680  1
  O  O414  1  0.27135400  0.41550840  0.69183494  1
  O  O415  1  0.27186391  0.41569068  0.94159731  1
  O  O416  1  0.27185567  0.74755049  0.19198289  1
  O  O417  1  0.27107155  0.74979078  0.44281296  1
  O  O418  1  0.27230826  0.74760475  0.69168132  1
  O  O419  1  0.27301523  0.74860384  0.94086035  1
  O  O420  1  0.77244446  0.08373958  0.19253825  1
  O  O421  1  0.77159402  0.08236955  0.44377161  1
  O  O422  1  0.77277701  0.08430666  0.69088266  1
  O  O423  1  0.77231215  0.08200840  0.94170560  1
  O  O424  1  0.77218227  0.41479317  0.19189984  1
  O  O425  1  0.77179320  0.41696658  0.44382787  1
  O  O426  1  0.77203914  0.41877200  0.69231124  1
  O  O427  1  0.77271341  0.41553938  0.94224856  1
  O  O428  1  0.77248369  0.74765028  0.19183896  1
  O  O429  1  0.77242821  0.75166736  0.44266966  1
  O  O430  1  0.77309286  0.75160281  0.69091331  1
  O  O431  1  0.77224310  0.74844032  0.94119594  1
  O  O432  1  0.02275615  0.08320680  0.18448937  1
  O  O433  1  0.02157270  0.08063727  0.43308982  1
  O  O434  1  0.02212343  0.08485220  0.68356360  1
  O  O435  1  0.02191792  0.08475842  0.93350746  1
  O  O436  1  0.02221771  0.41768045  0.18325069  1
  O  O437  1  0.02176323  0.41482930  0.43325675  1
  O  O438  1  0.02135523  0.41694575  0.68218257  1
  O  O439  1  0.02282984  0.41734087  0.93439902  1
  O  O440  1  0.02216620  0.75131332  0.18364605  1
  O  O441  1  0.02253778  0.74900284  0.43458971  1
  O  O442  1  0.02299494  0.75050691  0.68425929  1
  O  O443  1  0.02243944  0.75185867  0.93336791  1
  O  O444  1  0.52177439  0.08474947  0.18329172  1
  O  O445  1  0.52198224  0.08480651  0.43273148  1
  O  O446  1  0.52202101  0.08188393  0.68299521  1
  O  O447  1  0.52144394  0.08317504  0.93162173  1
  O  O448  1  0.52201921  0.41814215  0.18307870  1
  O  O449  1  0.52241246  0.41468073  0.43306571  1
  O  O450  1  0.52206905  0.41897903  0.68314552  1
  O  O451  1  0.52230677  0.41960740  0.93327758  1
  O  O452  1  0.52301914  0.74967254  0.18407481  1
  O  O453  1  0.52183960  0.74947658  0.43104509  1
  O  O454  1  0.52207687  0.74897544  0.68266336  1
  O  O455  1  0.52287061  0.75125162  0.93306243  1
  O  O456  1  0.47860132  0.25086601  0.06824137  1
  O  O457  1  0.47802225  0.24841767  0.31681555  1
  O  O458  1  0.47699125  0.25090040  0.56581079  1
  O  O459  1  0.47899576  0.25079713  0.81821078  1
  O  O460  1  0.47806768  0.58234132  0.06700348  1
  O  O461  1  0.47784146  0.58295180  0.31541664  1
  O  O462  1  0.47843301  0.58304430  0.56812312  1
  O  O463  1  0.47742214  0.58342843  0.81592472  1
  O  O464  1  0.47810487  0.91469897  0.06692004  1
  O  O465  1  0.47814472  0.91515190  0.31658096  1
  O  O466  1  0.47837478  0.91673173  0.56791003  1
  O  O467  1  0.47847537  0.91829006  0.81662336  1
  O  O468  1  0.97690329  0.24935111  0.06599132  1
  O  O469  1  0.97779255  0.24798352  0.31638686  1
  O  O470  1  0.97770663  0.25100168  0.56653545  1
  O  O471  1  0.97734755  0.24858905  0.81727776  1
  O  O472  1  0.97796328  0.58237939  0.06688950  1
  O  O473  1  0.97750885  0.58168180  0.31682492  1
  O  O474  1  0.97760337  0.58512298  0.56710745  1
  O  O475  1  0.97760753  0.58553950  0.81712808  1
  O  O476  1  0.97823547  0.91500157  0.06662475  1
  O  O477  1  0.97679828  0.91519974  0.31606184  1
  O  O478  1  0.97685503  0.91712529  0.56592745  1
  O  O479  1  0.97803904  0.91546077  0.81676918  1
  O  O480  1  0.07140190  0.31357924  0.07346624  1
  O  O481  1  0.07328589  0.31149732  0.32417782  1
  O  O482  1  0.07245899  0.31463739  0.57365754  1
  O  O483  1  0.07248626  0.31266306  0.82577754  1
  O  O484  1  0.07319992  0.64600012  0.07546995  1
  O  O485  1  0.07299655  0.64511967  0.32476226  1
  O  O486  1  0.07278525  0.64851930  0.57395431  1
  O  O487  1  0.07289762  0.64822714  0.82478933  1
  O  O488  1  0.07325023  0.97898979  0.07516274  1
  O  O489  1  0.07119905  0.97954315  0.32315238  1
  O  O490  1  0.07210545  0.98027682  0.57371269  1
  O  O491  1  0.07316715  0.97929661  0.82486674  1
  O  O492  1  0.57416284  0.31371612  0.07601714  1
  O  O493  1  0.57345498  0.31197438  0.32543532  1
  O  O494  1  0.57237587  0.31391619  0.57356282  1
  O  O495  1  0.57428614  0.31460077  0.82496183  1
  O  O496  1  0.57349253  0.64573900  0.07506865  1
  O  O497  1  0.57310716  0.64627497  0.32302857  1
  O  O498  1  0.57351865  0.64706131  0.57518020  1
  O  O499  1  0.57186375  0.64792175  0.82363724  1
  O  O500  1  0.57330818  0.97867479  0.07538413  1
  O  O501  1  0.57342284  0.97908333  0.32435822  1
  O  O502  1  0.57415337  0.97976445  0.57482923  1
  O  O503  1  0.57336007  0.98168115  0.82388030  1
  O  O504  1  0.42646463  0.02082009  0.17539517  1
  O  O505  1  0.42683104  0.02070705  0.42458303  1
  O  O506  1  0.42675733  0.01908922  0.67512716  1
  O  O507  1  0.42568726  0.02014040  0.92494280  1
  O  O508  1  0.42659449  0.35471926  0.17475873  1
  O  O509  1  0.42713043  0.35216675  0.42556035  1
  O  O510  1  0.42699148  0.35441434  0.67575272  1
  O  O511  1  0.42734423  0.35536615  0.92501617  1
  O  O512  1  0.42823376  0.68582329  0.17578365  1
  O  O513  1  0.42638266  0.68598505  0.42332744  1
  O  O514  1  0.42719486  0.68526846  0.67646386  1
  O  O515  1  0.42728929  0.68780572  0.92566500  1
  O  O516  1  0.92819732  0.01911677  0.17636425  1
  O  O517  1  0.92641707  0.01742808  0.42604895  1
  O  O518  1  0.92674179  0.02113621  0.67592472  1
  O  O519  1  0.92707569  0.02052545  0.92508879  1
  O  O520  1  0.92690847  0.35412479  0.17408615  1
  O  O521  1  0.92706299  0.35098360  0.42538516  1
  O  O522  1  0.92569512  0.35374579  0.67540685  1
  O  O523  1  0.92818840  0.35333944  0.92747510  1
  O  O524  1  0.92719830  0.68732648  0.17495961  1
  O  O525  1  0.92712808  0.68599658  0.42643814  1
  O  O526  1  0.92794855  0.68711931  0.67687670  1
  O  O527  1  0.92715769  0.68826973  0.92503902  1
  O  O528  1  0.17605179  0.02014430  0.20004325  1
  O  O529  1  0.17707102  0.01871474  0.44828319  1
  O  O530  1  0.17573487  0.01953174  0.70007986  1
  O  O531  1  0.17536848  0.01968339  0.95016310  1
  O  O532  1  0.17655301  0.35448987  0.19971075  1
  O  O533  1  0.17737024  0.35361658  0.44786379  1
  O  O534  1  0.17593186  0.35241402  0.69855225  1
  O  O535  1  0.17677618  0.35253994  0.94940063  1
  O  O536  1  0.17632881  0.68489962  0.19891421  1
  O  O537  1  0.17569610  0.68599714  0.44966090  1
  O  O538  1  0.17696470  0.68492392  0.69947182  1
  O  O539  1  0.17748065  0.68545365  0.94831752  1
  O  O540  1  0.67696789  0.01978429  0.19958379  1
  O  O541  1  0.67589324  0.01965554  0.45111991  1
  O  O542  1  0.67787208  0.02036597  0.69828218  1
  O  O543  1  0.67725559  0.01876554  0.94916331  1
  O  O544  1  0.67692396  0.35158793  0.19926897  1
  O  O545  1  0.67660515  0.35330923  0.45127049  1
  O  O546  1  0.67654096  0.35512070  0.70013076  1
  O  O547  1  0.67770865  0.35187606  0.94918602  1
  O  O548  1  0.67725147  0.68471929  0.19933223  1
  O  O549  1  0.67719362  0.68763477  0.45056492  1
  O  O550  1  0.67877059  0.68687915  0.69794556  1
  O  O551  1  0.67709010  0.68478620  0.94805914  1
  O  O552  1  0.32409698  0.31400425  0.04966286  1
  O  O553  1  0.32294738  0.31575505  0.30088987  1
  O  O554  1  0.32263209  0.31549044  0.55053501  1
  O  O555  1  0.32304133  0.31539143  0.80071583  1
  O  O556  1  0.32262494  0.64680506  0.05180344  1
  O  O557  1  0.32250798  0.64568088  0.29947178  1
  O  O558  1  0.32315490  0.64765515  0.55034394  1
  O  O559  1  0.32316819  0.64752207  0.80130585  1
  O  O560  1  0.32379798  0.97940537  0.04875487  1
  O  O561  1  0.32250240  0.98112258  0.30086076  1
  O  O562  1  0.32349281  0.98031565  0.55007282  1
  O  O563  1  0.32282163  0.97857835  0.80020514  1
  O  O564  1  0.82273979  0.31313924  0.05204336  1
  O  O565  1  0.82406151  0.31275363  0.29972615  1
  O  O566  1  0.82344610  0.31257188  0.55093454  1
  O  O567  1  0.82308247  0.31546779  0.80114315  1
  O  O568  1  0.82366133  0.64800307  0.05072941  1
  O  O569  1  0.82479721  0.64621679  0.30037501  1
  O  O570  1  0.82171017  0.64772366  0.55217534  1
  O  O571  1  0.82285208  0.64908973  0.80006972  1
  O  O572  1  0.82458606  0.97956713  0.05018784  1
  O  O573  1  0.82287720  0.97852621  0.30101687  1
  O  O574  1  0.82187871  0.98045173  0.55168120  1
  O  O575  1  0.82284911  0.98212435  0.80008291  1
  O  O576  1  0.42667520  0.14822284  0.17588781  1
  O  O577  1  0.42666753  0.14784545  0.42627247  1
  O  O578  1  0.42683343  0.14635879  0.67502442  1
  O  O579  1  0.42619816  0.14706742  0.92385853  1
  O  O580  1  0.42690252  0.48176167  0.17635033  1
  O  O581  1  0.42742181  0.47933057  0.42522074  1
  O  O582  1  0.42670742  0.48151651  0.67542349  1
  O  O583  1  0.42685298  0.48256649  0.92600134  1
  O  O584  1  0.42771535  0.81320561  0.17639052  1
  O  O585  1  0.42638562  0.81277316  0.42371299  1
  O  O586  1  0.42644339  0.81243907  0.67526198  1
  O  O587  1  0.42810674  0.81490250  0.92544910  1
  O  O588  1  0.92764819  0.14658742  0.17679608  1
  O  O589  1  0.92626550  0.14435264  0.42511207  1
  O  O590  1  0.92737794  0.14835034  0.67595647  1
  O  O591  1  0.92641139  0.14763474  0.92664047  1
  O  O592  1  0.92734417  0.48114970  0.17572472  1
  O  O593  1  0.92612732  0.47822340  0.42547711  1
  O  O594  1  0.92624223  0.48059847  0.67467603  1
  O  O595  1  0.92757954  0.48096406  0.92666465  1
  O  O596  1  0.92677024  0.81439764  0.17657067  1
  O  O597  1  0.92804891  0.81331518  0.42792772  1
  O  O598  1  0.92813232  0.81435150  0.67605804  1
  O  O599  1  0.92732269  0.81520631  0.92530811  1
  O  O600  1  0.07238440  0.18610357  0.07360231  1
  O  O601  1  0.07253567  0.18435829  0.32425686  1
  O  O602  1  0.07327314  0.18749462  0.57434920  1
  O  O603  1  0.07250525  0.18563958  0.82450068  1
  O  O604  1  0.07308651  0.51892733  0.07375943  1
  O  O605  1  0.07216999  0.51790419  0.32474169  1
  O  O606  1  0.07288948  0.52143896  0.57551757  1
  O  O607  1  0.07261739  0.52104871  0.82471037  1
  O  O608  1  0.07349069  0.85197469  0.07448854  1
  O  O609  1  0.07236014  0.85235140  0.32433232  1
  O  O610  1  0.07154318  0.85290478  0.57303866  1
  O  O611  1  0.07327128  0.85220745  0.82336994  1
  O  O612  1  0.57381709  0.18671211  0.07504100  1
  O  O613  1  0.57303591  0.18497525  0.32463979  1
  O  O614  1  0.57143322  0.18627910  0.57343339  1
  O  O615  1  0.57460960  0.18761051  0.82480123  1
  O  O616  1  0.57318093  0.51892821  0.07440259  1
  O  O617  1  0.57263116  0.51869255  0.32336786  1
  O  O618  1  0.57414768  0.52038021  0.57569377  1
  O  O619  1  0.57292020  0.52047303  0.82329058  1
  O  O620  1  0.57332002  0.85147937  0.07395229  1
  O  O621  1  0.57333754  0.85179737  0.32375980  1
  O  O622  1  0.57339323  0.85279552  0.57555597  1
  O  O623  1  0.57402634  0.85454065  0.82422023  1
  O  O624  1  0.32368078  0.18710143  0.04956141  1
  O  O625  1  0.32312062  0.18848756  0.30066466  1
  O  O626  1  0.32241835  0.18827310  0.54965364  1
  O  O627  1  0.32275034  0.18822121  0.79930587  1
  O  O628  1  0.32172401  0.51940785  0.05108445  1
  O  O629  1  0.32299200  0.51881971  0.30057337  1
  O  O630  1  0.32333465  0.52047659  0.55078635  1
  O  O631  1  0.32278228  0.52051682  0.79978377  1
  O  O632  1  0.32426983  0.85248870  0.04992115  1
  O  O633  1  0.32266355  0.85369966  0.30001639  1
  O  O634  1  0.32410854  0.85344205  0.54837125  1
  O  O635  1  0.32305870  0.85120987  0.80098616  1
  O  O636  1  0.82167146  0.18558455  0.05171646  1
  O  O637  1  0.82371403  0.18597089  0.29987872  1
  O  O638  1  0.82337452  0.18529352  0.55170265  1
  O  O639  1  0.82375227  0.18833928  0.80091936  1
  O  O640  1  0.82377119  0.52080776  0.04961778  1
  O  O641  1  0.82369590  0.51937578  0.29969566  1
  O  O642  1  0.82271044  0.52015804  0.55219197  1
  O  O643  1  0.82388215  0.52210567  0.80011381  1
  O  O644  1  0.82430674  0.85272673  0.04879676  1
  O  O645  1  0.82311607  0.85124929  0.30158712  1
  O  O646  1  0.82299611  0.85316349  0.55242287  1
  O  O647  1  0.82324075  0.85500226  0.79927554  1
  O  O648  1  0.17648767  0.14716122  0.20093283  1
  O  O649  1  0.17571617  0.14607059  0.44950316  1
  O  O650  1  0.17523826  0.14668440  0.69986727  1
  O  O651  1  0.17560035  0.14674554  0.94971349  1
  O  O652  1  0.17640079  0.48136791  0.19886380  1
  O  O653  1  0.17732874  0.48103725  0.44892283  1
  O  O654  1  0.17623141  0.47947900  0.69997461  1
  O  O655  1  0.17662260  0.47969765  0.94898001  1
  O  O656  1  0.17694547  0.81219287  0.19916087  1
  O  O657  1  0.17554183  0.81284400  0.45028986  1
  O  O658  1  0.17725464  0.81189299  0.69971160  1
  O  O659  1  0.17842468  0.81277962  0.94835853  1
  O  O660  1  0.67738523  0.14704062  0.19890132  1
  O  O661  1  0.67645316  0.14641819  0.45101147  1
  O  O662  1  0.67779333  0.14784237  0.69939481  1
  O  O663  1  0.67695991  0.14586700  0.94979210  1
  O  O664  1  0.67703535  0.47879302  0.19934220  1
  O  O665  1  0.67612971  0.48031314  0.45017123  1
  O  O666  1  0.67716311  0.48224800  0.70009260  1
  O  O667  1  0.67739423  0.47909860  0.95066246  1
  O  O668  1  0.67728510  0.81181880  0.19889640  1
  O  O669  1  0.67717642  0.81461490  0.44926721  1
  O  O670  1  0.67750999  0.81427635  0.69939711  1
  O  O671  1  0.67694931  0.81193478  0.94968034  1
