# generated using pymatgen
data_Na2MnFe(PO4)2
_symmetry_space_group_name_H-M   'P 1'
_cell_length_a   22.34330492
_cell_length_b   20.09243633
_cell_length_c   19.45064236
_cell_angle_alpha   90.01837958
_cell_angle_beta   89.98808418
_cell_angle_gamma   90.00433300
_symmetry_Int_Tables_number   1
_chemical_formula_structural   Na2MnFe(PO4)2
_chemical_formula_sum   'Na96 Mn48 Fe48 P96 O384'
_cell_volume   8732.00405264
_cell_formula_units_Z   48
loop_
 _symmetry_equiv_pos_site_id
 _symmetry_equiv_pos_as_xyz
  1  'x, y, z'
loop_
 _atom_site_type_symbol
 _atom_site_label
 _atom_site_symmetry_multiplicity
 _atom_site_fract_x
 _atom_site_fract_y
 _atom_site_fract_z
 _atom_site_occupancy
  Na  Na0  1  0.14022409  0.24828459  0.24370937  1
  Na  Na1  1  0.14025931  0.25027288  0.49456115  1
  Na  Na2  1  0.14143820  0.24982070  0.74344562  1
  Na  Na3  1  0.14086849  0.24872632  0.99404399  1
  Na  Na4  1  0.14028340  0.58424245  0.24399930  1
  Na  Na5  1  0.14070303  0.58363221  0.49411333  1
  Na  Na6  1  0.14027507  0.58374409  0.74440025  1
  Na  Na7  1  0.14033593  0.58322358  0.99403578  1
  Na  Na8  1  0.14074435  0.91755648  0.24285709  1
  Na  Na9  1  0.14069026  0.91737654  0.49325964  1
  Na  Na10  1  0.14073796  0.91842574  0.74359436  1
  Na  Na11  1  0.14101279  0.91664237  0.99353303  1
  Na  Na12  1  0.63980410  0.25102415  0.24253495  1
  Na  Na13  1  0.63976285  0.24946902  0.49350422  1
  Na  Na14  1  0.64056995  0.24857730  0.74437535  1
  Na  Na15  1  0.64066762  0.24968554  0.99379720  1
  Na  Na16  1  0.63976604  0.58395265  0.24268592  1
  Na  Na17  1  0.64005921  0.58346692  0.49409207  1
  Na  Na18  1  0.64031697  0.58238379  0.74433175  1
  Na  Na19  1  0.63968850  0.58245227  0.99417087  1
  Na  Na20  1  0.63997688  0.91752339  0.24227165  1
  Na  Na21  1  0.64043148  0.91518778  0.49306876  1
  Na  Na22  1  0.64054744  0.91631391  0.74397147  1
  Na  Na23  1  0.64025917  0.91696566  0.99320498  1
  Na  Na24  1  0.36017021  0.08157390  0.00676180  1
  Na  Na25  1  0.36019556  0.08242293  0.25653953  1
  Na  Na26  1  0.35996707  0.08499264  0.50682318  1
  Na  Na27  1  0.36014141  0.08333066  0.75637788  1
  Na  Na28  1  0.36040795  0.41555336  0.00739832  1
  Na  Na29  1  0.35985885  0.41628129  0.25724589  1
  Na  Na30  1  0.35910647  0.41597687  0.50698978  1
  Na  Na31  1  0.35951460  0.41677058  0.75697908  1
  Na  Na32  1  0.35939804  0.75038156  0.00680015  1
  Na  Na33  1  0.35975791  0.75074699  0.25716379  1
  Na  Na34  1  0.35943793  0.75033785  0.50482236  1
  Na  Na35  1  0.35907297  0.75094246  0.75618276  1
  Na  Na36  1  0.85988950  0.08335618  0.00535270  1
  Na  Na37  1  0.86025037  0.08412894  0.25580020  1
  Na  Na38  1  0.85922112  0.08232692  0.50529957  1
  Na  Na39  1  0.85965254  0.08261587  0.75618282  1
  Na  Na40  1  0.85989750  0.41769316  0.00739075  1
  Na  Na41  1  0.85954273  0.41884771  0.25588035  1
  Na  Na42  1  0.85912438  0.41693006  0.50630888  1
  Na  Na43  1  0.85896215  0.41656804  0.75698218  1
  Na  Na44  1  0.85920300  0.74916580  0.00571743  1
  Na  Na45  1  0.85925399  0.75049459  0.25598266  1
  Na  Na46  1  0.85949010  0.74988011  0.50596617  1
  Na  Na47  1  0.85924198  0.74929216  0.75596628  1
  Na  Na48  1  0.11051670  0.08341225  0.11809180  1
  Na  Na49  1  0.10995335  0.08416353  0.36843908  1
  Na  Na50  1  0.11026565  0.08307236  0.61826217  1
  Na  Na51  1  0.11096089  0.08379258  0.86811378  1
  Na  Na52  1  0.10914935  0.41703651  0.11936056  1
  Na  Na53  1  0.10935417  0.41552777  0.36995924  1
  Na  Na54  1  0.11004844  0.41677146  0.61883603  1
  Na  Na55  1  0.10955018  0.41778306  0.86972486  1
  Na  Na56  1  0.10988087  0.74995330  0.11910563  1
  Na  Na57  1  0.11009580  0.75077900  0.36771423  1
  Na  Na58  1  0.10958511  0.74970389  0.61888635  1
  Na  Na59  1  0.10965729  0.75092467  0.86908800  1
  Na  Na60  1  0.61010108  0.08457913  0.11820676  1
  Na  Na61  1  0.60911099  0.08377400  0.36715427  1
  Na  Na62  1  0.60971979  0.08304457  0.61954242  1
  Na  Na63  1  0.61008757  0.08286498  0.86835388  1
  Na  Na64  1  0.60906597  0.41728697  0.11884982  1
  Na  Na65  1  0.60882987  0.41660522  0.36795129  1
  Na  Na66  1  0.60935659  0.41542693  0.61944092  1
  Na  Na67  1  0.60969452  0.41540037  0.86939638  1
  Na  Na68  1  0.60921573  0.74938578  0.11876661  1
  Na  Na69  1  0.60946771  0.74940560  0.36711496  1
  Na  Na70  1  0.61000523  0.74956073  0.61857481  1
  Na  Na71  1  0.60943312  0.74880876  0.86805136  1
  Na  Na72  1  0.39076618  0.24963554  0.13237353  1
  Na  Na73  1  0.39001140  0.24950291  0.38099421  1
  Na  Na74  1  0.38989402  0.24872650  0.63262413  1
  Na  Na75  1  0.39055949  0.24821028  0.88176065  1
  Na  Na76  1  0.39072102  0.58296589  0.13243152  1
  Na  Na77  1  0.39008762  0.58359605  0.38071897  1
  Na  Na78  1  0.38992051  0.58273835  0.63153010  1
  Na  Na79  1  0.39016749  0.58197959  0.88180341  1
  Na  Na80  1  0.39050601  0.91722985  0.13264059  1
  Na  Na81  1  0.39042809  0.91730327  0.38051430  1
  Na  Na82  1  0.39036160  0.91810992  0.63123276  1
  Na  Na83  1  0.39039884  0.91744543  0.88148627  1
  Na  Na84  1  0.89093795  0.25047810  0.13112282  1
  Na  Na85  1  0.89014785  0.24977570  0.38040915  1
  Na  Na86  1  0.88991031  0.25015148  0.63142739  1
  Na  Na87  1  0.89073253  0.25035320  0.88149049  1
  Na  Na88  1  0.88945022  0.58359008  0.13105090  1
  Na  Na89  1  0.89012538  0.58346190  0.38106050  1
  Na  Na90  1  0.88980498  0.58367535  0.63168925  1
  Na  Na91  1  0.88969657  0.58409121  0.88253676  1
  Na  Na92  1  0.89075114  0.91740353  0.13049269  1
  Na  Na93  1  0.89017063  0.91730919  0.38056688  1
  Na  Na94  1  0.89022148  0.91491788  0.63069164  1
  Na  Na95  1  0.89056046  0.91737762  0.88012520  1
  Mn  Mn96  1  0.75024386  0.16660683  0.37470161  1
  Mn  Mn97  1  -0.00028752  0.83422420  0.24938718  1
  Mn  Mn98  1  0.24963826  0.66701431  0.62502887  1
  Mn  Mn99  1  0.00008187  0.33415432  0.75070085  1
  Mn  Mn100  1  0.74961061  0.33423820  0.37403926  1
  Mn  Mn101  1  0.75046793  0.00100704  0.12363876  1
  Mn  Mn102  1  -0.00022949  -0.00053869  0.49910467  1
  Mn  Mn103  1  0.49974850  0.83410737  -0.00009665  1
  Mn  Mn104  1  0.00058286  0.66692900  0.49970793  1
  Mn  Mn105  1  0.50007991  0.16647425  0.00084079  1
  Mn  Mn106  1  0.24982001  0.00048620  0.37452675  1
  Mn  Mn107  1  0.24941712  0.83489719  0.62542773  1
  Mn  Mn108  1  -0.00096680  0.50111542  0.75010776  1
  Mn  Mn109  1  0.24975918  0.33148455  0.12583132  1
  Mn  Mn110  1  -0.00012922  0.49936492  0.50085606  1
  Mn  Mn111  1  0.00028753  0.83347740  0.74981562  1
  Mn  Mn112  1  0.75026874  0.83287378  0.12417610  1
  Mn  Mn113  1  0.00014190  0.66722138  0.00048564  1
  Mn  Mn114  1  0.49922718  0.66528170  0.74975483  1
  Mn  Mn115  1  0.49983068  0.83372418  0.49955639  1
  Mn  Mn116  1  0.49964923  0.49969123  0.49918754  1
  Mn  Mn117  1  0.49884825  0.33215095  0.49978254  1
  Mn  Mn118  1  0.00028878  0.00014212  -0.00056223  1
  Mn  Mn119  1  0.75028104  0.33405040  0.12425438  1
  Mn  Mn120  1  0.74908751  0.50172491  0.37606126  1
  Mn  Mn121  1  0.50045470  0.00097114  0.49997679  1
  Mn  Mn122  1  0.75055320  0.33289510  0.87594332  1
  Mn  Mn123  1  0.24948056  0.33233239  0.37603170  1
  Mn  Mn124  1  0.49918164  0.66566613  -0.00011185  1
  Mn  Mn125  1  0.74935666  0.83295791  0.37434764  1
  Mn  Mn126  1  0.74974701  0.83237996  0.87472082  1
  Mn  Mn127  1  -0.00043150  0.33368073  0.24992097  1
  Mn  Mn128  1  0.00094468  0.16653051  0.74994861  1
  Mn  Mn129  1  0.25054362  0.66759503  0.12507493  1
  Mn  Mn130  1  -0.00083531  0.66614635  0.24942048  1
  Mn  Mn131  1  0.74948033  0.49986194  0.62524628  1
  Mn  Mn132  1  0.49987883  0.33229954  0.75026604  1
  Mn  Mn133  1  0.74963230  -0.00130834  0.62505428  1
  Mn  Mn134  1  0.49974235  0.83368698  0.74984495  1
  Mn  Mn135  1  -0.00007182  0.16745439  -0.00049941  1
  Mn  Mn136  1  0.25023975  0.83398371  0.87508803  1
  Mn  Mn137  1  0.74945118  0.16648380  0.62466756  1
  Mn  Mn138  1  0.25039449  0.49989094  0.12563231  1
  Mn  Mn139  1  0.49995064  0.66647317  0.49945458  1
  Mn  Mn140  1  0.25009693  0.50014761  0.87553632  1
  Mn  Mn141  1  -0.00092896  0.16671349  0.49980816  1
  Mn  Mn142  1  0.25030228  0.33210972  0.87541228  1
  Mn  Mn143  1  0.24897045  0.50041005  0.37584632  1
  Fe  Fe144  1  0.00050467  0.83333002  0.49977270  1
  Fe  Fe145  1  0.50005819  0.16665994  0.49965676  1
  Fe  Fe146  1  0.75039162  0.16686270  0.12448340  1
  Fe  Fe147  1  0.49990250  0.49859075  0.75056174  1
  Fe  Fe148  1  0.25060820  0.00050236  0.87517774  1
  Fe  Fe149  1  0.25083415  0.16540535  0.12455336  1
  Fe  Fe150  1  0.50009852  0.16583753  0.75111919  1
  Fe  Fe151  1  0.25012233  0.33311552  0.62553509  1
  Fe  Fe152  1  -0.00011072  0.49957926  0.25030753  1
  Fe  Fe153  1  0.49933098  0.49933595  0.24968287  1
  Fe  Fe154  1  0.50035365  0.00082056  0.25027596  1
  Fe  Fe155  1  0.74986760  0.49990671  0.87517158  1
  Fe  Fe156  1  0.49975576  0.33338583  0.24996343  1
  Fe  Fe157  1  0.00074300  0.00032183  0.24963462  1
  Fe  Fe158  1  0.00001821  0.83399944  -0.00040811  1
  Fe  Fe159  1  0.25013492  0.16650093  0.37570516  1
  Fe  Fe160  1  0.25000853  0.66724819  0.37528739  1
  Fe  Fe161  1  0.50068651  0.00002729  0.75028548  1
  Fe  Fe162  1  0.75072526  0.16624881  0.87435306  1
  Fe  Fe163  1  -0.00077228  0.33292335  0.49943727  1
  Fe  Fe164  1  0.25019248  0.83421395  0.37493055  1
  Fe  Fe165  1  0.49966943  0.66631783  0.24929322  1
  Fe  Fe166  1  0.24986929  0.83347286  0.12507917  1
  Fe  Fe167  1  0.74999113  0.66636923  0.62546335  1
  Fe  Fe168  1  0.25065965  0.00123594  0.62453899  1
  Fe  Fe169  1  0.74923325  0.66594730  0.87518727  1
  Fe  Fe170  1  0.00052555  0.33420426  0.00085287  1
  Fe  Fe171  1  0.74963551  0.66695663  0.37495697  1
  Fe  Fe172  1  0.00038759  -0.00035358  0.74929088  1
  Fe  Fe173  1  -0.00006484  0.66735184  0.75059069  1
  Fe  Fe174  1  0.50017875  0.33320768  0.00079023  1
  Fe  Fe175  1  0.74986798  0.83235423  0.62446184  1
  Fe  Fe176  1  0.50063599  0.00029133  0.00077692  1
  Fe  Fe177  1  0.49965581  0.49892943  0.00087408  1
  Fe  Fe178  1  0.74977195  0.50114540  0.12517712  1
  Fe  Fe179  1  0.25018489  0.66691426  0.87510846  1
  Fe  Fe180  1  0.50037977  0.83387555  0.24941621  1
  Fe  Fe181  1  0.75037400  -0.00038646  0.87441953  1
  Fe  Fe182  1  0.25038410  -0.00003110  0.12494239  1
  Fe  Fe183  1  0.74969436  0.33293085  0.62551836  1
  Fe  Fe184  1  0.74936380  -0.00020762  0.37432943  1
  Fe  Fe185  1  0.74934088  0.66653447  0.12474460  1
  Fe  Fe186  1  0.50013708  0.16728697  0.24974068  1
  Fe  Fe187  1  0.00004769  0.50083869  0.00023544  1
  Fe  Fe188  1  0.00051477  0.16702979  0.24973574  1
  Fe  Fe189  1  0.25092474  0.16568448  0.87448492  1
  Fe  Fe190  1  0.25014624  0.16671907  0.62537508  1
  Fe  Fe191  1  0.25045425  0.50040161  0.62545303  1
  P  P192  1  0.04233039  0.25114951  0.10290292  1
  P  P193  1  0.04195534  0.24933526  0.35251080  1
  P  P194  1  0.04190471  0.25120127  0.60218706  1
  P  P195  1  0.04343689  0.25090718  0.85367696  1
  P  P196  1  0.04215180  0.58205093  0.10312629  1
  P  P197  1  0.04210197  0.58198987  0.35238384  1
  P  P198  1  0.04284599  0.58380059  0.60372796  1
  P  P199  1  0.04173206  0.58495108  0.85318900  1
  P  P200  1  0.04257323  0.91615422  0.10232118  1
  P  P201  1  0.04270153  0.91801564  0.35222480  1
  P  P202  1  0.04254229  0.91550753  0.60228881  1
  P  P203  1  0.04280620  0.91800280  0.85232958  1
  P  P204  1  0.54231483  0.25160109  0.10338667  1
  P  P205  1  0.54127394  0.25007007  0.35153442  1
  P  P206  1  0.54174721  0.24792690  0.60291671  1
  P  P207  1  0.54229090  0.24841826  0.85325681  1
  P  P208  1  0.54116218  0.58170634  0.10332120  1
  P  P209  1  0.54100268  0.58278359  0.35072720  1
  P  P210  1  0.54238709  0.58239909  0.60328856  1
  P  P211  1  0.54154265  0.58066827  0.85307036  1
  P  P212  1  0.54228792  0.91810452  0.10335545  1
  P  P213  1  0.54158814  0.91700942  0.35108984  1
  P  P214  1  0.54286547  0.91729990  0.60332596  1
  P  P215  1  0.54249788  0.91802313  0.85289534  1
  P  P216  1  0.45938904  0.08350220  0.14846723  1
  P  P217  1  0.45808719  0.08490217  0.39670613  1
  P  P218  1  0.45886513  0.08348105  0.64876647  1
  P  P219  1  0.45859643  0.08169789  0.89767455  1
  P  P220  1  0.45807715  0.41621092  0.14804692  1
  P  P221  1  0.45657019  0.41604258  0.39592954  1
  P  P222  1  0.45736510  0.41677160  0.64794402  1
  P  P223  1  0.45861721  0.41577064  0.89874798  1
  P  P224  1  0.45848025  0.75047668  0.14843308  1
  P  P225  1  0.45783678  0.75026658  0.39528040  1
  P  P226  1  0.45675804  0.74989579  0.64680322  1
  P  P227  1  0.45688671  0.74987551  0.89703284  1
  P  P228  1  0.95919242  0.08351362  0.14807908  1
  P  P229  1  0.95731246  0.08342630  0.39550016  1
  P  P230  1  0.95782212  0.08173643  0.64733982  1
  P  P231  1  0.95779973  0.08332626  0.89596049  1
  P  P232  1  0.95757554  0.41831042  0.14685377  1
  P  P233  1  0.95723269  0.41565091  0.39736439  1
  P  P234  1  0.95664688  0.41660278  0.64692833  1
  P  P235  1  0.95837389  0.41725908  0.89918327  1
  P  P236  1  0.95692288  0.75056721  0.14615284  1
  P  P237  1  0.95792787  0.75147594  0.39729332  1
  P  P238  1  0.95775969  0.74893665  0.64738590  1
  P  P239  1  0.95778910  0.75168326  0.89731489  1
  P  P240  1  0.20898693  0.08332548  0.22662778  1
  P  P241  1  0.20800143  0.08473809  0.47809393  1
  P  P242  1  0.20894694  0.08362800  0.72706732  1
  P  P243  1  0.20925945  0.08316759  0.97709692  1
  P  P244  1  0.20702904  0.41602604  0.22866092  1
  P  P245  1  0.20728953  0.41646420  0.47978159  1
  P  P246  1  0.20901007  0.41699328  0.72692213  1
  P  P247  1  0.20769752  0.41576383  0.97854102  1
  P  P248  1  0.20799406  0.75185652  0.22824088  1
  P  P249  1  0.20848406  0.75085541  0.47651317  1
  P  P250  1  0.20714795  0.75054887  0.72866686  1
  P  P251  1  0.20787936  0.74931276  0.97764691  1
  P  P252  1  0.70788579  0.08468412  0.22700375  1
  P  P253  1  0.70722211  0.08173569  0.47681638  1
  P  P254  1  0.70781015  0.08281012  0.72883827  1
  P  P255  1  0.70907262  0.08363646  0.97617020  1
  P  P256  1  0.70761503  0.41872880  0.22703679  1
  P  P257  1  0.70646217  0.41661434  0.47861362  1
  P  P258  1  0.70782679  0.41516943  0.72821635  1
  P  P259  1  0.70835236  0.41829174  0.97809981  1
  P  P260  1  0.70767163  0.74890458  0.22722363  1
  P  P261  1  0.70733237  0.74855153  0.47784180  1
  P  P262  1  0.70822754  0.74921936  0.72693757  1
  P  P263  1  0.70713801  0.74793927  0.97756455  1
  P  P264  1  0.29287194  0.24744646  0.02243378  1
  P  P265  1  0.29187447  0.24766703  0.27271292  1
  P  P266  1  0.29143356  0.24959112  0.52381058  1
  P  P267  1  0.29245092  0.24844511  0.77194378  1
  P  P268  1  0.29325040  0.58364797  0.02198925  1
  P  P269  1  0.29188181  0.58482625  0.27314069  1
  P  P270  1  0.29219457  0.58275652  0.52242914  1
  P  P271  1  0.29208034  0.58439770  0.77251123  1
  P  P272  1  0.29170830  0.91659769  0.02354292  1
  P  P273  1  0.29201098  0.91581356  0.27180648  1
  P  P274  1  0.29240272  0.91839268  0.52215870  1
  P  P275  1  0.29240133  0.91907198  0.77233661  1
  P  P276  1  0.79261246  0.24854694  0.02191876  1
  P  P277  1  0.79256107  0.25028926  0.27073698  1
  P  P278  1  0.79185804  0.25110598  0.52245192  1
  P  P279  1  0.79262542  0.24900882  0.77237225  1
  P  P280  1  0.79089919  0.58358483  0.02266111  1
  P  P281  1  0.79174538  0.58511525  0.27203783  1
  P  P282  1  0.79208388  0.58502159  0.52277709  1
  P  P283  1  0.79123205  0.58325107  0.77351453  1
  P  P284  1  0.79279759  0.91656451  0.02063525  1
  P  P285  1  0.79191956  0.91802681  0.27193976  1
  P  P286  1  0.79192595  0.91477248  0.52186383  1
  P  P287  1  0.79209054  0.91657245  0.77201108  1
  O  O288  1  0.03671749  0.25030970  0.18281931  1
  O  O289  1  0.03653096  0.24985270  0.43240735  1
  O  O290  1  0.03729302  0.25086043  0.68218941  1
  O  O291  1  0.03818693  0.25133087  0.93364503  1
  O  O292  1  0.03683227  0.58182671  0.18304311  1
  O  O293  1  0.03698505  0.58244424  0.43234986  1
  O  O294  1  0.03755280  0.58459913  0.68367818  1
  O  O295  1  0.03660090  0.58429128  0.93317813  1
  O  O296  1  0.03722100  0.91719798  0.18224284  1
  O  O297  1  0.03755122  0.91705765  0.43215118  1
  O  O298  1  0.03734997  0.91622669  0.68223288  1
  O  O299  1  0.03760627  0.91731405  0.93224988  1
  O  O300  1  0.53709571  0.25162953  0.18325528  1
  O  O301  1  0.53624733  0.24923848  0.43150921  1
  O  O302  1  0.53668931  0.24786603  0.68288777  1
  O  O303  1  0.53724845  0.24905839  0.93315090  1
  O  O304  1  0.53569849  0.58203802  0.18317981  1
  O  O305  1  0.53640356  0.58321489  0.43073700  1
  O  O306  1  0.53722955  0.58183513  0.68324471  1
  O  O307  1  0.53607299  0.58072041  0.93301404  1
  O  O308  1  0.53686712  0.91768881  0.18322518  1
  O  O309  1  0.53685873  0.91719085  0.43108490  1
  O  O310  1  0.53776729  0.91759753  0.68328109  1
  O  O311  1  0.53738506  0.91814911  0.93288350  1
  O  O312  1  0.46391601  0.08309671  0.06850263  1
  O  O313  1  0.46341080  0.08475902  0.31686823  1
  O  O314  1  0.46363215  0.08393238  0.56878327  1
  O  O315  1  0.46388735  0.08186547  0.81782207  1
  O  O316  1  0.46342838  0.41629893  0.06814385  1
  O  O317  1  0.46172509  0.41589692  0.31600876  1
  O  O318  1  0.46211955  0.41643260  0.56797048  1
  O  O319  1  0.46363408  0.41591516  0.81878108  1
  O  O320  1  0.46306806  0.75018601  0.06842026  1
  O  O321  1  0.46350959  0.75043827  0.31540606  1
  O  O322  1  0.46190048  0.74989207  0.56679130  1
  O  O323  1  0.46195396  0.74983699  0.81710592  1
  O  O324  1  0.96408166  0.08358167  0.06807095  1
  O  O325  1  0.96299082  0.08363028  0.31562981  1
  O  O326  1  0.96262474  0.08199515  0.56732020  1
  O  O327  1  0.96306744  0.08284955  0.81606319  1
  O  O328  1  0.96318295  0.41813857  0.06700428  1
  O  O329  1  0.96259286  0.41650614  0.31742874  1
  O  O330  1  0.96147071  0.41584530  0.56697415  1
  O  O331  1  0.96314100  0.41758364  0.81918326  1
  O  O332  1  0.96231580  0.75096616  0.06624780  1
  O  O333  1  0.96278897  0.75119566  0.31731020  1
  O  O334  1  0.96309994  0.74947968  0.56748655  1
  O  O335  1  0.96310808  0.75091173  0.81738007  1
  O  O336  1  0.21434207  0.08314118  0.05698365  1
  O  O337  1  0.21332970  0.08339213  0.30657515  1
  O  O338  1  0.21334528  0.08440232  0.55793978  1
  O  O339  1  0.21430532  0.08359916  0.80694195  1
  O  O340  1  0.21269570  0.41565274  0.05847359  1
  O  O341  1  0.21189006  0.41606920  0.30866913  1
  O  O342  1  0.21295664  0.41667359  0.55963559  1
  O  O343  1  0.21379170  0.41653790  0.80693428  1
  O  O344  1  0.21320396  0.75004465  0.05756536  1
  O  O345  1  0.21322151  0.75175906  0.30812079  1
  O  O346  1  0.21329465  0.75100687  0.55651669  1
  O  O347  1  0.21259369  0.75011007  0.80855970  1
  O  O348  1  0.71425082  0.08437116  0.05616981  1
  O  O349  1  0.71288626  0.08370959  0.30692736  1
  O  O350  1  0.71222154  0.08188422  0.55677996  1
  O  O351  1  0.71355786  0.08291518  0.80869195  1
  O  O352  1  0.71374362  0.41875514  0.05799794  1
  O  O353  1  0.71231901  0.41853502  0.30702923  1
  O  O354  1  0.71170196  0.41592993  0.55858066  1
  O  O355  1  0.71341638  0.41560342  0.80814113  1
  O  O356  1  0.71255424  0.74814076  0.05748473  1
  O  O357  1  0.71273375  0.74891233  0.30718315  1
  O  O358  1  0.71277690  0.74902093  0.55772122  1
  O  O359  1  0.71324008  0.74897362  0.80690815  1
  O  O360  1  0.28681531  0.24732743  0.19276410  1
  O  O361  1  0.28659989  0.24947876  0.44384907  1
  O  O362  1  0.28705705  0.24889986  0.69207334  1
  O  O363  1  0.28782650  0.24742724  0.94246363  1
  O  O364  1  0.28699862  0.58461041  0.19317301  1
  O  O365  1  0.28654603  0.58355069  0.44254429  1
  O  O366  1  0.28662715  0.58350786  0.69257829  1
  O  O367  1  0.28820174  0.58406012  0.94201406  1
  O  O368  1  0.28695018  0.91564272  0.19195682  1
  O  O369  1  0.28705663  0.91770511  0.44221891  1
  O  O370  1  0.28709412  0.91933573  0.69242303  1
  O  O371  1  0.28697390  0.91735181  0.94357386  1
  O  O372  1  0.78738686  0.24985975  0.19077446  1
  O  O373  1  0.78688470  0.25100426  0.44245947  1
  O  O374  1  0.78702339  0.24987892  0.69246591  1
  O  O375  1  0.78734970  0.24823798  0.94196494  1
  O  O376  1  0.78640318  0.58461171  0.19213597  1
  O  O377  1  0.78689139  0.58524165  0.44284097  1
  O  O378  1  0.78611367  0.58332307  0.69357986  1
  O  O379  1  0.78570560  0.58332218  0.94277083  1
  O  O380  1  0.78715288  0.91782729  0.19195565  1
  O  O381  1  0.78662057  0.91533156  0.44195675  1
  O  O382  1  0.78681075  0.91577293  0.69208453  1
  O  O383  1  0.78741046  0.91682160  0.94073637  1
  O  O384  1  0.22850402  0.24710839  0.05797284  1
  O  O385  1  0.22760749  0.24766856  0.30846855  1
  O  O386  1  0.22728902  0.24924560  0.55974403  1
  O  O387  1  0.22835576  0.24785647  0.80812746  1
  O  O388  1  0.22880771  0.58359544  0.05704487  1
  O  O389  1  0.22754229  0.58537992  0.30859927  1
  O  O390  1  0.22804974  0.58202268  0.55852658  1
  O  O391  1  0.22790348  0.58494190  0.80857524  1
  O  O392  1  0.22750858  0.91618405  0.05938012  1
  O  O393  1  0.22784703  0.91597503  0.30784091  1
  O  O394  1  0.22816425  0.91942643  0.55804746  1
  O  O395  1  0.22822305  0.91876478  0.80823830  1
  O  O396  1  0.72837298  0.24858321  0.05774016  1
  O  O397  1  0.72822929  0.25008206  0.30611729  1
  O  O398  1  0.72748185  0.25110783  0.55785415  1
  O  O399  1  0.72848586  0.24868687  0.80843894  1
  O  O400  1  0.72686148  0.58353617  0.05914109  1
  O  O401  1  0.72746004  0.58577943  0.30799300  1
  O  O402  1  0.72780266  0.58489189  0.55847487  1
  O  O403  1  0.72706100  0.58294731  0.80961921  1
  O  O404  1  0.72854349  0.91671387  0.05613800  1
  O  O405  1  0.72750778  0.91786430  0.30726561  1
  O  O406  1  0.72771961  0.91427381  0.55777940  1
  O  O407  1  0.72793940  0.91696900  0.80796266  1
  O  O408  1  0.27329487  0.08346685  0.19099487  1
  O  O409  1  0.27217152  0.08458905  0.44199153  1
  O  O410  1  0.27300160  0.08378725  0.69052636  1
  O  O411  1  0.27337404  0.08322143  0.94079222  1
  O  O412  1  0.27155196  0.41569091  0.19381781  1
  O  O413  1  0.27134279  0.41653439  0.44364585  1
  O  O414  1  0.27313534  0.41747776  0.69104793  1
  O  O415  1  0.27209792  0.41606208  0.94345558  1
  O  O416  1  0.27222895  0.75229562  0.19225815  1
  O  O417  1  0.27264482  0.75024378  0.44061744  1
  O  O418  1  0.27135378  0.75091078  0.69303837  1
  O  O419  1  0.27209798  0.74883851  0.94174409  1
  O  O420  1  0.77226850  0.08549122  0.19142583  1
  O  O421  1  0.77162901  0.08144195  0.44142433  1
  O  O422  1  0.77179710  0.08287517  0.69258853  1
  O  O423  1  0.77316574  0.08330854  0.94002705  1
  O  O424  1  0.77196588  0.41880181  0.19165965  1
  O  O425  1  0.77084223  0.41732708  0.44332517  1
  O  O426  1  0.77189975  0.41513884  0.69201688  1
  O  O427  1  0.77250979  0.41825928  0.94214737  1
  O  O428  1  0.77194165  0.74855323  0.19155181  1
  O  O429  1  0.77150740  0.74835436  0.44164619  1
  O  O430  1  0.77232824  0.74936658  0.69067756  1
  O  O431  1  0.77137262  0.74782280  0.94174474  1
  O  O432  1  0.02337929  0.08306993  0.18390037  1
  O  O433  1  0.02146405  0.08362187  0.43139159  1
  O  O434  1  0.02231086  0.08151707  0.68250401  1
  O  O435  1  0.02210939  0.08379159  0.93129979  1
  O  O436  1  0.02166560  0.41837281  0.18317798  1
  O  O437  1  0.02145380  0.41498672  0.43321954  1
  O  O438  1  0.02114048  0.41752983  0.68186183  1
  O  O439  1  0.02264741  0.41703603  0.93480956  1
  O  O440  1  0.02119257  0.75015733  0.18155987  1
  O  O441  1  0.02236055  0.75168190  0.43257797  1
  O  O442  1  0.02201317  0.74866027  0.68319009  1
  O  O443  1  0.02202215  0.75184860  0.93317277  1
  O  O444  1  0.52354837  0.08366627  0.18402229  1
  O  O445  1  0.52228305  0.08519276  0.43275721  1
  O  O446  1  0.52301423  0.08350051  0.68476407  1
  O  O447  1  0.52272068  0.08170327  0.93385982  1
  O  O448  1  0.52214892  0.41629743  0.18444496  1
  O  O449  1  0.52086809  0.41559968  0.43141723  1
  O  O450  1  0.52177329  0.41678292  0.68327269  1
  O  O451  1  0.52273780  0.41580356  0.93486355  1
  O  O452  1  0.52275235  0.75079751  0.18387850  1
  O  O453  1  0.52198003  0.75024006  0.43127000  1
  O  O454  1  0.52117733  0.74967967  0.68185285  1
  O  O455  1  0.52127157  0.74985306  0.93212232  1
  O  O456  1  0.47812223  0.25148858  0.06744603  1
  O  O457  1  0.47713338  0.25074663  0.31557335  1
  O  O458  1  0.47741595  0.24754465  0.56722901  1
  O  O459  1  0.47802331  0.24823837  0.81752917  1
  O  O460  1  0.47712090  0.58126445  0.06705465  1
  O  O461  1  0.47677373  0.58224386  0.31517426  1
  O  O462  1  0.47802561  0.58292172  0.56800258  1
  O  O463  1  0.47737121  0.58050609  0.81710608  1
  O  O464  1  0.47808329  0.91857174  0.06729257  1
  O  O465  1  0.47738925  0.91643750  0.31546265  1
  O  O466  1  0.47849248  0.91749918  0.56807348  1
  O  O467  1  0.47821043  0.91813633  0.81727297  1
  O  O468  1  0.97820643  0.25195071  0.06680057  1
  O  O469  1  0.97781069  0.24887761  0.31659933  1
  O  O470  1  0.97744672  0.25153963  0.56696477  1
  O  O471  1  0.97902514  0.25019267  0.81856767  1
  O  O472  1  0.97791512  0.58247578  0.06736572  1
  O  O473  1  0.97774021  0.58148824  0.31685701  1
  O  O474  1  0.97850028  0.58374616  0.56845655  1
  O  O475  1  0.97741819  0.58553819  0.81759557  1
  O  O476  1  0.97829256  0.91563597  0.06660533  1
  O  O477  1  0.97837464  0.91910007  0.31665109  1
  O  O478  1  0.97822290  0.91482032  0.56667895  1
  O  O479  1  0.97854276  0.91839801  0.81656718  1
  O  O480  1  0.07332076  0.31482017  0.07511092  1
  O  O481  1  0.07322246  0.31276923  0.32450809  1
  O  O482  1  0.07254334  0.31473748  0.57370201  1
  O  O483  1  0.07433258  0.31436504  0.82520380  1
  O  O484  1  0.07347515  0.64578250  0.07570427  1
  O  O485  1  0.07274108  0.64585209  0.32442883  1
  O  O486  1  0.07439287  0.64672464  0.57485842  1
  O  O487  1  0.07253926  0.64853189  0.82488368  1
  O  O488  1  0.07379867  0.97953705  0.07405131  1
  O  O489  1  0.07385095  0.98150932  0.32407157  1
  O  O490  1  0.07354394  0.97898699  0.57403577  1
  O  O491  1  0.07343741  0.98167794  0.82390902  1
  O  O492  1  0.57321155  0.31489946  0.07435852  1
  O  O493  1  0.57252276  0.31369369  0.32387119  1
  O  O494  1  0.57223423  0.31194697  0.57498752  1
  O  O495  1  0.57359038  0.31175358  0.82496313  1
  O  O496  1  0.57216249  0.64537555  0.07517580  1
  O  O497  1  0.57121629  0.64675016  0.32217443  1
  O  O498  1  0.57349295  0.64598766  0.57525600  1
  O  O499  1  0.57245402  0.64456986  0.82546092  1
  O  O500  1  0.57342752  0.98148845  0.07484424  1
  O  O501  1  0.57169471  0.98118870  0.32294102  1
  O  O502  1  0.57421528  0.98043052  0.57474695  1
  O  O503  1  0.57354576  0.98117958  0.82400902  1
  O  O504  1  0.42836932  0.02013860  0.17721676  1
  O  O505  1  0.42711317  0.02120268  0.42481388  1
  O  O506  1  0.42835892  0.01947525  0.67674623  1
  O  O507  1  0.42766130  0.01839546  0.92666642  1
  O  O508  1  0.42713143  0.35258081  0.17629167  1
  O  O509  1  0.42516640  0.35287286  0.42470613  1
  O  O510  1  0.42641446  0.35311791  0.67590087  1
  O  O511  1  0.42806947  0.35177537  0.92679480  1
  O  O512  1  0.42815059  0.68645879  0.17670644  1
  O  O513  1  0.42661283  0.68682201  0.42349459  1
  O  O514  1  0.42554947  0.68652479  0.67493675  1
  O  O515  1  0.42585287  0.68643769  0.92521891  1
  O  O516  1  0.92805483  0.01994310  0.17597225  1
  O  O517  1  0.92621771  0.01995282  0.42384846  1
  O  O518  1  0.92719824  0.01804504  0.67559392  1
  O  O519  1  0.92664591  0.02008400  0.92451745  1
  O  O520  1  0.92631301  0.35469599  0.17471508  1
  O  O521  1  0.92648537  0.35182762  0.42526807  1
  O  O522  1  0.92588158  0.35337417  0.67603765  1
  O  O523  1  0.92764302  0.35348102  0.92715296  1
  O  O524  1  0.92581459  0.68695208  0.17406841  1
  O  O525  1  0.92694958  0.68776268  0.42498941  1
  O  O526  1  0.92710531  0.68536907  0.67605059  1
  O  O527  1  0.92633478  0.68845086  0.92552642  1
  O  O528  1  0.17885618  0.01925985  0.19802441  1
  O  O529  1  0.17653968  0.02149049  0.44964842  1
  O  O530  1  0.17818836  0.01999136  0.69852599  1
  O  O531  1  0.17841992  0.01945608  0.94862870  1
  O  O532  1  0.17596231  0.35251620  0.20059922  1
  O  O533  1  0.17615459  0.35296420  0.45144673  1
  O  O534  1  0.17878756  0.35288627  0.69860583  1
  O  O535  1  0.17692217  0.35220628  0.95024030  1
  O  O536  1  0.17700994  0.68811629  0.20019062  1
  O  O537  1  0.17734193  0.68721777  0.44868450  1
  O  O538  1  0.17591951  0.68735730  0.70008610  1
  O  O539  1  0.17701946  0.68565776  0.94954752  1
  O  O540  1  0.67709513  0.02118329  0.19833094  1
  O  O541  1  0.67654242  0.01818305  0.44822240  1
  O  O542  1  0.67646537  0.01944076  0.70069506  1
  O  O543  1  0.67837855  0.01953584  0.94867441  1
  O  O544  1  0.67671527  0.35500975  0.19916673  1
  O  O545  1  0.67542388  0.35348233  0.44957585  1
  O  O546  1  0.67721340  0.35137288  0.69997682  1
  O  O547  1  0.67746283  0.35415659  0.95106584  1
  O  O548  1  0.67646194  0.68577813  0.19845581  1
  O  O549  1  0.67632077  0.68514786  0.44921868  1
  O  O550  1  0.67721041  0.68562326  0.69882990  1
  O  O551  1  0.67607123  0.68463514  0.94898169  1
  O  O552  1  0.32344103  0.31137592  0.05047254  1
  O  O553  1  0.32266709  0.31158451  0.30039709  1
  O  O554  1  0.32161423  0.31368931  0.55226200  1
  O  O555  1  0.32337123  0.31214615  0.80020511  1
  O  O556  1  0.32456857  0.64680724  0.05064399  1
  O  O557  1  0.32276189  0.64835983  0.30141087  1
  O  O558  1  0.32322149  0.64642354  0.55033719  1
  O  O559  1  0.32287509  0.64813667  0.80047267  1
  O  O560  1  0.32222943  0.98022869  0.05258983  1
  O  O561  1  0.32320847  0.97948751  0.29963752  1
  O  O562  1  0.32365575  0.98187872  0.55016293  1
  O  O563  1  0.32328345  0.98227440  0.80142084  1
  O  O564  1  0.82335965  0.31264587  0.04922017  1
  O  O565  1  0.82322849  0.31424625  0.29845076  1
  O  O566  1  0.82239929  0.31460033  0.55125632  1
  O  O567  1  0.82401778  0.31225386  0.80085473  1
  O  O568  1  0.82181658  0.64728759  0.05089649  1
  O  O569  1  0.82302508  0.64835445  0.30061351  1
  O  O570  1  0.82310124  0.64820094  0.55169262  1
  O  O571  1  0.82201175  0.64688327  0.80183392  1
  O  O572  1  0.82434135  0.97974910  0.04889596  1
  O  O573  1  0.82228220  0.98173152  0.30052553  1
  O  O574  1  0.82314786  0.97827644  0.54988723  1
  O  O575  1  0.82281574  0.98033816  0.80013496  1
  O  O576  1  0.42886251  0.14750650  0.17654763  1
  O  O577  1  0.42713342  0.14815703  0.42577256  1
  O  O578  1  0.42779766  0.14677815  0.67759877  1
  O  O579  1  0.42743128  0.14525860  0.92584730  1
  O  O580  1  0.42699573  0.47973829  0.17649673  1
  O  O581  1  0.42573852  0.47966371  0.42427855  1
  O  O582  1  0.42688800  0.48035391  0.67661587  1
  O  O583  1  0.42741096  0.47913342  0.92716514  1
  O  O584  1  0.42746729  0.81406984  0.17639821  1
  O  O585  1  0.42655339  0.81362359  0.42377253  1
  O  O586  1  0.42583440  0.81353366  0.67477162  1
  O  O587  1  0.42591338  0.81346875  0.92511925  1
  O  O588  1  0.92883776  0.14758685  0.17595563  1
  O  O589  1  0.92571803  0.14653204  0.42411745  1
  O  O590  1  0.92701224  0.14550702  0.67516723  1
  O  O591  1  0.92660884  0.14680959  0.92412191  1
  O  O592  1  0.92666463  0.48164939  0.17575653  1
  O  O593  1  0.92611691  0.47908748  0.42566933  1
  O  O594  1  0.92541836  0.48019439  0.67491041  1
  O  O595  1  0.92775042  0.48112611  0.92728664  1
  O  O596  1  0.92566301  0.81380859  0.17459988  1
  O  O597  1  0.92739508  0.81515344  0.42572700  1
  O  O598  1  0.92651853  0.81238591  0.67544546  1
  O  O599  1  0.92740988  0.81565626  0.92535562  1
  O  O600  1  0.07334806  0.18759382  0.07474690  1
  O  O601  1  0.07283779  0.18574501  0.32406780  1
  O  O602  1  0.07264221  0.18735268  0.57433951  1
  O  O603  1  0.07470257  0.18751107  0.82542571  1
  O  O604  1  0.07297450  0.51879395  0.07405929  1
  O  O605  1  0.07303474  0.51840580  0.32443274  1
  O  O606  1  0.07362752  0.51997252  0.57593012  1
  O  O607  1  0.07273317  0.52132555  0.82511438  1
  O  O608  1  0.07313024  0.85234367  0.07416665  1
  O  O609  1  0.07338992  0.85440639  0.32377999  1
  O  O610  1  0.07329779  0.85180007  0.57397518  1
  O  O611  1  0.07399997  0.85456765  0.82420421  1
  O  O612  1  0.57347440  0.18801644  0.07527197  1
  O  O613  1  0.57181546  0.18645329  0.32256366  1
  O  O614  1  0.57297466  0.18486621  0.57399279  1
  O  O615  1  0.57282964  0.18469985  0.82483559  1
  O  O616  1  0.57231766  0.51837396  0.07473153  1
  O  O617  1  0.57222287  0.51920638  0.32301721  1
  O  O618  1  0.57336823  0.51906310  0.57457776  1
  O  O619  1  0.57258201  0.51735204  0.82447984  1
  O  O620  1  0.57326024  0.85448479  0.07499131  1
  O  O621  1  0.57303827  0.85373776  0.32296607  1
  O  O622  1  0.57354646  0.85353450  0.57513265  1
  O  O623  1  0.57334363  0.85405797  0.82524605  1
  O  O624  1  0.32407162  0.18429513  0.05116001  1
  O  O625  1  0.32282152  0.18445229  0.30167724  1
  O  O626  1  0.32292946  0.18638408  0.55200423  1
  O  O627  1  0.32368079  0.18516544  0.80049224  1
  O  O628  1  0.32403194  0.51993414  0.05017429  1
  O  O629  1  0.32255152  0.52095139  0.30078882  1
  O  O630  1  0.32322743  0.51920803  0.55054224  1
  O  O631  1  0.32323139  0.52090654  0.80066703  1
  O  O632  1  0.32266061  0.85285303  0.05127993  1
  O  O633  1  0.32282962  0.85261882  0.30117476  1
  O  O634  1  0.32305504  0.85468369  0.55043355  1
  O  O635  1  0.32355851  0.85531139  0.79988899  1
  O  O636  1  0.82371822  0.18541259  0.05070733  1
  O  O637  1  0.82403598  0.18729952  0.29942210  1
  O  O638  1  0.82290642  0.18724065  0.54984888  1
  O  O639  1  0.82346685  0.18522495  0.80014420  1
  O  O640  1  0.82196706  0.52014256  0.05129040  1
  O  O641  1  0.82245960  0.52144236  0.30057241  1
  O  O642  1  0.82300404  0.52116060  0.55043351  1
  O  O643  1  0.82207396  0.51948716  0.80166989  1
  O  O644  1  0.82354280  0.85283531  0.04868628  1
  O  O645  1  0.82304978  0.85440817  0.29969342  1
  O  O646  1  0.82263627  0.85116698  0.55032852  1
  O  O647  1  0.82335570  0.85316425  0.80009573  1
  O  O648  1  0.17779799  0.14649610  0.19793720  1
  O  O649  1  0.17738261  0.14836865  0.44943317  1
  O  O650  1  0.17770526  0.14708998  0.69877008  1
  O  O651  1  0.17824160  0.14659418  0.94847430  1
  O  O652  1  0.17638551  0.47972116  0.20050876  1
  O  O653  1  0.17574055  0.47966679  0.45142797  1
  O  O654  1  0.17776348  0.48056775  0.69932136  1
  O  O655  1  0.17646571  0.47919014  0.95051411  1
  O  O656  1  0.17688706  0.81498397  0.19906593  1
  O  O657  1  0.17829872  0.81490200  0.44836791  1
  O  O658  1  0.17610578  0.81426441  0.70088585  1
  O  O659  1  0.17685324  0.81287056  0.94953505  1
  O  O660  1  0.67697055  0.14826202  0.19884004  1
  O  O661  1  0.67642853  0.14557040  0.44910526  1
  O  O662  1  0.67644236  0.14615256  0.70052010  1
  O  O663  1  0.67805280  0.14709323  0.94777247  1
  O  O664  1  0.67690742  0.48227077  0.19866637  1
  O  O665  1  0.67534653  0.48034748  0.45094693  1
  O  O666  1  0.67637634  0.47856728  0.70041918  1
  O  O667  1  0.67718832  0.48125271  0.94898468  1
  O  O668  1  0.67706049  0.81290233  0.19947673  1
  O  O669  1  0.67615960  0.81197793  0.44928558  1
  O  O670  1  0.67769669  0.81313317  0.69879541  1
  O  O671  1  0.67615029  0.81167985  0.94973690  1
