# generated using pymatgen
data_Na2MnFe(PO4)2
_symmetry_space_group_name_H-M   'P 1'
_cell_length_a   22.33862128
_cell_length_b   20.09073651
_cell_length_c   19.45342942
_cell_angle_alpha   90.04159748
_cell_angle_beta   90.01676218
_cell_angle_gamma   90.08285720
_symmetry_Int_Tables_number   1
_chemical_formula_structural   Na2MnFe(PO4)2
_chemical_formula_sum   'Na96 Mn48 Fe48 P96 O384'
_cell_volume   8730.67475261
_cell_formula_units_Z   48
loop_
 _symmetry_equiv_pos_site_id
 _symmetry_equiv_pos_as_xyz
  1  'x, y, z'
loop_
 _atom_site_type_symbol
 _atom_site_label
 _atom_site_symmetry_multiplicity
 _atom_site_fract_x
 _atom_site_fract_y
 _atom_site_fract_z
 _atom_site_occupancy
  Na  Na0  1  0.13964469  0.25077201  0.24282179  1
  Na  Na1  1  0.14024893  0.24976264  0.49303696  1
  Na  Na2  1  0.14010119  0.25032030  0.74293205  1
  Na  Na3  1  0.14028578  0.24884539  0.99303686  1
  Na  Na4  1  0.14022050  0.58358866  0.24507916  1
  Na  Na5  1  0.14037604  0.58325028  0.49478315  1
  Na  Na6  1  0.14075661  0.58361455  0.74389209  1
  Na  Na7  1  0.14032752  0.58302506  0.99399175  1
  Na  Na8  1  0.14063316  0.91778501  0.24426185  1
  Na  Na9  1  0.14063838  0.91487411  0.49453445  1
  Na  Na10  1  0.14043725  0.91554586  0.74377147  1
  Na  Na11  1  0.14016762  0.91620680  0.99237317  1
  Na  Na12  1  0.63977077  0.24954849  0.24211802  1
  Na  Na13  1  0.64049618  0.25034397  0.49408779  1
  Na  Na14  1  0.64020389  0.24882091  0.74322120  1
  Na  Na15  1  0.63958712  0.24981812  0.99368272  1
  Na  Na16  1  0.64015515  0.58419844  0.24287735  1
  Na  Na17  1  0.64031330  0.58349765  0.49487962  1
  Na  Na18  1  0.64021151  0.58388592  0.74331129  1
  Na  Na19  1  0.64010899  0.58461118  0.99335400  1
  Na  Na20  1  0.64046904  0.91605471  0.24271933  1
  Na  Na21  1  0.64036989  0.91714458  0.49466013  1
  Na  Na22  1  0.64079391  0.91573960  0.74358704  1
  Na  Na23  1  0.64014047  0.91568182  0.99331843  1
  Na  Na24  1  0.36021168  0.08289092  0.00615045  1
  Na  Na25  1  0.35999999  0.08443383  0.25504845  1
  Na  Na26  1  0.35964876  0.08195556  0.50571580  1
  Na  Na27  1  0.36021861  0.08253740  0.75732869  1
  Na  Na28  1  0.35973357  0.41592328  0.00688645  1
  Na  Na29  1  0.36003817  0.41843731  0.25677645  1
  Na  Na30  1  0.35973402  0.41838707  0.50585530  1
  Na  Na31  1  0.35977459  0.41724246  0.75604219  1
  Na  Na32  1  0.36015649  0.74946291  0.00614838  1
  Na  Na33  1  0.35942910  0.74990028  0.25645839  1
  Na  Na34  1  0.35959057  0.74853059  0.50727769  1
  Na  Na35  1  0.35989165  0.74880405  0.75680643  1
  Na  Na36  1  0.86001783  0.08297627  0.00627739  1
  Na  Na37  1  0.85953576  0.08329328  0.25590934  1
  Na  Na38  1  0.85942608  0.08443381  0.50723257  1
  Na  Na39  1  0.86007878  0.08306021  0.75589216  1
  Na  Na40  1  0.85955442  0.41797667  0.00669701  1
  Na  Na41  1  0.85935148  0.41650334  0.25646174  1
  Na  Na42  1  0.85942094  0.41696343  0.50702130  1
  Na  Na43  1  0.85954441  0.41661552  0.75613080  1
  Na  Na44  1  0.85929787  0.75041767  0.00623134  1
  Na  Na45  1  0.85925449  0.75063341  0.25486771  1
  Na  Na46  1  0.85947595  0.75180378  0.50770347  1
  Na  Na47  1  0.85986197  0.75078897  0.75599056  1
  Na  Na48  1  0.10961668  0.08345487  0.11817619  1
  Na  Na49  1  0.10961929  0.08415760  0.36840658  1
  Na  Na50  1  0.10974551  0.08218068  0.61918406  1
  Na  Na51  1  0.10920472  0.08338104  0.86798246  1
  Na  Na52  1  0.10942808  0.41581396  0.11881938  1
  Na  Na53  1  0.10919800  0.41711700  0.36884311  1
  Na  Na54  1  0.10941991  0.41586194  0.61878934  1
  Na  Na55  1  0.10951478  0.41697319  0.86890090  1
  Na  Na56  1  0.10948102  0.74963174  0.11893308  1
  Na  Na57  1  0.10967725  0.75008345  0.37059886  1
  Na  Na58  1  0.11027506  0.74966300  0.61855448  1
  Na  Na59  1  0.10971213  0.75183898  0.86813714  1
  Na  Na60  1  0.60922103  0.08342387  0.11769636  1
  Na  Na61  1  0.61011432  0.08448231  0.36842217  1
  Na  Na62  1  0.60998869  0.08323602  0.61818841  1
  Na  Na63  1  0.60970880  0.08286478  0.86911209  1
  Na  Na64  1  0.60952760  0.41699359  0.11854764  1
  Na  Na65  1  0.60916652  0.41679430  0.36837425  1
  Na  Na66  1  0.60972036  0.41662055  0.61916487  1
  Na  Na67  1  0.60915557  0.41588079  0.86890646  1
  Na  Na68  1  0.60950107  0.75050455  0.11660516  1
  Na  Na69  1  0.60967703  0.74989653  0.36927334  1
  Na  Na70  1  0.61015762  0.74880463  0.61900725  1
  Na  Na71  1  0.61038290  0.74902685  0.86862811  1
  Na  Na72  1  0.39087888  0.25058761  0.13121932  1
  Na  Na73  1  0.39059320  0.25115528  0.37948704  1
  Na  Na74  1  0.39066354  0.25040227  0.63105306  1
  Na  Na75  1  0.39113062  0.24863481  0.88158723  1
  Na  Na76  1  0.38996899  0.58278186  0.13187735  1
  Na  Na77  1  0.38991495  0.58339425  0.38204435  1
  Na  Na78  1  0.39006951  0.58254520  0.63169380  1
  Na  Na79  1  0.39042902  0.58219479  0.88120608  1
  Na  Na80  1  0.39038304  0.91734948  0.13001928  1
  Na  Na81  1  0.39038554  0.91675964  0.38169742  1
  Na  Na82  1  0.39053882  0.91497594  0.63224441  1
  Na  Na83  1  0.39060989  0.91608167  0.88285786  1
  Na  Na84  1  0.89078472  0.24951196  0.13113561  1
  Na  Na85  1  0.89010978  0.25039608  0.38162591  1
  Na  Na86  1  0.89034981  0.24892321  0.63149199  1
  Na  Na87  1  0.89067743  0.25104125  0.87960085  1
  Na  Na88  1  0.88976002  0.58249262  0.13129179  1
  Na  Na89  1  0.88992487  0.58445798  0.38125214  1
  Na  Na90  1  0.89064323  0.58365495  0.63212140  1
  Na  Na91  1  0.89017182  0.58496337  0.88208979  1
  Na  Na92  1  0.88993417  0.91721116  0.13110328  1
  Na  Na93  1  0.89020122  0.91804735  0.38122051  1
  Na  Na94  1  0.89040906  0.91721802  0.63236747  1
  Na  Na95  1  0.89013260  0.91758947  0.88096202  1
  Mn  Mn96  1  -0.00020672  0.00071403  -0.00041196  1
  Mn  Mn97  1  0.75017017  0.50071137  0.37546638  1
  Mn  Mn98  1  0.00006561  0.33267163  0.50000976  1
  Mn  Mn99  1  0.75044899  0.33364587  0.12497143  1
  Mn  Mn100  1  0.49983846  0.83353741  0.24919923  1
  Mn  Mn101  1  0.00018901  0.00054755  0.50045442  1
  Mn  Mn102  1  0.75018425  0.00082962  0.37491786  1
  Mn  Mn103  1  0.00011011  0.49952366  0.75046170  1
  Mn  Mn104  1  0.25005209  0.33454625  0.37412905  1
  Mn  Mn105  1  0.50006928  0.16716348  0.49936734  1
  Mn  Mn106  1  -0.00005080  0.66711399  -0.00005797  1
  Mn  Mn107  1  0.50031638  0.33430731  0.50020677  1
  Mn  Mn108  1  0.25017384  0.66636710  0.87524520  1
  Mn  Mn109  1  0.00011430  0.49918415  0.25044034  1
  Mn  Mn110  1  0.25030560  0.83270230  0.37533766  1
  Mn  Mn111  1  0.50033107  0.66578709  0.49979238  1
  Mn  Mn112  1  0.25055346  0.16592974  0.87419214  1
  Mn  Mn113  1  0.00062859  0.66777390  0.75074914  1
  Mn  Mn114  1  0.74910822  0.33278989  0.37529214  1
  Mn  Mn115  1  0.25051727  0.33448625  0.62401343  1
  Mn  Mn116  1  0.25036848  -0.00190203  0.62561050  1
  Mn  Mn117  1  0.75024542  0.16605830  0.87452553  1
  Mn  Mn118  1  0.24954640  0.33391374  0.12482149  1
  Mn  Mn119  1  -0.00061252  0.66697723  0.50063845  1
  Mn  Mn120  1  0.75021469  0.50063166  0.62538563  1
  Mn  Mn121  1  0.49944585  -0.00047754  0.49961743  1
  Mn  Mn122  1  0.25033746  0.33401114  0.87470992  1
  Mn  Mn123  1  0.74977022  0.66762682  0.37439045  1
  Mn  Mn124  1  0.50033893  0.33284788  0.75025234  1
  Mn  Mn125  1  0.74996424  0.83392798  0.37500416  1
  Mn  Mn126  1  0.24997056  0.83367136  0.12578160  1
  Mn  Mn127  1  0.00055391  0.00123569  0.25031937  1
  Mn  Mn128  1  0.50050374  0.83183376  0.75111712  1
  Mn  Mn129  1  0.50081347  0.00072515  0.24978584  1
  Mn  Mn130  1  0.00016272  0.33293330  -0.00031073  1
  Mn  Mn131  1  0.74933231  0.50119545  0.87505930  1
  Mn  Mn132  1  0.25038859  0.16635592  0.37444742  1
  Mn  Mn133  1  0.49902638  0.66642351  0.25017219  1
  Mn  Mn134  1  0.25020708  0.16602088  0.62443394  1
  Mn  Mn135  1  0.75003708  0.33345699  0.87499459  1
  Mn  Mn136  1  0.75016614  0.16567398  0.12447925  1
  Mn  Mn137  1  -0.00053523  0.66677310  0.25032698  1
  Mn  Mn138  1  0.25035457  0.00068792  0.12412487  1
  Mn  Mn139  1  0.00007380  0.83379763  0.25009246  1
  Mn  Mn140  1  0.74967384  -0.00121115  0.87482999  1
  Mn  Mn141  1  0.50061059  -0.00008423  0.75049649  1
  Mn  Mn142  1  0.49979684  0.49959764  0.00000863  1
  Mn  Mn143  1  0.24939072  0.66605526  0.12540878  1
  Fe  Fe144  1  0.50013439  0.00020215  -0.00015849  1
  Fe  Fe145  1  0.50049760  0.50017873  0.24961851  1
  Fe  Fe146  1  0.00014243  0.00034682  0.74986924  1
  Fe  Fe147  1  0.49995639  0.33385848  0.24972427  1
  Fe  Fe148  1  0.24986612  -0.00103335  0.87506297  1
  Fe  Fe149  1  0.25069044  0.83236463  0.62522896  1
  Fe  Fe150  1  0.75042773  0.83282675  0.87466854  1
  Fe  Fe151  1  -0.00006879  0.83411796  0.74985602  1
  Fe  Fe152  1  0.49981726  0.16734868  0.24875205  1
  Fe  Fe153  1  0.25004731  0.83246112  0.87487794  1
  Fe  Fe154  1  -0.00043261  0.33311408  0.74991140  1
  Fe  Fe155  1  0.74985204  0.16669934  0.62488685  1
  Fe  Fe156  1  0.49996270  0.49961908  0.75049310  1
  Fe  Fe157  1  0.74980444  0.66719001  0.12431866  1
  Fe  Fe158  1  -0.00026424  0.49966986  0.00021867  1
  Fe  Fe159  1  0.50036801  0.16597986  0.75064017  1
  Fe  Fe160  1  0.74935851  0.50077486  0.12483601  1
  Fe  Fe161  1  0.74931038  -0.00070214  0.12513165  1
  Fe  Fe162  1  0.50014976  0.66580731  -0.00002204  1
  Fe  Fe163  1  0.50024347  0.16675211  0.00000929  1
  Fe  Fe164  1  -0.00084538  0.33323470  0.25033828  1
  Fe  Fe165  1  0.24997821  -0.00018495  0.37471905  1
  Fe  Fe166  1  0.50000479  0.83266008  0.50036161  1
  Fe  Fe167  1  0.49992542  0.83260225  -0.00040638  1
  Fe  Fe168  1  0.49974464  0.33297032  0.00011487  1
  Fe  Fe169  1  -0.00001673  0.16715424  -0.00082461  1
  Fe  Fe170  1  0.00039257  0.16678962  0.74976330  1
  Fe  Fe171  1  0.74956226  0.16712947  0.37569118  1
  Fe  Fe172  1  0.24964208  0.66616179  0.37613294  1
  Fe  Fe173  1  -0.00009126  0.83386740  0.50037348  1
  Fe  Fe174  1  0.74990762  0.83349844  0.62547877  1
  Fe  Fe175  1  0.75051154  0.66742518  0.87477550  1
  Fe  Fe176  1  0.50009082  0.66566554  0.74980335  1
  Fe  Fe177  1  0.75006048  0.00007703  0.62495268  1
  Fe  Fe178  1  0.74973892  0.33332650  0.62512868  1
  Fe  Fe179  1  -0.00019866  0.83426617  -0.00025027  1
  Fe  Fe180  1  -0.00021537  0.16716376  0.24967047  1
  Fe  Fe181  1  0.24982409  0.50008714  0.87499583  1
  Fe  Fe182  1  0.24963284  0.50102044  0.37588989  1
  Fe  Fe183  1  0.25047814  0.66618604  0.62585815  1
  Fe  Fe184  1  0.75072299  0.66748841  0.62528872  1
  Fe  Fe185  1  0.25007544  0.50034232  0.12557991  1
  Fe  Fe186  1  0.24926713  0.50045839  0.62517679  1
  Fe  Fe187  1  0.24961822  0.16664039  0.12444447  1
  Fe  Fe188  1  0.50015158  0.49996649  0.50020117  1
  Fe  Fe189  1  0.74980023  0.83307440  0.12404254  1
  Fe  Fe190  1  0.00035439  0.16689164  0.50017574  1
  Fe  Fe191  1  -0.00054195  0.49952333  0.50041941  1
  P  P192  1  0.04224901  0.24837861  0.10258809  1
  P  P193  1  0.04143584  0.25015362  0.35169760  1
  P  P194  1  0.04253613  0.24817582  0.60312224  1
  P  P195  1  0.04179402  0.25014739  0.85142822  1
  P  P196  1  0.04196548  0.58181188  0.10250816  1
  P  P197  1  0.04209426  0.58326084  0.35413969  1
  P  P198  1  0.04183424  0.58193128  0.60280401  1
  P  P199  1  0.04267854  0.58362449  0.85384791  1
  P  P200  1  0.04247231  0.91623264  0.10199399  1
  P  P201  1  0.04290109  0.91717368  0.35376872  1
  P  P202  1  0.04205148  0.91549157  0.60332903  1
  P  P203  1  0.04106853  0.91721273  0.85165405  1
  P  P204  1  0.54126339  0.25026722  0.10203390  1
  P  P205  1  0.54148570  0.25037221  0.35074712  1
  P  P206  1  0.54297748  0.25000170  0.60339517  1
  P  P207  1  0.54248973  0.24810609  0.85323036  1
  P  P208  1  0.54199777  0.58392563  0.10256524  1
  P  P209  1  0.54218601  0.58200201  0.35254496  1
  P  P210  1  0.54197489  0.58170504  0.60343555  1
  P  P211  1  0.54151058  0.58312206  0.85191132  1
  P  P212  1  0.54104414  0.91671497  0.10085884  1
  P  P213  1  0.54293619  0.91644445  0.35321650  1
  P  P214  1  0.54201343  0.91503936  0.60264107  1
  P  P215  1  0.54268814  0.91628137  0.85431220  1
  P  P216  1  0.45828219  0.08475143  0.14617332  1
  P  P217  1  0.45731585  0.08396564  0.39590467  1
  P  P218  1  0.45789883  0.08413059  0.64790602  1
  P  P219  1  0.45900408  0.08351728  0.89827328  1
  P  P220  1  0.45867113  0.41673578  0.14812489  1
  P  P221  1  0.45804969  0.41828930  0.39683275  1
  P  P222  1  0.45799055  0.41794181  0.64772292  1
  P  P223  1  0.45782089  0.41503700  0.89752379  1
  P  P224  1  0.45712863  0.74968807  0.14566882  1
  P  P225  1  0.45746646  0.75071427  0.39786641  1
  P  P226  1  0.45821985  0.74809854  0.64762167  1
  P  P227  1  0.45905443  0.74827288  0.89813908  1
  P  P228  1  0.95780476  0.08480330  0.14711032  1
  P  P229  1  0.95780052  0.08549413  0.39765393  1
  P  P230  1  0.95892300  0.08353558  0.64824423  1
  P  P231  1  0.95782573  0.08530102  0.89634618  1
  P  P232  1  0.95750462  0.41506216  0.14745343  1
  P  P233  1  0.95725544  0.41722938  0.39774177  1
  P  P234  1  0.95766924  0.41505496  0.64732914  1
  P  P235  1  0.95746992  0.41760684  0.89741794  1
  P  P236  1  0.95720742  0.75027805  0.14624159  1
  P  P237  1  0.95710722  0.75179883  0.39809447  1
  P  P238  1  0.95831573  0.75169141  0.64757599  1
  P  P239  1  0.95800054  0.75248546  0.89718735  1
  P  P240  1  0.20764133  0.08450332  0.22718928  1
  P  P241  1  0.20788938  0.08138498  0.47722129  1
  P  P242  1  0.20789991  0.08208764  0.72842407  1
  P  P243  1  0.20777743  0.08205113  0.97692100  1
  P  P244  1  0.20766279  0.41889206  0.22796511  1
  P  P245  1  0.20750332  0.41853797  0.47762883  1
  P  P246  1  0.20777347  0.41840940  0.72760789  1
  P  P247  1  0.20785895  0.41810632  0.97775636  1
  P  P248  1  0.20697466  0.74968854  0.22911320  1
  P  P249  1  0.20822408  0.74814264  0.47891275  1
  P  P250  1  0.20892140  0.74985558  0.72708433  1
  P  P251  1  0.20759029  0.75052173  0.97748915  1
  P  P252  1  0.70717158  0.08197739  0.22741413  1
  P  P253  1  0.70800071  0.08502504  0.47844600  1
  P  P254  1  0.70874098  0.08289859  0.72626788  1
  P  P255  1  0.70747590  0.08221793  0.97818968  1
  P  P256  1  0.70775962  0.41795274  0.22728709  1
  P  P257  1  0.70722669  0.41677837  0.47883031  1
  P  P258  1  0.70763052  0.41584055  0.72750471  1
  P  P259  1  0.70715621  0.41757198  0.97858447  1
  P  P260  1  0.70791681  0.75018225  0.22558061  1
  P  P261  1  0.70744141  0.75054695  0.47906808  1
  P  P262  1  0.70886907  0.75003611  0.72734620  1
  P  P263  1  0.70884632  0.75013700  0.97687255  1
  P  P264  1  0.29212061  0.24876803  0.02243528  1
  P  P265  1  0.29232834  0.25041657  0.27073351  1
  P  P266  1  0.29311445  0.25010984  0.52123086  1
  P  P267  1  0.29323973  0.25045366  0.77149824  1
  P  P268  1  0.29233896  0.58169497  0.02261371  1
  P  P269  1  0.29141688  0.58357556  0.27390555  1
  P  P270  1  0.29125883  0.58327637  0.52348593  1
  P  P271  1  0.29203483  0.58218206  0.77218423  1
  P  P272  1  0.29246619  0.91615790  0.02087205  1
  P  P273  1  0.29267140  0.91803567  0.27273518  1
  P  P274  1  0.29276079  0.91432700  0.52262073  1
  P  P275  1  0.29208091  0.91537254  0.77361985  1
  P  P276  1  0.79310282  0.24995980  0.02175121  1
  P  P277  1  0.79176461  0.24848746  0.27280715  1
  P  P278  1  0.79132412  0.25009557  0.52346564  1
  P  P279  1  0.79226300  0.24984859  0.77061812  1
  P  P280  1  0.79127514  0.58432167  0.02295565  1
  P  P281  1  0.79238232  0.58377069  0.27084093  1
  P  P282  1  0.79281602  0.58522953  0.52303174  1
  P  P283  1  0.79232407  0.58536978  0.77229304  1
  P  P284  1  0.79115866  0.91640943  0.02296117  1
  P  P285  1  0.79263484  0.91689202  0.27101426  1
  P  P286  1  0.79154241  0.91709933  0.52395960  1
  P  P287  1  0.79190560  0.91490274  0.77169505  1
  O  O288  1  0.03679013  0.24850559  0.18238505  1
  O  O289  1  0.03682025  0.24987339  0.43168845  1
  O  O290  1  0.03726786  0.24846053  0.68294756  1
  O  O291  1  0.03663725  0.25007428  0.93136923  1
  O  O292  1  0.03682111  0.58204161  0.18247858  1
  O  O293  1  0.03654835  0.58293590  0.43403188  1
  O  O294  1  0.03695546  0.58222721  0.68277508  1
  O  O295  1  0.03731597  0.58326888  0.93373774  1
  O  O296  1  0.03757589  0.91688466  0.18194533  1
  O  O297  1  0.03751627  0.91695974  0.43368437  1
  O  O298  1  0.03668779  0.91570123  0.68320872  1
  O  O299  1  0.03626084  0.91718980  0.93161141  1
  O  O300  1  0.53590799  0.25036614  0.18187944  1
  O  O301  1  0.53690304  0.25092661  0.43073172  1
  O  O302  1  0.53804832  0.24944273  0.68331404  1
  O  O303  1  0.53707143  0.24843606  0.93308490  1
  O  O304  1  0.53702617  0.58358261  0.18246751  1
  O  O305  1  0.53710127  0.58189548  0.43251705  1
  O  O306  1  0.53644985  0.58205319  0.68328246  1
  O  O307  1  0.53628351  0.58365209  0.93184889  1
  O  O308  1  0.53668790  0.91690848  0.18085661  1
  O  O309  1  0.53764751  0.91580650  0.43316305  1
  O  O310  1  0.53710398  0.91518104  0.68262761  1
  O  O311  1  0.53727791  0.91654285  0.93414504  1
  O  O312  1  0.46389735  0.08439239  0.06630014  1
  O  O313  1  0.46275680  0.08433995  0.31597940  1
  O  O314  1  0.46273532  0.08372602  0.56791836  1
  O  O315  1  0.46380406  0.08350641  0.81830778  1
  O  O316  1  0.46325425  0.41599049  0.06816153  1
  O  O317  1  0.46357381  0.41816986  0.31700012  1
  O  O318  1  0.46319845  0.41822427  0.56779676  1
  O  O319  1  0.46326050  0.41569530  0.81768416  1
  O  O320  1  0.46252069  0.74931355  0.06577125  1
  O  O321  1  0.46212798  0.75045945  0.31785969  1
  O  O322  1  0.46322557  0.74888818  0.56771028  1
  O  O323  1  0.46400872  0.74786349  0.81818435  1
  O  O324  1  0.96276815  0.08470658  0.06713862  1
  O  O325  1  0.96294065  0.08559245  0.31770573  1
  O  O326  1  0.96359874  0.08332487  0.56832510  1
  O  O327  1  0.96345708  0.08489725  0.81652518  1
  O  O328  1  0.96258070  0.41547316  0.06754187  1
  O  O329  1  0.96238574  0.41647924  0.31781646  1
  O  O330  1  0.96304390  0.41567983  0.56741797  1
  O  O331  1  0.96264445  0.41679844  0.81750836  1
  O  O332  1  0.96252274  0.75059410  0.06630301  1
  O  O333  1  0.96235216  0.75121496  0.31812702  1
  O  O334  1  0.96326979  0.75150895  0.56765789  1
  O  O335  1  0.96353467  0.75269037  0.81727214  1
  O  O336  1  0.21276701  0.08297831  0.05687179  1
  O  O337  1  0.21280694  0.08377614  0.30709104  1
  O  O338  1  0.21309443  0.08136705  0.55717072  1
  O  O339  1  0.21310136  0.08168890  0.80832845  1
  O  O340  1  0.21303737  0.41806812  0.05771572  1
  O  O341  1  0.21285342  0.41906815  0.30789753  1
  O  O342  1  0.21264896  0.41832859  0.55758612  1
  O  O343  1  0.21308462  0.41839714  0.80754350  1
  O  O344  1  0.21227814  0.75024980  0.05745957  1
  O  O345  1  0.21236370  0.74919792  0.30903918  1
  O  O346  1  0.21391730  0.74828100  0.55875908  1
  O  O347  1  0.21388634  0.75050886  0.80705224  1
  O  O348  1  0.71253558  0.08163265  0.05809068  1
  O  O349  1  0.71224708  0.08277164  0.30734483  1
  O  O350  1  0.71350762  0.08511241  0.55829803  1
  O  O351  1  0.71354367  0.08245822  0.80623718  1
  O  O352  1  0.71257992  0.41820979  0.05851670  1
  O  O353  1  0.71273489  0.41757871  0.30728083  1
  O  O354  1  0.71268714  0.41631297  0.55875379  1
  O  O355  1  0.71268661  0.41627856  0.80747660  1
  O  O356  1  0.71381088  0.75010649  0.05673974  1
  O  O357  1  0.71244714  0.75060211  0.30559853  1
  O  O358  1  0.71288289  0.75043707  0.55895327  1
  O  O359  1  0.71427194  0.75001243  0.80723661  1
  O  O360  1  0.28676233  0.25003769  0.19082801  1
  O  O361  1  0.28782998  0.25017561  0.44125948  1
  O  O362  1  0.28829891  0.25050306  0.69152609  1
  O  O363  1  0.28732611  0.24911356  0.94246144  1
  O  O364  1  0.28646927  0.58324632  0.19393562  1
  O  O365  1  0.28582670  0.58340995  0.44362325  1
  O  O366  1  0.28653447  0.58260495  0.69236286  1
  O  O367  1  0.28723347  0.58163099  0.94268511  1
  O  O368  1  0.28758284  0.91797885  0.19276930  1
  O  O369  1  0.28771347  0.91499311  0.44277985  1
  O  O370  1  0.28725000  0.91476761  0.69361497  1
  O  O371  1  0.28714902  0.91594092  0.94096336  1
  O  O372  1  0.78706264  0.24876949  0.19285890  1
  O  O373  1  0.78593028  0.24967111  0.44349458  1
  O  O374  1  0.78658155  0.24984102  0.69073552  1
  O  O375  1  0.78814412  0.25002303  0.94179431  1
  O  O376  1  0.78692626  0.58343186  0.19093727  1
  O  O377  1  0.78768294  0.58488530  0.44307205  1
  O  O378  1  0.78727462  0.58536700  0.69236034  1
  O  O379  1  0.78637266  0.58469184  0.94296195  1
  O  O380  1  0.78732481  0.91682630  0.19114966  1
  O  O381  1  0.78697841  0.91750576  0.44395915  1
  O  O382  1  0.78652916  0.91489320  0.69188751  1
  O  O383  1  0.78639734  0.91566107  0.94299672  1
  O  O384  1  0.22770874  0.24885913  0.05770205  1
  O  O385  1  0.22813066  0.25045361  0.30642422  1
  O  O386  1  0.22868675  0.25024329  0.55630986  1
  O  O387  1  0.22875419  0.25024708  0.80636669  1
  O  O388  1  0.22796278  0.58132226  0.05820340  1
  O  O389  1  0.22720262  0.58387977  0.30986533  1
  O  O390  1  0.22729577  0.58363707  0.56014950  1
  O  O391  1  0.22793546  0.58196801  0.80845389  1
  O  O392  1  0.22823328  0.91655459  0.05655950  1
  O  O393  1  0.22830808  0.91761665  0.30819607  1
  O  O394  1  0.22840944  0.91396462  0.55822489  1
  O  O395  1  0.22775512  0.91538917  0.80931811  1
  O  O396  1  0.72862114  0.24991513  0.05660970  1
  O  O397  1  0.72725045  0.24827781  0.30790179  1
  O  O398  1  0.72722790  0.25005773  0.55961228  1
  O  O399  1  0.72811566  0.24966614  0.80656461  1
  O  O400  1  0.72708288  0.58449077  0.05892676  1
  O  O401  1  0.72811783  0.58377812  0.30657220  1
  O  O402  1  0.72847916  0.58544887  0.55849278  1
  O  O403  1  0.72798152  0.58578124  0.80783399  1
  O  O404  1  0.72696471  0.91718404  0.05886425  1
  O  O405  1  0.72836163  0.91711543  0.30670274  1
  O  O406  1  0.72726523  0.91658280  0.55947020  1
  O  O407  1  0.72779196  0.91437904  0.80788994  1
  O  O408  1  0.27196367  0.08516996  0.19153772  1
  O  O409  1  0.27223503  0.08140588  0.44172275  1
  O  O410  1  0.27223137  0.08235279  0.69311488  1
  O  O411  1  0.27216214  0.08133911  0.94156204  1
  O  O412  1  0.27193498  0.41865014  0.19219532  1
  O  O413  1  0.27181166  0.41865704  0.44201532  1
  O  O414  1  0.27202290  0.41893326  0.69181356  1
  O  O415  1  0.27218482  0.41825541  0.94215100  1
  O  O416  1  0.27129342  0.74961227  0.19366121  1
  O  O417  1  0.27220379  0.74782095  0.44237482  1
  O  O418  1  0.27313733  0.74939264  0.69122444  1
  O  O419  1  0.27203795  0.75081889  0.94226614  1
  O  O420  1  0.77152972  0.08098267  0.19182657  1
  O  O421  1  0.77209052  0.08543470  0.44211455  1
  O  O422  1  0.77296708  0.08350000  0.69068230  1
  O  O423  1  0.77183089  0.08231828  0.94291465  1
  O  O424  1  0.77209034  0.41828709  0.19189610  1
  O  O425  1  0.77148201  0.41643375  0.44332902  1
  O  O426  1  0.77192342  0.41562203  0.69199027  1
  O  O427  1  0.77145194  0.41772686  0.94315612  1
  O  O428  1  0.77224283  0.74959946  0.19017339  1
  O  O429  1  0.77169880  0.75059702  0.44332144  1
  O  O430  1  0.77288798  0.75049589  0.69083455  1
  O  O431  1  0.77294428  0.75009268  0.94052616  1
  O  O432  1  0.02215539  0.08527753  0.18269495  1
  O  O433  1  0.02216632  0.08513306  0.43323929  1
  O  O434  1  0.02307979  0.08388078  0.68411865  1
  O  O435  1  0.02189718  0.08521130  0.93277205  1
  O  O436  1  0.02180596  0.41449717  0.18315109  1
  O  O437  1  0.02157951  0.41770338  0.43341287  1
  O  O438  1  0.02190737  0.41464707  0.68317531  1
  O  O439  1  0.02177699  0.41802638  0.93312543  1
  O  O440  1  0.02152102  0.75000524  0.18175379  1
  O  O441  1  0.02145714  0.75180571  0.43368565  1
  O  O442  1  0.02263081  0.75194032  0.68319489  1
  O  O443  1  0.02218286  0.75228962  0.93311443  1
  O  O444  1  0.52236240  0.08529557  0.18251774  1
  O  O445  1  0.52161946  0.08336632  0.43140902  1
  O  O446  1  0.52237978  0.08451269  0.68318312  1
  O  O447  1  0.52312441  0.08405412  0.93418545  1
  O  O448  1  0.52289676  0.41749741  0.18388225  1
  O  O449  1  0.52220462  0.41873944  0.43314954  1
  O  O450  1  0.52222376  0.41794135  0.68357041  1
  O  O451  1  0.52200797  0.41479654  0.93349187  1
  O  O452  1  0.52140349  0.74950190  0.18132369  1
  O  O453  1  0.52191675  0.75095569  0.43307903  1
  O  O454  1  0.52250756  0.74768709  0.68334792  1
  O  O455  1  0.52316433  0.74826588  0.93418603  1
  O  O456  1  0.47729407  0.24992970  0.06534969  1
  O  O457  1  0.47726092  0.24965736  0.31503951  1
  O  O458  1  0.47858775  0.25046344  0.56814469  1
  O  O459  1  0.47834317  0.24791865  0.81702313  1
  O  O460  1  0.47764966  0.58420861  0.06701933  1
  O  O461  1  0.47781484  0.58141110  0.31697443  1
  O  O462  1  0.47791304  0.58134702  0.56700591  1
  O  O463  1  0.47733597  0.58285615  0.81585714  1
  O  O464  1  0.47687824  0.91641342  0.06528601  1
  O  O465  1  0.47857135  0.91700064  0.31788037  1
  O  O466  1  0.47768233  0.91477414  0.56709983  1
  O  O467  1  0.47850968  0.91623669  0.81849215  1
  O  O468  1  0.97806780  0.24837592  0.06639309  1
  O  O469  1  0.97716475  0.25030992  0.31588474  1
  O  O470  1  0.97826009  0.24816593  0.56718486  1
  O  O471  1  0.97767116  0.25010571  0.81522142  1
  O  O472  1  0.97768075  0.58203386  0.06683931  1
  O  O473  1  0.97787868  0.58306679  0.31841377  1
  O  O474  1  0.97749520  0.58208810  0.56738790  1
  O  O475  1  0.97839760  0.58393557  0.81838794  1
  O  O476  1  0.97800923  0.91613397  0.06667780  1
  O  O477  1  0.97858643  0.91762478  0.31830656  1
  O  O478  1  0.97788674  0.91553147  0.56717375  1
  O  O479  1  0.97694535  0.91687434  0.81572604  1
  O  O480  1  0.07360395  0.31195607  0.07458233  1
  O  O481  1  0.07192365  0.31420118  0.32360724  1
  O  O482  1  0.07381473  0.31164305  0.57478661  1
  O  O483  1  0.07227518  0.31421614  0.82342433  1
  O  O484  1  0.07348654  0.64528962  0.07490522  1
  O  O485  1  0.07291141  0.64708058  0.32621473  1
  O  O486  1  0.07313718  0.64556435  0.57530844  1
  O  O487  1  0.07384531  0.64733094  0.82599778  1
  O  O488  1  0.07355886  0.97972235  0.07372865  1
  O  O489  1  0.07408195  0.98072487  0.32564327  1
  O  O490  1  0.07340512  0.97906682  0.57542796  1
  O  O491  1  0.07130625  0.98135140  0.82337485  1
  O  O492  1  0.57189893  0.31417659  0.07369206  1
  O  O493  1  0.57165238  0.31443435  0.32221709  1
  O  O494  1  0.57398647  0.31368633  0.57541742  1
  O  O495  1  0.57371990  0.31172072  0.82523870  1
  O  O496  1  0.57288141  0.64740390  0.07390403  1
  O  O497  1  0.57263454  0.64624682  0.32498220  1
  O  O498  1  0.57309846  0.64534340  0.57528211  1
  O  O499  1  0.57257638  0.64651422  0.82328011  1
  O  O500  1  0.57174578  0.98055912  0.07283396  1
  O  O501  1  0.57419890  0.98006171  0.32542847  1
  O  O502  1  0.57291755  0.97886763  0.57497414  1
  O  O503  1  0.57410902  0.97949314  0.82559871  1
  O  O504  1  0.42720831  0.02104694  0.17414223  1
  O  O505  1  0.42600993  0.02050062  0.42404004  1
  O  O506  1  0.42712895  0.02027157  0.67587660  1
  O  O507  1  0.42883425  0.01927059  0.92647001  1
  O  O508  1  0.42828356  0.35298470  0.17704117  1
  O  O509  1  0.42716141  0.35439569  0.42474078  1
  O  O510  1  0.42699886  0.35402925  0.67517735  1
  O  O511  1  0.42706187  0.35136643  0.92581282  1
  O  O512  1  0.42562400  0.68658347  0.17452853  1
  O  O513  1  0.42669804  0.68684597  0.42568253  1
  O  O514  1  0.42745327  0.68435449  0.67575881  1
  O  O515  1  0.42751507  0.68509435  0.92648423  1
  O  O516  1  0.92722705  0.02079840  0.17506454  1
  O  O517  1  0.92650788  0.02184667  0.42543791  1
  O  O518  1  0.92869031  0.01943141  0.67677913  1
  O  O519  1  0.92639740  0.02177279  0.92440228  1
  O  O520  1  0.92670379  0.35147029  0.17601626  1
  O  O521  1  0.92615923  0.35367787  0.42591578  1
  O  O522  1  0.92696430  0.35132209  0.67556122  1
  O  O523  1  0.92624295  0.35416622  0.92554875  1
  O  O524  1  0.92620191  0.68659785  0.17423362  1
  O  O525  1  0.92582492  0.68829027  0.42596819  1
  O  O526  1  0.92758484  0.68777708  0.67554365  1
  O  O527  1  0.92676464  0.68866288  0.92449252  1
  O  O528  1  0.17654953  0.02095344  0.19887898  1
  O  O529  1  0.17732935  0.01764653  0.44872906  1
  O  O530  1  0.17670017  0.01866501  0.70011335  1
  O  O531  1  0.17686233  0.01837014  0.94863586  1
  O  O532  1  0.17653365  0.35509767  0.20020293  1
  O  O533  1  0.17653678  0.35473827  0.44957972  1
  O  O534  1  0.17710833  0.35441417  0.69969729  1
  O  O535  1  0.17697407  0.35411458  0.94997579  1
  O  O536  1  0.17547789  0.68658665  0.20044536  1
  O  O537  1  0.17692321  0.68480445  0.45034985  1
  O  O538  1  0.17783767  0.68601565  0.69945394  1
  O  O539  1  0.17683546  0.68666435  0.94952227  1
  O  O540  1  0.67600471  0.01851728  0.19904235  1
  O  O541  1  0.67697196  0.02118768  0.45067531  1
  O  O542  1  0.67848191  0.01876630  0.69796952  1
  O  O543  1  0.67613653  0.01908822  0.94942380  1
  O  O544  1  0.67684760  0.35406098  0.19958385  1
  O  O545  1  0.67547861  0.35374274  0.45025938  1
  O  O546  1  0.67668595  0.35230632  0.69925411  1
  O  O547  1  0.67629476  0.35370537  0.95082346  1
  O  O548  1  0.67669034  0.68668047  0.19752524  1
  O  O549  1  0.67614043  0.68719473  0.45040283  1
  O  O550  1  0.67820646  0.68620429  0.69888391  1
  O  O551  1  0.67784898  0.68656517  0.94825902  1
  O  O552  1  0.32328254  0.31240729  0.05036332  1
  O  O553  1  0.32334676  0.31423814  0.29850050  1
  O  O554  1  0.32428881  0.31369486  0.54915519  1
  O  O555  1  0.32411170  0.31404071  0.79984032  1
  O  O556  1  0.32285673  0.64578819  0.05048688  1
  O  O557  1  0.32231605  0.64731956  0.30211628  1
  O  O558  1  0.32274363  0.64660934  0.55192347  1
  O  O559  1  0.32313671  0.64586723  0.80041049  1
  O  O560  1  0.32396337  0.97957359  0.04904965  1
  O  O561  1  0.32291909  0.98195484  0.30120001  1
  O  O562  1  0.32399146  0.97777913  0.55102802  1
  O  O563  1  0.32259958  0.97947703  0.80156009  1
  O  O564  1  0.82412656  0.31349061  0.05001738  1
  O  O565  1  0.82266802  0.31224526  0.30084053  1
  O  O566  1  0.82204214  0.31412880  0.55124956  1
  O  O567  1  0.82345567  0.31333341  0.79897954  1
  O  O568  1  0.82260737  0.64770213  0.05128074  1
  O  O569  1  0.82346752  0.64743564  0.29902470  1
  O  O570  1  0.82376478  0.64870833  0.55147050  1
  O  O571  1  0.82364866  0.64850995  0.80107245  1
  O  O572  1  0.82248597  0.97995255  0.05085721  1
  O  O573  1  0.82406113  0.98011471  0.29978292  1
  O  O574  1  0.82180113  0.98121980  0.55237330  1
  O  O575  1  0.82278252  0.97886397  0.79952847  1
  O  O576  1  0.42720813  0.14812403  0.17466987  1
  O  O577  1  0.42632443  0.14737232  0.42423839  1
  O  O578  1  0.42716919  0.14759675  0.67641016  1
  O  O579  1  0.42737490  0.14656479  0.92658364  1
  O  O580  1  0.42762514  0.48037729  0.17604153  1
  O  O581  1  0.42685207  0.48136619  0.42585727  1
  O  O582  1  0.42700937  0.48108367  0.67676257  1
  O  O583  1  0.42667977  0.47848609  0.92569770  1
  O  O584  1  0.42615241  0.81329347  0.17387699  1
  O  O585  1  0.42680905  0.81415395  0.42650181  1
  O  O586  1  0.42718011  0.81143218  0.67625554  1
  O  O587  1  0.42879105  0.81250110  0.92607489  1
  O  O588  1  0.92656584  0.14784026  0.17596655  1
  O  O589  1  0.92730873  0.14890906  0.42672249  1
  O  O590  1  0.92753208  0.14673161  0.67645494  1
  O  O591  1  0.92707651  0.14880322  0.92492065  1
  O  O592  1  0.92649473  0.47858174  0.17554983  1
  O  O593  1  0.92653420  0.48086419  0.42609430  1
  O  O594  1  0.92650085  0.47850495  0.67545611  1
  O  O595  1  0.92687968  0.48137699  0.92571281  1
  O  O596  1  0.92614353  0.81362480  0.17459458  1
  O  O597  1  0.92661534  0.81555175  0.42628241  1
  O  O598  1  0.92719637  0.81489282  0.67618354  1
  O  O599  1  0.92714260  0.81579696  0.92599767  1
  O  O600  1  0.07303085  0.18510884  0.07337440  1
  O  O601  1  0.07239878  0.18675358  0.32317791  1
  O  O602  1  0.07325633  0.18474794  0.57414884  1
  O  O603  1  0.07296618  0.18672955  0.82334705  1
  O  O604  1  0.07224885  0.51796608  0.07418029  1
  O  O605  1  0.07359449  0.52017902  0.32574024  1
  O  O606  1  0.07206004  0.51811397  0.57438038  1
  O  O607  1  0.07386304  0.52043470  0.82533067  1
  O  O608  1  0.07296413  0.85248677  0.07375900  1
  O  O609  1  0.07399207  0.85382636  0.32544827  1
  O  O610  1  0.07281818  0.85206712  0.57448349  1
  O  O611  1  0.07251515  0.85400093  0.82337244  1
  O  O612  1  0.57267131  0.18692827  0.07381428  1
  O  O613  1  0.57267744  0.18691035  0.32286442  1
  O  O614  1  0.57391973  0.18679423  0.57447649  1
  O  O615  1  0.57330963  0.18466167  0.82443510  1
  O  O616  1  0.57288698  0.52038618  0.07428446  1
  O  O617  1  0.57355969  0.51913214  0.32354208  1
  O  O618  1  0.57316038  0.51848743  0.57479518  1
  O  O619  1  0.57226640  0.51915375  0.82427217  1
  O  O620  1  0.57173943  0.85293783  0.07266771  1
  O  O621  1  0.57389415  0.85318520  0.32426226  1
  O  O622  1  0.57267355  0.85142922  0.57433700  1
  O  O623  1  0.57374316  0.85272662  0.82615207  1
  O  O624  1  0.32248004  0.18502874  0.05072681  1
  O  O625  1  0.32379972  0.18734974  0.29904780  1
  O  O626  1  0.32396179  0.18651293  0.54924534  1
  O  O627  1  0.32433959  0.18704480  0.79959113  1
  O  O628  1  0.32349985  0.51866379  0.05156338  1
  O  O629  1  0.32216741  0.52001831  0.30236050  1
  O  O630  1  0.32186844  0.51945927  0.55165750  1
  O  O631  1  0.32302120  0.51891004  0.80088208  1
  O  O632  1  0.32341239  0.85283428  0.04963697  1
  O  O633  1  0.32401820  0.85455722  0.30031555  1
  O  O634  1  0.32332163  0.85071178  0.55119799  1
  O  O635  1  0.32307207  0.85197714  0.80212894  1
  O  O636  1  0.82403229  0.18647210  0.04984492  1
  O  O637  1  0.82232123  0.18500144  0.30146023  1
  O  O638  1  0.82252752  0.18672471  0.55167576  1
  O  O639  1  0.82356289  0.18648711  0.79879871  1
  O  O640  1  0.82157035  0.52028567  0.05101997  1
  O  O641  1  0.82368170  0.52066807  0.29973472  1
  O  O642  1  0.82368585  0.52151267  0.55085231  1
  O  O643  1  0.82285791  0.52138132  0.80008920  1
  O  O644  1  0.82128513  0.85250391  0.05166737  1
  O  O645  1  0.82356129  0.85341210  0.29955886  1
  O  O646  1  0.82269420  0.85375910  0.55202503  1
  O  O647  1  0.82312679  0.85193120  0.80085955  1
  O  O648  1  0.17692161  0.14809022  0.19878585  1
  O  O649  1  0.17684358  0.14507956  0.44966834  1
  O  O650  1  0.17687525  0.14564219  0.70036970  1
  O  O651  1  0.17681838  0.14552040  0.94863971  1
  O  O652  1  0.17685634  0.48217766  0.19920755  1
  O  O653  1  0.17658307  0.48190145  0.44923579  1
  O  O654  1  0.17645115  0.48150821  0.69903982  1
  O  O655  1  0.17688589  0.48124422  0.94890101  1
  O  O656  1  0.17626226  0.81352093  0.20130186  1
  O  O657  1  0.17711664  0.81170947  0.45093803  1
  O  O658  1  0.17821793  0.81332009  0.69831291  1
  O  O659  1  0.17680028  0.81384252  0.94879221  1
  O  O660  1  0.67656651  0.14562699  0.19900643  1
  O  O661  1  0.67689912  0.14823788  0.44950024  1
  O  O662  1  0.67735975  0.14623810  0.69850088  1
  O  O663  1  0.67672767  0.14599681  0.95032697  1
  O  O664  1  0.67693729  0.48138535  0.19883428  1
  O  O665  1  0.67664769  0.48065203  0.45102189  1
  O  O666  1  0.67685225  0.47969437  0.69994244  1
  O  O667  1  0.67567566  0.48060480  0.94997782  1
  O  O668  1  0.67774432  0.81405911  0.19688991  1
  O  O669  1  0.67641716  0.81394990  0.45057033  1
  O  O670  1  0.67747006  0.81337571  0.69915132  1
  O  O671  1  0.67809623  0.81375101  0.94839653  1
