# generated using pymatgen
data_Na2MnFe(PO4)2
_symmetry_space_group_name_H-M   'P 1'
_cell_length_a   22.34134639
_cell_length_b   20.09557509
_cell_length_c   19.45177052
_cell_angle_alpha   89.99942385
_cell_angle_beta   89.89730362
_cell_angle_gamma   89.98606668
_symmetry_Int_Tables_number   1
_chemical_formula_structural   Na2MnFe(PO4)2
_chemical_formula_sum   'Na96 Mn48 Fe48 P96 O384'
_cell_volume   8733.09547837
_cell_formula_units_Z   48
loop_
 _symmetry_equiv_pos_site_id
 _symmetry_equiv_pos_as_xyz
  1  'x, y, z'
loop_
 _atom_site_type_symbol
 _atom_site_label
 _atom_site_symmetry_multiplicity
 _atom_site_fract_x
 _atom_site_fract_y
 _atom_site_fract_z
 _atom_site_occupancy
  Na  Na0  1  0.14098830  0.25011250  0.24373792  1
  Na  Na1  1  0.14098645  0.24966655  0.49496915  1
  Na  Na2  1  0.14034043  0.24889744  0.74283453  1
  Na  Na3  1  0.14064047  0.24820667  0.99402380  1
  Na  Na4  1  0.14064678  0.58282672  0.24485568  1
  Na  Na5  1  0.14029002  0.58317043  0.49444416  1
  Na  Na6  1  0.14083876  0.58311307  0.74317022  1
  Na  Na7  1  0.14078231  0.58191821  0.99442737  1
  Na  Na8  1  0.14089859  0.91753644  0.24436346  1
  Na  Na9  1  0.14073951  0.91727971  0.49428811  1
  Na  Na10  1  0.14120911  0.91653563  0.74229246  1
  Na  Na11  1  0.14123563  0.91490351  0.99322531  1
  Na  Na12  1  0.64076394  0.24982765  0.24404076  1
  Na  Na13  1  0.64091699  0.25102348  0.49297873  1
  Na  Na14  1  0.64085463  0.24978638  0.74299805  1
  Na  Na15  1  0.64034060  0.24952831  0.99478932  1
  Na  Na16  1  0.64045517  0.58254645  0.24351969  1
  Na  Na17  1  0.64043853  0.58268258  0.49401941  1
  Na  Na18  1  0.64028825  0.58530484  0.74311253  1
  Na  Na19  1  0.64003198  0.58569570  0.99350780  1
  Na  Na20  1  0.64028930  0.91695016  0.24164073  1
  Na  Na21  1  0.64052070  0.91775613  0.49406565  1
  Na  Na22  1  0.64102770  0.91753503  0.74336782  1
  Na  Na23  1  0.64081394  0.91707832  0.99273005  1
  Na  Na24  1  0.35924155  0.08172187  0.00617106  1
  Na  Na25  1  0.35938835  0.08321860  0.25647306  1
  Na  Na26  1  0.35944032  0.08309751  0.50633546  1
  Na  Na27  1  0.35994302  0.08274752  0.75548325  1
  Na  Na28  1  0.35881297  0.41525483  0.00766395  1
  Na  Na29  1  0.35935264  0.41619946  0.25713750  1
  Na  Na30  1  0.36001486  0.41740152  0.50683432  1
  Na  Na31  1  0.35936204  0.41659620  0.75523870  1
  Na  Na32  1  0.36031196  0.74828934  0.00713681  1
  Na  Na33  1  0.35981873  0.75025955  0.25661900  1
  Na  Na34  1  0.35909077  0.75041109  0.50612612  1
  Na  Na35  1  0.35956384  0.75025125  0.75657730  1
  Na  Na36  1  0.85912119  0.08493292  0.00551950  1
  Na  Na37  1  0.85938328  0.08399129  0.25549908  1
  Na  Na38  1  0.85921068  0.08327865  0.50701444  1
  Na  Na39  1  0.85933216  0.08355519  0.75636582  1
  Na  Na40  1  0.85884023  0.41683631  0.00591663  1
  Na  Na41  1  0.85872451  0.41535335  0.25690959  1
  Na  Na42  1  0.85948781  0.41713628  0.50749819  1
  Na  Na43  1  0.85940433  0.41754598  0.75672668  1
  Na  Na44  1  0.85935051  0.75114621  0.00481043  1
  Na  Na45  1  0.85899375  0.74909314  0.25570757  1
  Na  Na46  1  0.85847434  0.75043460  0.50792127  1
  Na  Na47  1  0.85919193  0.75159170  0.75612857  1
  Na  Na48  1  0.11037200  0.08364635  0.11883489  1
  Na  Na49  1  0.11064178  0.08283967  0.36940688  1
  Na  Na50  1  0.11061256  0.08362233  0.61829081  1
  Na  Na51  1  0.11007128  0.08306971  0.86785940  1
  Na  Na52  1  0.11019256  0.41556998  0.11875966  1
  Na  Na53  1  0.11009758  0.41729565  0.36946573  1
  Na  Na54  1  0.10965657  0.41639994  0.61953692  1
  Na  Na55  1  0.10942417  0.41524870  0.86904412  1
  Na  Na56  1  0.11003410  0.74991206  0.11924637  1
  Na  Na57  1  0.10959912  0.74967105  0.36969104  1
  Na  Na58  1  0.11016107  0.75016934  0.61817016  1
  Na  Na59  1  0.11037683  0.74850883  0.86777116  1
  Na  Na60  1  0.61030555  0.08188357  0.11798699  1
  Na  Na61  1  0.60988557  0.08383948  0.36740313  1
  Na  Na62  1  0.61060922  0.08398855  0.61809198  1
  Na  Na63  1  0.61050562  0.08338848  0.86809470  1
  Na  Na64  1  0.60962000  0.41625933  0.11965218  1
  Na  Na65  1  0.61042495  0.41750757  0.36878051  1
  Na  Na66  1  0.60979461  0.41747705  0.61767893  1
  Na  Na67  1  0.60912176  0.41825570  0.86928378  1
  Na  Na68  1  0.60966086  0.74941950  0.11822787  1
  Na  Na69  1  0.60943661  0.75054874  0.36847632  1
  Na  Na70  1  0.61032662  0.74929183  0.61895543  1
  Na  Na71  1  0.61037588  0.75124897  0.86800432  1
  Na  Na72  1  0.38967657  0.24870440  0.13278724  1
  Na  Na73  1  0.39017941  0.25080485  0.38179048  1
  Na  Na74  1  0.39021837  0.25006333  0.63104697  1
  Na  Na75  1  0.39026340  0.24944669  0.88028916  1
  Na  Na76  1  0.39016001  0.58336838  0.13242725  1
  Na  Na77  1  0.38997455  0.58331025  0.38152309  1
  Na  Na78  1  0.39006541  0.58340902  0.63084210  1
  Na  Na79  1  0.39018646  0.58522052  0.88185148  1
  Na  Na80  1  0.39064795  0.91458835  0.13148766  1
  Na  Na81  1  0.39059063  0.91701743  0.38022817  1
  Na  Na82  1  0.38984723  0.91628070  0.63214582  1
  Na  Na83  1  0.39035173  0.91625316  0.88109438  1
  Na  Na84  1  0.88929078  0.24934920  0.13123995  1
  Na  Na85  1  0.88953597  0.24958339  0.38249256  1
  Na  Na86  1  0.89020626  0.25031269  0.63183247  1
  Na  Na87  1  0.88993526  0.24984679  0.88038523  1
  Na  Na88  1  0.88975567  0.58346991  0.13090968  1
  Na  Na89  1  0.88955752  0.58274459  0.38202734  1
  Na  Na90  1  0.88965443  0.58328261  0.63251070  1
  Na  Na91  1  0.89001931  0.58353509  0.87998349  1
  Na  Na92  1  0.89019495  0.91742558  0.12983794  1
  Na  Na93  1  0.88977992  0.91702817  0.38125248  1
  Na  Na94  1  0.88973459  0.91828410  0.63209735  1
  Na  Na95  1  0.88991283  0.91742513  0.88061358  1
  Mn  Mn96  1  -0.00024355  0.33305858  0.25043088  1
  Mn  Mn97  1  0.49905605  0.50131633  0.74984927  1
  Mn  Mn98  1  0.00104167  0.00078982  -0.00035978  1
  Mn  Mn99  1  0.74956246  0.83369598  0.37459075  1
  Mn  Mn100  1  0.49899972  0.50127919  -0.00000366  1
  Mn  Mn101  1  -0.00023215  0.16642121  0.25076098  1
  Mn  Mn102  1  0.25024014  0.83240912  0.87437273  1
  Mn  Mn103  1  0.75000945  0.83373184  0.12396402  1
  Mn  Mn104  1  0.25051531  0.50042031  0.62538475  1
  Mn  Mn105  1  0.50003358  0.16659154  0.25008292  1
  Mn  Mn106  1  -0.00018344  0.83337657  0.25024245  1
  Mn  Mn107  1  0.74999494  0.33350763  0.62508183  1
  Mn  Mn108  1  0.74970496  0.50009893  0.12498643  1
  Mn  Mn109  1  0.49981755  -0.00133302  -0.00036622  1
  Mn  Mn110  1  0.24972621  0.49966634  0.87533548  1
  Mn  Mn111  1  -0.00107577  0.66616583  0.50042513  1
  Mn  Mn112  1  0.49961584  0.33327913  -0.00004596  1
  Mn  Mn113  1  0.00049810  0.33408548  0.50141543  1
  Mn  Mn114  1  0.00018571  0.83329151  -0.00027250  1
  Mn  Mn115  1  0.50040699  -0.00023302  0.49932454  1
  Mn  Mn116  1  0.49996399  0.83326309  0.49988895  1
  Mn  Mn117  1  0.50014408  0.83311029  0.75012573  1
  Mn  Mn118  1  0.00027784  0.66642836  0.74947108  1
  Mn  Mn119  1  0.25004882  0.83367694  0.37592505  1
  Mn  Mn120  1  0.74915576  0.50176317  0.87586076  1
  Mn  Mn121  1  0.25025138  -0.00056235  0.12514707  1
  Mn  Mn122  1  0.00009705  0.66624157  -0.00089660  1
  Mn  Mn123  1  0.49965043  0.16744875  0.49923223  1
  Mn  Mn124  1  0.49917743  0.66610564  0.49914849  1
  Mn  Mn125  1  -0.00030744  0.66637814  0.25036486  1
  Mn  Mn126  1  0.00012138  0.00013588  0.24964511  1
  Mn  Mn127  1  -0.00113295  0.33197337  -0.00111588  1
  Mn  Mn128  1  0.00075108  0.16642339  0.50070456  1
  Mn  Mn129  1  0.49983363  0.16599771  0.00030610  1
  Mn  Mn130  1  0.49977000  0.50007757  0.25006614  1
  Mn  Mn131  1  0.50116215  0.16633596  0.74971914  1
  Mn  Mn132  1  -0.00049210  0.49924116  -0.00023004  1
  Mn  Mn133  1  -0.00029534  0.49977638  0.24993299  1
  Mn  Mn134  1  0.25080978  0.16518626  0.87428444  1
  Mn  Mn135  1  0.75017007  0.00115419  0.37447774  1
  Mn  Mn136  1  0.00032417  0.00055096  0.75038288  1
  Mn  Mn137  1  0.74911402  0.66574919  0.37601369  1
  Mn  Mn138  1  0.24988921  0.66577224  0.12593038  1
  Mn  Mn139  1  0.74885582  0.33329837  0.87504629  1
  Mn  Mn140  1  -0.00082096  0.83428572  0.49955972  1
  Mn  Mn141  1  0.25007486  0.33209447  0.87554085  1
  Mn  Mn142  1  0.50006243  0.33394996  0.74982748  1
  Mn  Mn143  1  0.25008047  0.33305537  0.37521297  1
  Fe  Fe144  1  0.25019602  0.33254704  0.12580462  1
  Fe  Fe145  1  0.50035918  0.33402332  0.49998657  1
  Fe  Fe146  1  0.00047968  0.83377619  0.74944120  1
  Fe  Fe147  1  0.74992720  0.83423392  0.87427063  1
  Fe  Fe148  1  0.75009394  0.66683846  0.12473443  1
  Fe  Fe149  1  0.00006346  0.16692894  -0.00062621  1
  Fe  Fe150  1  0.50012112  0.66687973  0.25026480  1
  Fe  Fe151  1  0.25023784  0.49947837  0.12554047  1
  Fe  Fe152  1  -0.00020530  0.33317222  0.75024227  1
  Fe  Fe153  1  -0.00001931  0.00035980  0.50081548  1
  Fe  Fe154  1  0.75005859  0.16668101  0.62463312  1
  Fe  Fe155  1  0.75045313  0.00089088  0.12385268  1
  Fe  Fe156  1  0.74983330  0.00088580  0.87439704  1
  Fe  Fe157  1  0.75072417  0.49971024  0.37530376  1
  Fe  Fe158  1  -0.00037019  0.49963672  0.50089524  1
  Fe  Fe159  1  0.50035452  0.66753053  0.00079107  1
  Fe  Fe160  1  0.25063339  0.16615875  0.62466320  1
  Fe  Fe161  1  0.25003339  0.33323674  0.62453767  1
  Fe  Fe162  1  0.74954827  0.33303763  0.12585221  1
  Fe  Fe163  1  0.74967199  0.16678121  0.37485002  1
  Fe  Fe164  1  0.24967455  0.16593830  0.12549132  1
  Fe  Fe165  1  0.25009830  0.83325966  0.62472883  1
  Fe  Fe166  1  0.75025845  0.66808192  0.87390307  1
  Fe  Fe167  1  -0.00005596  0.16678236  0.74972212  1
  Fe  Fe168  1  0.74954949  0.50027858  0.62517491  1
  Fe  Fe169  1  0.75043013  0.33302022  0.37554679  1
  Fe  Fe170  1  0.25020951  0.66614384  0.87538856  1
  Fe  Fe171  1  0.00019211  0.49956969  0.75027478  1
  Fe  Fe172  1  0.50051228  0.50025444  0.49974773  1
  Fe  Fe173  1  0.24996319  -0.00075166  0.87421091  1
  Fe  Fe174  1  0.50028952  -0.00008680  0.74987702  1
  Fe  Fe175  1  0.74975259  0.83427787  0.62551304  1
  Fe  Fe176  1  0.25060125  0.16657721  0.37528567  1
  Fe  Fe177  1  0.74968979  0.00059713  0.62523170  1
  Fe  Fe178  1  0.25049644  0.00010454  0.37516421  1
  Fe  Fe179  1  0.74988450  0.66732629  0.62507321  1
  Fe  Fe180  1  0.75002658  0.16669153  0.87510591  1
  Fe  Fe181  1  0.49987031  0.33373439  0.25048199  1
  Fe  Fe182  1  0.50072223  0.83264758  0.00032389  1
  Fe  Fe183  1  0.24955831  0.66683710  0.37517740  1
  Fe  Fe184  1  0.50050341  0.83282429  0.24926403  1
  Fe  Fe185  1  0.74966546  0.16708664  0.12484291  1
  Fe  Fe186  1  0.25050255  0.00014163  0.62429938  1
  Fe  Fe187  1  0.50005525  -0.00070997  0.24935779  1
  Fe  Fe188  1  0.49996115  0.66739274  0.75038407  1
  Fe  Fe189  1  0.25040897  0.66674143  0.62487529  1
  Fe  Fe190  1  0.25002350  0.49976738  0.37554241  1
  Fe  Fe191  1  0.25012687  0.83259404  0.12523375  1
  P  P192  1  0.04204108  0.24876299  0.10213033  1
  P  P193  1  0.04319373  0.24990907  0.35379540  1
  P  P194  1  0.04295914  0.25021007  0.60466710  1
  P  P195  1  0.04150370  0.24940734  0.85140944  1
  P  P196  1  0.04290229  0.58295646  0.10293812  1
  P  P197  1  0.04234129  0.58270689  0.35417813  1
  P  P198  1  0.04166292  0.58164176  0.60319602  1
  P  P199  1  0.04271092  0.58168655  0.85194536  1
  P  P200  1  0.04359850  0.91688133  0.10283297  1
  P  P201  1  0.04282182  0.91711474  0.35374819  1
  P  P202  1  0.04207833  0.91787791  0.60295853  1
  P  P203  1  0.04286432  0.91554876  0.85188804  1
  P  P204  1  0.54217209  0.24984960  0.10400788  1
  P  P205  1  0.54191751  0.25205106  0.35281331  1
  P  P206  1  0.54262149  0.25133378  0.60181577  1
  P  P207  1  0.54331332  0.25025144  0.85302439  1
  P  P208  1  0.54191683  0.58490436  0.10306389  1
  P  P209  1  0.54216632  0.58430484  0.35247501  1
  P  P210  1  0.54210110  0.58279049  0.60249969  1
  P  P211  1  0.54201662  0.58579116  0.85296370  1
  P  P212  1  0.54250897  0.91441297  0.10282806  1
  P  P213  1  0.54203195  0.91639842  0.35065889  1
  P  P214  1  0.54257572  0.91678389  0.60353291  1
  P  P215  1  0.54247597  0.91750320  0.85238727  1
  P  P216  1  0.45786769  0.08126872  0.14755042  1
  P  P217  1  0.45743860  0.08306394  0.39596685  1
  P  P218  1  0.45840754  0.08228086  0.64727527  1
  P  P219  1  0.45744052  0.08251558  0.89625518  1
  P  P220  1  0.45721804  0.41555210  0.14799420  1
  P  P221  1  0.45879014  0.41691792  0.39823721  1
  P  P222  1  0.45743483  0.41712009  0.64576476  1
  P  P223  1  0.45623421  0.41743871  0.89704763  1
  P  P224  1  0.45873460  0.74933554  0.14795761  1
  P  P225  1  0.45701289  0.75043745  0.39576701  1
  P  P226  1  0.45759032  0.74860049  0.64763698  1
  P  P227  1  0.45900248  0.75029744  0.89849818  1
  P  P228  1  0.95732491  0.08399369  0.14612693  1
  P  P229  1  0.95756386  0.08211541  0.39831974  1
  P  P230  1  0.95803349  0.08442347  0.64753830  1
  P  P231  1  0.95806869  0.08510221  0.89678658  1
  P  P232  1  0.95646724  0.41593396  0.14684228  1
  P  P233  1  0.95745431  0.41748378  0.39844499  1
  P  P234  1  0.95831015  0.41686439  0.64888296  1
  P  P235  1  0.95658355  0.41619265  0.89554121  1
  P  P236  1  0.95690217  0.74998272  0.14668408  1
  P  P237  1  0.95595392  0.74991101  0.39728411  1
  P  P238  1  0.95778310  0.75159554  0.64760834  1
  P  P239  1  0.95765208  0.75030266  0.89554632  1
  P  P240  1  0.20807736  0.08426537  0.22835046  1
  P  P241  1  0.20946235  0.08331811  0.47726484  1
  P  P242  1  0.20908033  0.08248544  0.72624496  1
  P  P243  1  0.20808434  0.08116544  0.97716493  1
  P  P244  1  0.20891048  0.41671652  0.22728557  1
  P  P245  1  0.20836453  0.41738979  0.47818662  1
  P  P246  1  0.20794357  0.41525483  0.72731426  1
  P  P247  1  0.20734067  0.41560804  0.97929425  1
  P  P248  1  0.20797234  0.75079628  0.22830534  1
  P  P249  1  0.20794632  0.74880406  0.47845575  1
  P  P250  1  0.20888480  0.74962342  0.72652721  1
  P  P251  1  0.20805660  0.74811732  0.97768636  1
  P  P252  1  0.70870279  0.08380159  0.22617885  1
  P  P253  1  0.70760036  0.08493978  0.47776464  1
  P  P254  1  0.70888926  0.08388162  0.72703844  1
  P  P255  1  0.70845408  0.08360854  0.97685031  1
  P  P256  1  0.70796804  0.41527990  0.22857727  1
  P  P257  1  0.70918364  0.41712928  0.47708984  1
  P  P258  1  0.70731245  0.41831000  0.72741450  1
  P  P259  1  0.70659913  0.41689473  0.97880930  1
  P  P260  1  0.70771994  0.74878856  0.22686724  1
  P  P261  1  0.70700943  0.75065774  0.47905517  1
  P  P262  1  0.70891493  0.75102193  0.72704714  1
  P  P263  1  0.70882789  0.75074384  0.97600448  1
  P  P264  1  0.29134083  0.24862713  0.02398458  1
  P  P265  1  0.29220249  0.24876283  0.27230367  1
  P  P266  1  0.29156218  0.24966400  0.52303093  1
  P  P267  1  0.29268628  0.24945703  0.77070958  1
  P  P268  1  0.29250341  0.58164991  0.02308513  1
  P  P269  1  0.29119493  0.58281221  0.27372739  1
  P  P270  1  0.29198349  0.58479365  0.52189778  1
  P  P271  1  0.29231134  0.58465163  0.77255410  1
  P  P272  1  0.29239746  0.91436951  0.02238023  1
  P  P273  1  0.29216293  0.91760834  0.27264840  1
  P  P274  1  0.29170024  0.91698069  0.52311727  1
  P  P275  1  0.29218446  0.91751375  0.77137239  1
  P  P276  1  0.79085487  0.25032881  0.02326115  1
  P  P277  1  0.79124132  0.24962585  0.27309488  1
  P  P278  1  0.79221676  0.24894870  0.52213813  1
  P  P279  1  0.79157737  0.24866856  0.77223840  1
  P  P280  1  0.79185824  0.58550343  0.02199315  1
  P  P281  1  0.79191852  0.58197535  0.27267222  1
  P  P282  1  0.79100942  0.58316357  0.52370527  1
  P  P283  1  0.79150816  0.58525609  0.77160773  1
  P  P284  1  0.79199613  0.91880282  0.02097202  1
  P  P285  1  0.79234461  0.91738839  0.27089798  1
  P  P286  1  0.79113249  0.91726746  0.52375653  1
  P  P287  1  0.79108619  0.91770680  0.77252717  1
  O  O288  1  0.03724308  0.24917440  0.18214923  1
  O  O289  1  0.03867908  0.25014892  0.43382164  1
  O  O290  1  0.03744028  0.25020338  0.68454016  1
  O  O291  1  0.03619361  0.24890620  0.93139466  1
  O  O292  1  0.03789220  0.58310306  0.18296356  1
  O  O293  1  0.03694222  0.58218250  0.43414754  1
  O  O294  1  0.03644230  0.58155161  0.68315405  1
  O  O295  1  0.03772824  0.58202770  0.93191338  1
  O  O296  1  0.03846834  0.91693602  0.18280977  1
  O  O297  1  0.03757176  0.91773382  0.43372101  1
  O  O298  1  0.03681003  0.91709183  0.68291690  1
  O  O299  1  0.03798781  0.91591856  0.93185296  1
  O  O300  1  0.53689636  0.25030877  0.18399713  1
  O  O301  1  0.53651770  0.25235277  0.43277079  1
  O  O302  1  0.53802285  0.25095888  0.68182246  1
  O  O303  1  0.53799436  0.24985684  0.93300512  1
  O  O304  1  0.53687512  0.58491984  0.18303101  1
  O  O305  1  0.53685322  0.58342496  0.43239700  1
  O  O306  1  0.53690270  0.58337058  0.68242022  1
  O  O307  1  0.53682230  0.58602040  0.93294921  1
  O  O308  1  0.53727285  0.91464257  0.18272375  1
  O  O309  1  0.53701221  0.91649827  0.43067704  1
  O  O310  1  0.53734384  0.91733183  0.68347241  1
  O  O311  1  0.53767264  0.91682191  0.93232450  1
  O  O312  1  0.46274964  0.08144550  0.06755299  1
  O  O313  1  0.46280573  0.08249650  0.31603652  1
  O  O314  1  0.46310284  0.08273914  0.56725003  1
  O  O315  1  0.46302478  0.08220432  0.81630864  1
  O  O316  1  0.46190190  0.41607314  0.06804239  1
  O  O317  1  0.46359578  0.41627748  0.31821985  1
  O  O318  1  0.46311532  0.41707281  0.56583912  1
  O  O319  1  0.46146582  0.41756878  0.81705750  1
  O  O320  1  0.46414466  0.74923333  0.06804390  1
  O  O321  1  0.46244647  0.75056619  0.31587626  1
  O  O322  1  0.46223921  0.74899843  0.56767167  1
  O  O323  1  0.46382382  0.74991033  0.81851360  1
  O  O324  1  0.96261168  0.08463249  0.06616691  1
  O  O325  1  0.96232886  0.08230312  0.31830480  1
  O  O326  1  0.96328033  0.08346773  0.56763456  1
  O  O327  1  0.96335580  0.08518041  0.81682005  1
  O  O328  1  0.96107774  0.41561427  0.06680370  1
  O  O329  1  0.96230676  0.41696566  0.31845186  1
  O  O330  1  0.96341020  0.41744918  0.56889120  1
  O  O331  1  0.96215620  0.41628716  0.81564338  1
  O  O332  1  0.96212423  0.74983396  0.06667670  1
  O  O333  1  0.96100074  0.74976326  0.31729169  1
  O  O334  1  0.96233355  0.75131859  0.56761083  1
  O  O335  1  0.96311011  0.75093837  0.81558591  1
  O  O336  1  0.21299583  0.08164118  0.05704736  1
  O  O337  1  0.21365131  0.08417171  0.30814701  1
  O  O338  1  0.21490459  0.08297190  0.55711317  1
  O  O339  1  0.21367430  0.08218145  0.80619963  1
  O  O340  1  0.21260743  0.41567696  0.05918010  1
  O  O341  1  0.21378370  0.41685896  0.30728350  1
  O  O342  1  0.21379115  0.41681489  0.55805312  1
  O  O343  1  0.21293861  0.41544909  0.80724592  1
  O  O344  1  0.21297327  0.74865715  0.05759640  1
  O  O345  1  0.21325063  0.75049806  0.30820181  1
  O  O346  1  0.21343298  0.74901989  0.55830115  1
  O  O347  1  0.21360950  0.74958908  0.80648330  1
  O  O348  1  0.71371477  0.08339488  0.05667713  1
  O  O349  1  0.71341025  0.08425654  0.30613229  1
  O  O350  1  0.71271447  0.08457394  0.55761262  1
  O  O351  1  0.71385486  0.08358691  0.80690431  1
  O  O352  1  0.71206341  0.41642539  0.05870458  1
  O  O353  1  0.71381606  0.41558251  0.30839681  1
  O  O354  1  0.71389701  0.41729994  0.55707309  1
  O  O355  1  0.71199873  0.41814273  0.80737274  1
  O  O356  1  0.71342570  0.75072038  0.05591173  1
  O  O357  1  0.71260316  0.74898451  0.30681173  1
  O  O358  1  0.71241999  0.75113909  0.55891647  1
  O  O359  1  0.71419324  0.75069976  0.80688434  1
  O  O360  1  0.28683619  0.24901449  0.19247888  1
  O  O361  1  0.28658682  0.24905856  0.44307332  1
  O  O362  1  0.28743252  0.24979092  0.69084837  1
  O  O363  1  0.28684235  0.24870339  0.94397220  1
  O  O364  1  0.28626945  0.58210981  0.19376206  1
  O  O365  1  0.28643316  0.58449477  0.44209611  1
  O  O366  1  0.28713634  0.58498213  0.69261777  1
  O  O367  1  0.28728882  0.58236975  0.94321389  1
  O  O368  1  0.28700906  0.91684579  0.19279105  1
  O  O369  1  0.28678573  0.91706528  0.44318969  1
  O  O370  1  0.28688499  0.91745151  0.69152182  1
  O  O371  1  0.28721010  0.91474674  0.94249543  1
  O  O372  1  0.78614500  0.25031382  0.19323347  1
  O  O373  1  0.78712305  0.24920748  0.44227719  1
  O  O374  1  0.78631628  0.24866318  0.69233189  1
  O  O375  1  0.78587557  0.24969869  0.94334351  1
  O  O376  1  0.78679815  0.58249323  0.19279249  1
  O  O377  1  0.78621390  0.58259609  0.44375263  1
  O  O378  1  0.78610756  0.58458495  0.69177047  1
  O  O379  1  0.78652971  0.58589921  0.94208648  1
  O  O380  1  0.78718278  0.91769778  0.19097647  1
  O  O381  1  0.78649861  0.91759361  0.44376843  1
  O  O382  1  0.78598389  0.91718338  0.69267696  1
  O  O383  1  0.78645197  0.91873908  0.94113104  1
  O  O384  1  0.22710984  0.24848771  0.05977480  1
  O  O385  1  0.22811257  0.24846953  0.30869001  1
  O  O386  1  0.22752855  0.25002944  0.55929334  1
  O  O387  1  0.22845836  0.24884342  0.80658030  1
  O  O388  1  0.22821411  0.58128605  0.05898155  1
  O  O389  1  0.22709957  0.58257025  0.30993660  1
  O  O390  1  0.22796702  0.58485494  0.55849933  1
  O  O391  1  0.22799467  0.58465210  0.80835600  1
  O  O392  1  0.22818854  0.91441494  0.05843608  1
  O  O393  1  0.22801937  0.91808820  0.30877083  1
  O  O394  1  0.22754548  0.91737242  0.55917892  1
  O  O395  1  0.22804522  0.91728894  0.80767545  1
  O  O396  1  0.72680972  0.25113364  0.05966502  1
  O  O397  1  0.72724063  0.24920106  0.30968090  1
  O  O398  1  0.72799905  0.24888049  0.55819884  1
  O  O399  1  0.72738058  0.24832989  0.80826515  1
  O  O400  1  0.72764045  0.58516936  0.05805075  1
  O  O401  1  0.72763630  0.58121089  0.30858032  1
  O  O402  1  0.72681412  0.58321881  0.55956259  1
  O  O403  1  0.72740139  0.58589599  0.80797774  1
  O  O404  1  0.72797133  0.91888829  0.05755331  1
  O  O405  1  0.72798628  0.91760807  0.30638497  1
  O  O406  1  0.72689277  0.91659372  0.55951111  1
  O  O407  1  0.72710668  0.91827438  0.80907061  1
  O  O408  1  0.27216100  0.08443349  0.19184671  1
  O  O409  1  0.27340807  0.08352494  0.44049809  1
  O  O410  1  0.27330494  0.08206597  0.69038070  1
  O  O411  1  0.27244272  0.08064398  0.94141650  1
  O  O412  1  0.27305500  0.41704670  0.19120043  1
  O  O413  1  0.27250496  0.41760846  0.44201598  1
  O  O414  1  0.27223245  0.41520805  0.69160124  1
  O  O415  1  0.27159613  0.41590244  0.94348054  1
  O  O416  1  0.27217647  0.75067967  0.19219257  1
  O  O417  1  0.27198699  0.74868180  0.44202330  1
  O  O418  1  0.27308153  0.74940842  0.69060444  1
  O  O419  1  0.27240931  0.74800046  0.94192537  1
  O  O420  1  0.77282823  0.08349323  0.19009224  1
  O  O421  1  0.77189610  0.08532351  0.44178925  1
  O  O422  1  0.77290341  0.08439964  0.69054838  1
  O  O423  1  0.77245145  0.08346500  0.94005125  1
  O  O424  1  0.77189066  0.41519385  0.19173278  1
  O  O425  1  0.77333583  0.41748588  0.44108144  1
  O  O426  1  0.77175267  0.41824672  0.69206480  1
  O  O427  1  0.77080840  0.41708149  0.94298156  1
  O  O428  1  0.77203824  0.74895739  0.19118030  1
  O  O429  1  0.77119858  0.75026921  0.44307882  1
  O  O430  1  0.77281457  0.75152067  0.69029649  1
  O  O431  1  0.77298111  0.75045243  0.93997171  1
  O  O432  1  0.02168497  0.08385019  0.18135251  1
  O  O433  1  0.02208001  0.08150663  0.43332889  1
  O  O434  1  0.02232165  0.08469688  0.68302590  1
  O  O435  1  0.02237994  0.08538372  0.93234875  1
  O  O436  1  0.02109534  0.41611944  0.18135517  1
  O  O437  1  0.02194207  0.41821518  0.43350131  1
  O  O438  1  0.02248804  0.41616063  0.68467164  1
  O  O439  1  0.02079982  0.41575933  0.93117153  1
  O  O440  1  0.02134452  0.74987436  0.18169170  1
  O  O441  1  0.02046567  0.74989372  0.43196270  1
  O  O442  1  0.02228054  0.75119229  0.68242452  1
  O  O443  1  0.02195732  0.74996257  0.93086847  1
  O  O444  1  0.52222671  0.08138866  0.18278450  1
  O  O445  1  0.52177806  0.08375970  0.43114976  1
  O  O446  1  0.52283138  0.08195688  0.68234648  1
  O  O447  1  0.52171819  0.08268571  0.93163887  1
  O  O448  1  0.52166717  0.41550502  0.18308051  1
  O  O449  1  0.52301793  0.41736531  0.43397981  1
  O  O450  1  0.52155629  0.41773448  0.68160461  1
  O  O451  1  0.52068054  0.41753280  0.93195049  1
  O  O452  1  0.52278343  0.74924834  0.18429291  1
  O  O453  1  0.52124837  0.75005916  0.43135733  1
  O  O454  1  0.52202098  0.74869716  0.68276707  1
  O  O455  1  0.52324593  0.75052557  0.93421986  1
  O  O456  1  0.47784417  0.24957457  0.06871451  1
  O  O457  1  0.47772612  0.25158929  0.31707245  1
  O  O458  1  0.47814234  0.25162819  0.56688168  1
  O  O459  1  0.47892169  0.24988199  0.81802448  1
  O  O460  1  0.47760558  0.58536399  0.06762074  1
  O  O461  1  0.47790289  0.58478243  0.31687447  1
  O  O462  1  0.47789125  0.58153886  0.56671594  1
  O  O463  1  0.47769980  0.58599521  0.81740986  1
  O  O464  1  0.47828802  0.91383440  0.06702588  1
  O  O465  1  0.47780933  0.91631639  0.31500879  1
  O  O466  1  0.47821964  0.91669403  0.56829828  1
  O  O467  1  0.47814967  0.91752551  0.81703531  1
  O  O468  1  0.97754908  0.24798101  0.06706047  1
  O  O469  1  0.97849476  0.24999340  0.31950577  1
  O  O470  1  0.97878920  0.25007008  0.56897778  1
  O  O471  1  0.97736232  0.24970675  0.81543665  1
  O  O472  1  0.97838731  0.58312943  0.06812824  1
  O  O473  1  0.97798807  0.58285386  0.31893979  1
  O  O474  1  0.97735663  0.58140363  0.56765065  1
  O  O475  1  0.97830417  0.58185153  0.81684339  1
  O  O476  1  0.97914242  0.91731353  0.06795536  1
  O  O477  1  0.97841144  0.91696355  0.31865772  1
  O  O478  1  0.97776469  0.91879543  0.56739533  1
  O  O479  1  0.97839440  0.91585034  0.81694728  1
  O  O480  1  0.07250350  0.31257681  0.07388831  1
  O  O481  1  0.07411665  0.31331215  0.32515534  1
  O  O482  1  0.07408579  0.31363790  0.57627144  1
  O  O483  1  0.07236081  0.31328100  0.82367375  1
  O  O484  1  0.07401416  0.64634675  0.07463494  1
  O  O485  1  0.07326082  0.64648283  0.32639699  1
  O  O486  1  0.07236895  0.64565874  0.57561951  1
  O  O487  1  0.07385990  0.64517964  0.82381980  1
  O  O488  1  0.07481189  0.98022915  0.07454827  1
  O  O489  1  0.07416224  0.98016523  0.32499796  1
  O  O490  1  0.07302799  0.98150930  0.57486434  1
  O  O491  1  0.07411686  0.97912293  0.82413078  1
  O  O492  1  0.57334797  0.31307566  0.07546850  1
  O  O493  1  0.57262129  0.31547116  0.32399892  1
  O  O494  1  0.57334809  0.31494131  0.57338680  1
  O  O495  1  0.57400091  0.31404960  0.82521149  1
  O  O496  1  0.57315996  0.64798507  0.07416667  1
  O  O497  1  0.57306618  0.64791812  0.32437660  1
  O  O498  1  0.57262932  0.64658835  0.57435244  1
  O  O499  1  0.57296595  0.64899642  0.82385615  1
  O  O500  1  0.57332130  0.97813731  0.07461400  1
  O  O501  1  0.57273958  0.98023372  0.32257504  1
  O  O502  1  0.57394897  0.97984203  0.57476472  1
  O  O503  1  0.57285231  0.98128550  0.82373128  1
  O  O504  1  0.42737347  0.01747446  0.17578303  1
  O  O505  1  0.42654231  0.01969201  0.42459951  1
  O  O506  1  0.42772424  0.01871133  0.67577718  1
  O  O507  1  0.42612101  0.01931092  0.92471333  1
  O  O508  1  0.42665297  0.35198466  0.17657604  1
  O  O509  1  0.42797121  0.35342533  0.42698238  1
  O  O510  1  0.42654240  0.35352428  0.67412876  1
  O  O511  1  0.42528480  0.35382418  0.92504963  1
  O  O512  1  0.42757184  0.68593236  0.17654611  1
  O  O513  1  0.42560112  0.68716089  0.42410714  1
  O  O514  1  0.42720830  0.68494774  0.67624793  1
  O  O515  1  0.42809086  0.68694466  0.92735552  1
  O  O516  1  0.92641293  0.02023615  0.17389376  1
  O  O517  1  0.92654580  0.01884160  0.42703257  1
  O  O518  1  0.92671393  0.02118162  0.67602045  1
  O  O519  1  0.92747401  0.02104810  0.92438040  1
  O  O520  1  0.92575341  0.35246894  0.17559976  1
  O  O521  1  0.92695170  0.35365304  0.42667258  1
  O  O522  1  0.92715351  0.35311048  0.67650926  1
  O  O523  1  0.92512789  0.35285908  0.92380438  1
  O  O524  1  0.92578393  0.68661808  0.17498814  1
  O  O525  1  0.92492723  0.68653765  0.42577658  1
  O  O526  1  0.92653161  0.68803961  0.67531430  1
  O  O527  1  0.92669174  0.68649939  0.92322881  1
  O  O528  1  0.17693817  0.02072941  0.20027028  1
  O  O529  1  0.17872485  0.01962849  0.44872623  1
  O  O530  1  0.17747251  0.01949998  0.69775163  1
  O  O531  1  0.17741557  0.01760160  0.94857344  1
  O  O532  1  0.17881108  0.35246344  0.19918514  1
  O  O533  1  0.17707572  0.35397096  0.45017199  1
  O  O534  1  0.17725889  0.35178409  0.69882127  1
  O  O535  1  0.17638332  0.35205210  0.95088980  1
  O  O536  1  0.17649560  0.68736198  0.20064545  1
  O  O537  1  0.17696495  0.68546981  0.44969809  1
  O  O538  1  0.17751988  0.68634725  0.69834085  1
  O  O539  1  0.17764621  0.68429155  0.94927315  1
  O  O540  1  0.67783318  0.02016600  0.19800032  1
  O  O541  1  0.67665418  0.02131638  0.44940460  1
  O  O542  1  0.67855160  0.01994311  0.69834921  1
  O  O543  1  0.67718082  0.02034905  0.94822481  1
  O  O544  1  0.67704079  0.35177987  0.20019777  1
  O  O545  1  0.67907015  0.35294480  0.44894938  1
  O  O546  1  0.67641846  0.35463545  0.69947110  1
  O  O547  1  0.67529697  0.35375058  0.95033538  1
  O  O548  1  0.67741043  0.68496625  0.19851815  1
  O  O549  1  0.67568701  0.68712498  0.45119342  1
  O  O550  1  0.67842568  0.68723991  0.69833167  1
  O  O551  1  0.67750736  0.68755494  0.94755837  1
  O  O552  1  0.32168577  0.31251511  0.05242607  1
  O  O553  1  0.32318716  0.31241447  0.30055315  1
  O  O554  1  0.32245202  0.31355563  0.55053042  1
  O  O555  1  0.32363243  0.31277671  0.79956546  1
  O  O556  1  0.32360431  0.64505044  0.05147738  1
  O  O557  1  0.32144189  0.64711898  0.30122237  1
  O  O558  1  0.32308238  0.64808812  0.55055939  1
  O  O559  1  0.32312260  0.64789693  0.80165675  1
  O  O560  1  0.32381365  0.97771839  0.05035205  1
  O  O561  1  0.32288662  0.98132277  0.30075564  1
  O  O562  1  0.32331034  0.98012391  0.55120595  1
  O  O563  1  0.32277857  0.98096360  0.80035424  1
  O  O564  1  0.82221093  0.31375445  0.05111120  1
  O  O565  1  0.82184180  0.31321793  0.30220320  1
  O  O566  1  0.82326238  0.31256294  0.55039741  1
  O  O567  1  0.82216250  0.31272141  0.79979380  1
  O  O568  1  0.82255919  0.64890672  0.05083288  1
  O  O569  1  0.82268725  0.64556420  0.30100085  1
  O  O570  1  0.82139957  0.64726745  0.55167856  1
  O  O571  1  0.82275371  0.64872201  0.79969073  1
  O  O572  1  0.82302617  0.98214843  0.04961883  1
  O  O573  1  0.82378650  0.98048131  0.29942303  1
  O  O574  1  0.82113185  0.98135904  0.55226532  1
  O  O575  1  0.82261065  0.98104893  0.80051162  1
  O  O576  1  0.42666870  0.14477926  0.17543363  1
  O  O577  1  0.42612331  0.14657048  0.42391674  1
  O  O578  1  0.42754930  0.14604656  0.67511717  1
  O  O579  1  0.42630901  0.14610918  0.92431283  1
  O  O580  1  0.42636497  0.47923229  0.17618185  1
  O  O581  1  0.42803537  0.48082732  0.42608554  1
  O  O582  1  0.42564599  0.48023482  0.67404799  1
  O  O583  1  0.42529665  0.48098756  0.92522806  1
  O  O584  1  0.42787891  0.81307012  0.17616570  1
  O  O585  1  0.42608227  0.81390585  0.42453372  1
  O  O586  1  0.42651936  0.81212313  0.67579702  1
  O  O587  1  0.42831929  0.81420013  0.92646951  1
  O  O588  1  0.92605719  0.14702532  0.17521206  1
  O  O589  1  0.92708198  0.14607483  0.42623267  1
  O  O590  1  0.92735697  0.14819459  0.67565010  1
  O  O591  1  0.92686399  0.14825873  0.92548526  1
  O  O592  1  0.92550792  0.47950649  0.17489382  1
  O  O593  1  0.92640245  0.48081935  0.42695441  1
  O  O594  1  0.92767881  0.48051436  0.67748028  1
  O  O595  1  0.92550739  0.47961130  0.92408937  1
  O  O596  1  0.92604315  0.81371241  0.17455977  1
  O  O597  1  0.92494322  0.81347662  0.42530332  1
  O  O598  1  0.92751691  0.81541934  0.67617430  1
  O  O599  1  0.92633281  0.81345469  0.92417485  1
  O  O600  1  0.07316571  0.18548297  0.07353068  1
  O  O601  1  0.07382188  0.18622539  0.32555808  1
  O  O602  1  0.07435883  0.18694057  0.57624906  1
  O  O603  1  0.07254528  0.18592461  0.82297637  1
  O  O604  1  0.07360617  0.51923590  0.07489396  1
  O  O605  1  0.07366817  0.51960016  0.32542761  1
  O  O606  1  0.07281114  0.51841637  0.57455632  1
  O  O607  1  0.07332648  0.51799125  0.82364560  1
  O  O608  1  0.07433302  0.85321807  0.07471736  1
  O  O609  1  0.07362864  0.85321447  0.32597812  1
  O  O610  1  0.07297101  0.85433564  0.57467179  1
  O  O611  1  0.07328745  0.85188309  0.82313253  1
  O  O612  1  0.57312422  0.18605303  0.07620239  1
  O  O613  1  0.57322366  0.18829646  0.32539895  1
  O  O614  1  0.57343970  0.18766741  0.57364443  1
  O  O615  1  0.57468413  0.18703256  0.82459929  1
  O  O616  1  0.57249723  0.52087227  0.07528649  1
  O  O617  1  0.57322111  0.52082029  0.32416484  1
  O  O618  1  0.57345086  0.51952464  0.57402250  1
  O  O619  1  0.57279624  0.52185766  0.82532309  1
  O  O620  1  0.57365429  0.85119948  0.07382088  1
  O  O621  1  0.57293207  0.85271450  0.32267531  1
  O  O622  1  0.57328800  0.85293059  0.57561969  1
  O  O623  1  0.57383629  0.85416678  0.82415793  1
  O  O624  1  0.32229642  0.18494278  0.05182209  1
  O  O625  1  0.32340789  0.18554348  0.30093779  1
  O  O626  1  0.32235233  0.18604896  0.55158173  1
  O  O627  1  0.32416000  0.18611171  0.79894367  1
  O  O628  1  0.32324927  0.51804948  0.05139443  1
  O  O629  1  0.32255702  0.51960826  0.30235900  1
  O  O630  1  0.32315991  0.52120309  0.54994827  1
  O  O631  1  0.32319462  0.52071348  0.79991581  1
  O  O632  1  0.32277000  0.85057616  0.05096219  1
  O  O633  1  0.32334647  0.85424417  0.30089398  1
  O  O634  1  0.32175178  0.85277108  0.55140212  1
  O  O635  1  0.32361092  0.85403651  0.79934141  1
  O  O636  1  0.82112137  0.18641615  0.05187572  1
  O  O637  1  0.82250844  0.18605367  0.30099117  1
  O  O638  1  0.82316409  0.18562598  0.55093924  1
  O  O639  1  0.82281817  0.18558175  0.80099900  1
  O  O640  1  0.82306895  0.52175545  0.04939054  1
  O  O641  1  0.82297999  0.51848565  0.30096682  1
  O  O642  1  0.82217839  0.51991568  0.55242149  1
  O  O643  1  0.82243932  0.52173579  0.80013357  1
  O  O644  1  0.82323630  0.85515605  0.04875934  1
  O  O645  1  0.82302072  0.85360298  0.29900193  1
  O  O646  1  0.82258357  0.85399741  0.55176666  1
  O  O647  1  0.82148968  0.85389023  0.80136741  1
  O  O648  1  0.17706628  0.14761106  0.19954008  1
  O  O649  1  0.17819187  0.14690901  0.44944434  1
  O  O650  1  0.17912945  0.14671702  0.69787417  1
  O  O651  1  0.17721886  0.14475408  0.94885112  1
  O  O652  1  0.17744519  0.47990814  0.19905378  1
  O  O653  1  0.17761819  0.48105179  0.45001224  1
  O  O654  1  0.17703352  0.47907018  0.69972462  1
  O  O655  1  0.17599339  0.47881747  0.95063615  1
  O  O656  1  0.17762292  0.81456598  0.19974447  1
  O  O657  1  0.17667957  0.81246232  0.45072697  1
  O  O658  1  0.17867089  0.81371945  0.69812384  1
  O  O659  1  0.17673658  0.81132536  0.94920280  1
  O  O660  1  0.67798433  0.14748556  0.19771025  1
  O  O661  1  0.67662505  0.14820663  0.44886217  1
  O  O662  1  0.67739863  0.14709079  0.69865717  1
  O  O663  1  0.67780546  0.14752291  0.94875097  1
  O  O664  1  0.67650728  0.47871877  0.20060472  1
  O  O665  1  0.67775888  0.48032078  0.44875230  1
  O  O666  1  0.67672290  0.48190485  0.69894859  1
  O  O667  1  0.67558622  0.48069473  0.95118329  1
  O  O668  1  0.67656593  0.81227773  0.19895610  1
  O  O669  1  0.67590614  0.81391444  0.45011777  1
  O  O670  1  0.67737913  0.81446299  0.69927129  1
  O  O671  1  0.67866404  0.81488150  0.94757734  1
