# generated using pymatgen
data_Na2MnFe(PO4)2
_symmetry_space_group_name_H-M   'P 1'
_cell_length_a   22.34538321
_cell_length_b   20.09793918
_cell_length_c   19.44695406
_cell_angle_alpha   89.99685404
_cell_angle_beta   89.98634146
_cell_angle_gamma   90.01407194
_symmetry_Int_Tables_number   1
_chemical_formula_structural   Na2MnFe(PO4)2
_chemical_formula_sum   'Na96 Mn48 Fe48 P96 O384'
_cell_volume   8733.55172427
_cell_formula_units_Z   48
loop_
 _symmetry_equiv_pos_site_id
 _symmetry_equiv_pos_as_xyz
  1  'x, y, z'
loop_
 _atom_site_type_symbol
 _atom_site_label
 _atom_site_symmetry_multiplicity
 _atom_site_fract_x
 _atom_site_fract_y
 _atom_site_fract_z
 _atom_site_occupancy
  Na  Na0  1  0.14037322  0.25109914  0.24425569  1
  Na  Na1  1  0.14000919  0.25061117  0.49441329  1
  Na  Na2  1  0.14040519  0.25006395  0.74325085  1
  Na  Na3  1  0.14001237  0.25030147  0.99254139  1
  Na  Na4  1  0.14096522  0.58492428  0.24459271  1
  Na  Na5  1  0.14083303  0.58325716  0.49464076  1
  Na  Na6  1  0.14093889  0.58247047  0.74346119  1
  Na  Na7  1  0.14137038  0.58266023  0.99258956  1
  Na  Na8  1  0.14021135  0.91677117  0.24456517  1
  Na  Na9  1  0.14027035  0.91595794  0.49513623  1
  Na  Na10  1  0.14021414  0.91599620  0.74329888  1
  Na  Na11  1  0.14038401  0.91510323  0.99357990  1
  Na  Na12  1  0.64016962  0.25064558  0.24320132  1
  Na  Na13  1  0.64033467  0.25116048  0.49441754  1
  Na  Na14  1  0.64001715  0.25078899  0.74388047  1
  Na  Na15  1  0.64010842  0.24976064  0.99187235  1
  Na  Na16  1  0.64059176  0.58389068  0.24369486  1
  Na  Na17  1  0.64013209  0.58443419  0.49410946  1
  Na  Na18  1  0.64054206  0.58404390  0.74228142  1
  Na  Na19  1  0.64033975  0.58218411  0.99311727  1
  Na  Na20  1  0.63989549  0.91541105  0.24422482  1
  Na  Na21  1  0.64010289  0.91611837  0.49395374  1
  Na  Na22  1  0.64021441  0.91624363  0.74292973  1
  Na  Na23  1  0.64020611  0.91605038  0.99349736  1
  Na  Na24  1  0.35940094  0.08266085  0.00636990  1
  Na  Na25  1  0.35952233  0.08224550  0.25595478  1
  Na  Na26  1  0.35946053  0.08231203  0.50734612  1
  Na  Na27  1  0.35919077  0.08252474  0.75629505  1
  Na  Na28  1  0.36030280  0.41701414  0.00534718  1
  Na  Na29  1  0.36013538  0.41823615  0.25532433  1
  Na  Na30  1  0.36043394  0.41663447  0.50773505  1
  Na  Na31  1  0.36014075  0.41698231  0.75655797  1
  Na  Na32  1  0.36017708  0.74879015  0.00578555  1
  Na  Na33  1  0.35984790  0.75038576  0.25606417  1
  Na  Na34  1  0.35953578  0.74897513  0.50711158  1
  Na  Na35  1  0.36016797  0.74903321  0.75747269  1
  Na  Na36  1  0.85938448  0.08363112  0.00572804  1
  Na  Na37  1  0.85915699  0.08305338  0.25619411  1
  Na  Na38  1  0.85922164  0.08430427  0.50771777  1
  Na  Na39  1  0.85909148  0.08430104  0.75737759  1
  Na  Na40  1  0.85973420  0.41545200  0.00566820  1
  Na  Na41  1  0.85941803  0.41794063  0.25531632  1
  Na  Na42  1  0.85986953  0.41804793  0.50798904  1
  Na  Na43  1  0.85979609  0.41635430  0.75534908  1
  Na  Na44  1  0.85972679  0.74937749  0.00558800  1
  Na  Na45  1  0.85897225  0.75055917  0.25603472  1
  Na  Na46  1  0.85886849  0.75100360  0.50680076  1
  Na  Na47  1  0.85947064  0.75123677  0.75544977  1
  Na  Na48  1  0.10918477  0.08366481  0.11937441  1
  Na  Na49  1  0.10934717  0.08437840  0.37065231  1
  Na  Na50  1  0.10928546  0.08379650  0.61933736  1
  Na  Na51  1  0.10904316  0.08301846  0.86826468  1
  Na  Na52  1  0.11010747  0.41626924  0.11739772  1
  Na  Na53  1  0.10997945  0.41691822  0.37077589  1
  Na  Na54  1  0.11028735  0.41645863  0.61847383  1
  Na  Na55  1  0.11045974  0.41513254  0.86776074  1
  Na  Na56  1  0.11011310  0.75078754  0.11876881  1
  Na  Na57  1  0.11007027  0.75086123  0.36858609  1
  Na  Na58  1  0.11000544  0.75077534  0.61887402  1
  Na  Na59  1  0.11016819  0.74988996  0.86722064  1
  Na  Na60  1  0.60899227  0.08298128  0.11756921  1
  Na  Na61  1  0.60883399  0.08183091  0.36963986  1
  Na  Na62  1  0.60938381  0.08325217  0.61898312  1
  Na  Na63  1  0.60947385  0.08367447  0.86798395  1
  Na  Na64  1  0.61005006  0.41644636  0.11640140  1
  Na  Na65  1  0.60988947  0.41653095  0.37003860  1
  Na  Na66  1  0.60982256  0.41714867  0.61780991  1
  Na  Na67  1  0.61017622  0.41713047  0.86872860  1
  Na  Na68  1  0.60958238  0.74982650  0.11874260  1
  Na  Na69  1  0.61028914  0.74923129  0.36905647  1
  Na  Na70  1  0.60994620  0.74999758  0.61762591  1
  Na  Na71  1  0.60960897  0.74988382  0.86844027  1
  Na  Na72  1  0.39052218  0.25034002  0.12932981  1
  Na  Na73  1  0.39067927  0.24970178  0.38189834  1
  Na  Na74  1  0.39050817  0.25099701  0.63136851  1
  Na  Na75  1  0.39055672  0.25150570  0.88124898  1
  Na  Na76  1  0.39057374  0.58355579  0.13024040  1
  Na  Na77  1  0.39063689  0.58245628  0.38262989  1
  Na  Na78  1  0.39078723  0.58282148  0.63223615  1
  Na  Na79  1  0.39072502  0.58354745  0.88225059  1
  Na  Na80  1  0.39009777  0.91520018  0.13090557  1
  Na  Na81  1  0.38993615  0.91445922  0.38223749  1
  Na  Na82  1  0.38976363  0.91545903  0.63239908  1
  Na  Na83  1  0.39019040  0.91478503  0.88143378  1
  Na  Na84  1  0.88995601  0.24982290  0.12958422  1
  Na  Na85  1  0.89041347  0.25149409  0.38158049  1
  Na  Na86  1  0.89043763  0.25087928  0.63202936  1
  Na  Na87  1  0.88975422  0.24979008  0.88155237  1
  Na  Na88  1  0.89044428  0.58273893  0.13083491  1
  Na  Na89  1  0.89017777  0.58355490  0.38204667  1
  Na  Na90  1  0.89013106  0.58365158  0.63130547  1
  Na  Na91  1  0.89066647  0.58184544  0.87998225  1
  Na  Na92  1  0.89000148  0.91662128  0.13110150  1
  Na  Na93  1  0.88981955  0.91814154  0.38165198  1
  Na  Na94  1  0.88965420  0.91816781  0.63289768  1
  Na  Na95  1  0.88982681  0.91785227  0.88051209  1
  Mn  Mn96  1  0.24971722  -0.00181602  0.87570629  1
  Mn  Mn97  1  0.00052085  0.00086508  -0.00048643  1
  Mn  Mn98  1  0.49996412  -0.00053513  -0.00058299  1
  Mn  Mn99  1  0.25061045  0.33438000  0.37477502  1
  Mn  Mn100  1  0.50055644  0.66649390  0.25036930  1
  Mn  Mn101  1  0.00020376  0.33325584  0.25054605  1
  Mn  Mn102  1  0.00039633  0.16676747  0.25064216  1
  Mn  Mn103  1  0.74957547  0.16717255  0.62568360  1
  Mn  Mn104  1  0.74971086  0.16722947  0.37527247  1
  Mn  Mn105  1  0.25023114  0.16658318  0.62552611  1
  Mn  Mn106  1  0.00078753  0.49873296  0.00000102  1
  Mn  Mn107  1  0.00024039  0.33292471  0.74958321  1
  Mn  Mn108  1  -0.00033567  0.83462413  0.49999348  1
  Mn  Mn109  1  -0.00079591  0.83468707  0.24956330  1
  Mn  Mn110  1  0.24936676  -0.00123417  0.37577561  1
  Mn  Mn111  1  0.75068345  0.49900320  0.87351172  1
  Mn  Mn112  1  0.24997457  0.66678445  0.12459671  1
  Mn  Mn113  1  0.50003796  0.33335903  0.24951905  1
  Mn  Mn114  1  0.25045510  0.33469166  0.12435735  1
  Mn  Mn115  1  0.24992251  0.50113167  0.37560226  1
  Mn  Mn116  1  -0.00027793  0.66676865  0.50015575  1
  Mn  Mn117  1  0.25037103  0.16691097  0.37577453  1
  Mn  Mn118  1  0.24951566  -0.00159983  0.12591453  1
  Mn  Mn119  1  0.49961726  0.83243160  0.50065607  1
  Mn  Mn120  1  0.74989343  0.66645519  0.12471197  1
  Mn  Mn121  1  -0.00010991  0.83380361  -0.00057083  1
  Mn  Mn122  1  0.00027641  0.66626908  -0.00108960  1
  Mn  Mn123  1  0.49984802  0.16604844  0.24991683  1
  Mn  Mn124  1  0.49990260  0.16632586  0.49988246  1
  Mn  Mn125  1  0.75022066  0.33470332  0.37460178  1
  Mn  Mn126  1  0.00017566  0.66616799  0.74939822  1
  Mn  Mn127  1  -0.00029532  0.00173067  0.50138979  1
  Mn  Mn128  1  0.25024743  0.66632528  0.62563433  1
  Mn  Mn129  1  0.24969833  0.16652811  0.87467458  1
  Mn  Mn130  1  0.24983044  0.16684474  0.12490666  1
  Mn  Mn131  1  0.00018087  0.66688153  0.25009850  1
  Mn  Mn132  1  0.74941935  0.50136195  0.37534120  1
  Mn  Mn133  1  0.50060403  0.49986069  0.25013518  1
  Mn  Mn134  1  0.74926711  0.83385820  0.87450112  1
  Mn  Mn135  1  0.49896601  -0.00181709  0.24860791  1
  Mn  Mn136  1  0.49930184  0.16779313  0.74884667  1
  Mn  Mn137  1  0.50066888  0.50028182  0.75026793  1
  Mn  Mn138  1  0.49916781  -0.00031783  0.75042924  1
  Mn  Mn139  1  0.74933705  -0.00100447  0.12567332  1
  Mn  Mn140  1  0.75032589  0.66636379  0.87460359  1
  Mn  Mn141  1  0.74884641  0.16703620  0.12465458  1
  Mn  Mn142  1  0.74917951  -0.00073013  0.37565897  1
  Mn  Mn143  1  0.00045298  0.49958492  0.25012168  1
  Fe  Fe144  1  0.74982431  0.83296981  0.12497604  1
  Fe  Fe145  1  0.75030457  0.83328551  0.37554476  1
  Fe  Fe146  1  0.24990091  -0.00119831  0.62562417  1
  Fe  Fe147  1  0.25031672  0.33381908  0.87437998  1
  Fe  Fe148  1  0.25001438  0.83236403  0.12512255  1
  Fe  Fe149  1  0.24995827  0.83206562  0.62536707  1
  Fe  Fe150  1  0.00005818  0.16728772  0.75023843  1
  Fe  Fe151  1  0.50048947  0.66687341  0.00004524  1
  Fe  Fe152  1  0.50028528  0.49979602  0.50077873  1
  Fe  Fe153  1  0.00054536  0.50009781  0.50040616  1
  Fe  Fe154  1  -0.00053796  0.83377486  0.74976942  1
  Fe  Fe155  1  0.50054296  0.50048999  -0.00054435  1
  Fe  Fe156  1  0.75008460  0.33342851  0.12424021  1
  Fe  Fe157  1  0.50046194  0.33371043  -0.00045172  1
  Fe  Fe158  1  0.50016944  0.83254146  -0.00007101  1
  Fe  Fe159  1  0.00033007  0.49921843  0.74971848  1
  Fe  Fe160  1  0.25003483  0.66608199  0.87505946  1
  Fe  Fe161  1  0.49926573  -0.00114671  0.49993744  1
  Fe  Fe162  1  -0.00016033  0.33364098  0.50090382  1
  Fe  Fe163  1  0.25041936  0.83241022  0.87476268  1
  Fe  Fe164  1  0.75024269  0.50006366  0.12456783  1
  Fe  Fe165  1  0.25013402  0.83285539  0.37568555  1
  Fe  Fe166  1  -0.00038782  0.00113538  0.25036078  1
  Fe  Fe167  1  0.74999540  0.83383222  0.62470663  1
  Fe  Fe168  1  0.74945684  0.16656555  0.87464784  1
  Fe  Fe169  1  -0.00098134  0.16729501  0.50061789  1
  Fe  Fe170  1  0.50039582  0.83270723  0.75013645  1
  Fe  Fe171  1  0.25081907  0.66725439  0.37503730  1
  Fe  Fe172  1  0.25015418  0.50060689  0.12436199  1
  Fe  Fe173  1  0.50044831  0.33329510  0.50026928  1
  Fe  Fe174  1  0.74983729  -0.00021515  0.87494506  1
  Fe  Fe175  1  0.74926777  0.00040183  0.62538777  1
  Fe  Fe176  1  0.74991921  0.50068124  0.62473689  1
  Fe  Fe177  1  0.49958933  0.16687792  -0.00112811  1
  Fe  Fe178  1  0.49987628  0.83234269  0.25027021  1
  Fe  Fe179  1  0.25064864  0.33367347  0.62531762  1
  Fe  Fe180  1  -0.00061924  0.16648333  -0.00004586  1
  Fe  Fe181  1  0.25099082  0.50007783  0.62574072  1
  Fe  Fe182  1  0.49980290  0.66634952  0.50054707  1
  Fe  Fe183  1  -0.00074157  0.00099521  0.75035246  1
  Fe  Fe184  1  0.75023610  0.33358972  0.62549345  1
  Fe  Fe185  1  -0.00005491  0.33234959  -0.00095270  1
  Fe  Fe186  1  0.75039759  0.66742650  0.37484827  1
  Fe  Fe187  1  0.74997726  0.66761358  0.62403202  1
  Fe  Fe188  1  0.50032744  0.33415669  0.75047839  1
  Fe  Fe189  1  0.25036932  0.49945252  0.87431283  1
  Fe  Fe190  1  0.50081490  0.66655330  0.75075120  1
  Fe  Fe191  1  0.74940910  0.33339276  0.87473222  1
  P  P192  1  0.04163654  0.24958771  0.10115393  1
  P  P193  1  0.04288073  0.25045302  0.35474155  1
  P  P194  1  0.04130618  0.24979988  0.60223315  1
  P  P195  1  0.04213053  0.24870985  0.85289611  1
  P  P196  1  0.04356872  0.58332420  0.10269544  1
  P  P197  1  0.04277940  0.58303928  0.35396113  1
  P  P198  1  0.04219678  0.58211628  0.60295917  1
  P  P199  1  0.04259741  0.58126014  0.85183069  1
  P  P200  1  0.04256179  0.91763569  0.10325458  1
  P  P201  1  0.04188822  0.91916167  0.35273418  1
  P  P202  1  0.04191855  0.91754726  0.60464699  1
  P  P203  1  0.04121271  0.91713025  0.85101866  1
  P  P204  1  0.54146868  0.24966075  0.10059464  1
  P  P205  1  0.54274828  0.24999053  0.35337634  1
  P  P206  1  0.54213761  0.25145043  0.60276953  1
  P  P207  1  0.54171546  0.25144796  0.85278484  1
  P  P208  1  0.54189033  0.58340118  0.10131841  1
  P  P209  1  0.54283257  0.58287290  0.35439720  1
  P  P210  1  0.54142703  0.58379370  0.60221872  1
  P  P211  1  0.54274958  0.58450250  0.85319753  1
  P  P212  1  0.54203684  0.91464470  0.10226753  1
  P  P213  1  0.54157488  0.91481635  0.35267169  1
  P  P214  1  0.54157700  0.91709565  0.60295091  1
  P  P215  1  0.54190876  0.91488652  0.85262395  1
  P  P216  1  0.45692222  0.08334092  0.14564678  1
  P  P217  1  0.45717703  0.08099939  0.39759276  1
  P  P218  1  0.45676095  0.08285005  0.64623315  1
  P  P219  1  0.45726608  0.08434215  0.89715464  1
  P  P220  1  0.45819283  0.41711861  0.14553132  1
  P  P221  1  0.45876597  0.41650192  0.39907712  1
  P  P222  1  0.45871930  0.41580130  0.64726977  1
  P  P223  1  0.45941015  0.41707382  0.89797501  1
  P  P224  1  0.45821257  0.75063041  0.14691855  1
  P  P225  1  0.45776265  0.74823206  0.39801946  1
  P  P226  1  0.45908276  0.74889166  0.64891074  1
  P  P227  1  0.45933110  0.74952315  0.89780182  1
  P  P228  1  0.95731890  0.08295818  0.14736216  1
  P  P229  1  0.95692034  0.08512679  0.39797133  1
  P  P230  1  0.95798617  0.08489799  0.64885428  1
  P  P231  1  0.95767199  0.08490345  0.89656737  1
  P  P232  1  0.95773827  0.41564522  0.14623083  1
  P  P233  1  0.95840589  0.41689204  0.39928393  1
  P  P234  1  0.95848877  0.41776769  0.64667571  1
  P  P235  1  0.95805904  0.41493387  0.89682114  1
  P  P236  1  0.95689813  0.75010237  0.14644761  1
  P  P237  1  0.95686384  0.75088127  0.39694682  1
  P  P238  1  0.95777398  0.75139851  0.64754202  1
  P  P239  1  0.95746983  0.75027142  0.89548446  1
  P  P240  1  0.20695034  0.08315190  0.22859381  1
  P  P241  1  0.20763428  0.08256277  0.47947117  1
  P  P242  1  0.20798745  0.08155992  0.72762326  1
  P  P243  1  0.20685901  0.08261432  0.97808509  1
  P  P244  1  0.20785038  0.41914013  0.22712464  1
  P  P245  1  0.20813347  0.41693316  0.47952054  1
  P  P246  1  0.20924020  0.41681544  0.72722593  1
  P  P247  1  0.20885334  0.41713342  0.97624538  1
  P  P248  1  0.20790812  0.75109116  0.22825142  1
  P  P249  1  0.20863965  0.74973828  0.47721579  1
  P  P250  1  0.20808727  0.75042640  0.72846828  1
  P  P251  1  0.20866333  0.74973856  0.97647294  1
  P  P252  1  0.70628391  0.08312671  0.22819062  1
  P  P253  1  0.70699391  0.08331200  0.47904541  1
  P  P254  1  0.70757126  0.08238424  0.72843092  1
  P  P255  1  0.70820253  0.08282378  0.97621229  1
  P  P256  1  0.70819449  0.41722340  0.22589319  1
  P  P257  1  0.70789196  0.41767992  0.47924601  1
  P  P258  1  0.70853109  0.41681643  0.72631782  1
  P  P259  1  0.70824114  0.41547908  0.97754596  1
  P  P260  1  0.70777102  0.75100513  0.22808353  1
  P  P261  1  0.70874267  0.75021487  0.47728426  1
  P  P262  1  0.70856541  0.75020742  0.72585690  1
  P  P263  1  0.70734459  0.74985784  0.97810736  1
  P  P264  1  0.29230362  0.25072185  0.02079496  1
  P  P265  1  0.29330719  0.25054614  0.27176356  1
  P  P266  1  0.29250680  0.25114104  0.52307087  1
  P  P267  1  0.29202952  0.25167149  0.77203803  1
  P  P268  1  0.29219818  0.58213247  0.02131126  1
  P  P269  1  0.29287072  0.58512752  0.27246542  1
  P  P270  1  0.29276316  0.58252975  0.52316778  1
  P  P271  1  0.29195987  0.58271818  0.77340286  1
  P  P272  1  0.29203219  0.91403232  0.02245580  1
  P  P273  1  0.29217540  0.91446472  0.27284717  1
  P  P274  1  0.29116410  0.91508875  0.52383034  1
  P  P275  1  0.29214270  0.91454322  0.77198063  1
  P  P276  1  0.79118567  0.25090739  0.02124529  1
  P  P277  1  0.79248918  0.25083194  0.27126813  1
  P  P278  1  0.79230573  0.25174440  0.52316252  1
  P  P279  1  0.79085058  0.25065866  0.77326721  1
  P  P280  1  0.79261084  0.58160780  0.02206480  1
  P  P281  1  0.79217240  0.58481310  0.27226660  1
  P  P282  1  0.79135272  0.58448551  0.52307959  1
  P  P283  1  0.79268136  0.58360593  0.77009507  1
  P  P284  1  0.79186271  0.91558511  0.02225070  1
  P  P285  1  0.79177352  0.91514493  0.27269357  1
  P  P286  1  0.79112448  0.91707987  0.52366379  1
  P  P287  1  0.79151318  0.91839995  0.77157926  1
  O  O288  1  0.03695512  0.24974369  0.18120046  1
  O  O289  1  0.03745320  0.25068112  0.43463337  1
  O  O290  1  0.03628828  0.24950413  0.68224340  1
  O  O291  1  0.03676539  0.24908007  0.93276223  1
  O  O292  1  0.03852178  0.58346714  0.18271519  1
  O  O293  1  0.03742096  0.58272241  0.43395294  1
  O  O294  1  0.03695372  0.58190445  0.68290601  1
  O  O295  1  0.03766682  0.58149614  0.93179271  1
  O  O296  1  0.03718163  0.91816686  0.18319703  1
  O  O297  1  0.03679937  0.91899143  0.43275689  1
  O  O298  1  0.03647484  0.91715522  0.68452000  1
  O  O299  1  0.03674515  0.91728797  0.93107474  1
  O  O300  1  0.53679518  0.24979179  0.18064033  1
  O  O301  1  0.53761515  0.25046818  0.43336726  1
  O  O302  1  0.53664391  0.25186872  0.68270085  1
  O  O303  1  0.53623580  0.25071175  0.93264769  1
  O  O304  1  0.53709047  0.58344904  0.18134869  1
  O  O305  1  0.53752104  0.58294464  0.43429498  1
  O  O306  1  0.53684044  0.58403246  0.68222497  1
  O  O307  1  0.53761200  0.58388723  0.93307098  1
  O  O308  1  0.53661274  0.91461181  0.18221227  1
  O  O309  1  0.53631620  0.91566404  0.43265522  1
  O  O310  1  0.53663557  0.91654181  0.68289642  1
  O  O311  1  0.53681574  0.91453890  0.93258100  1
  O  O312  1  0.46235829  0.08388888  0.06566898  1
  O  O313  1  0.46234418  0.08105365  0.31756764  1
  O  O314  1  0.46203721  0.08215861  0.56628582  1
  O  O315  1  0.46233891  0.08414962  0.81715883  1
  O  O316  1  0.46351982  0.41751051  0.06562988  1
  O  O317  1  0.46336340  0.41687474  0.31902040  1
  O  O318  1  0.46406159  0.41591891  0.56740171  1
  O  O319  1  0.46431523  0.41655511  0.81799914  1
  O  O320  1  0.46357576  0.75046916  0.06703179  1
  O  O321  1  0.46274482  0.74883839  0.31811376  1
  O  O322  1  0.46354887  0.74864100  0.56892095  1
  O  O323  1  0.46438133  0.74927567  0.81790110  1
  O  O324  1  0.96256801  0.08359426  0.06739155  1
  O  O325  1  0.96230577  0.08411457  0.31803836  1
  O  O326  1  0.96258825  0.08520768  0.56884846  1
  O  O327  1  0.96296852  0.08475835  0.81668534  1
  O  O328  1  0.96286718  0.41493363  0.06624600  1
  O  O329  1  0.96327173  0.41670177  0.31922682  1
  O  O330  1  0.96393434  0.41765029  0.56681291  1
  O  O331  1  0.96311602  0.41554477  0.81683038  1
  O  O332  1  0.96199871  0.74992090  0.06640459  1
  O  O333  1  0.96183285  0.75084518  0.31695467  1
  O  O334  1  0.96265358  0.75120833  0.56754934  1
  O  O335  1  0.96282308  0.75080468  0.81550039  1
  O  O336  1  0.21195124  0.08270419  0.05805131  1
  O  O337  1  0.21214078  0.08317032  0.30861138  1
  O  O338  1  0.21308799  0.08204375  0.55942475  1
  O  O339  1  0.21279784  0.08165629  0.80759820  1
  O  O340  1  0.21377377  0.41781943  0.05620720  1
  O  O341  1  0.21292962  0.41880448  0.30711555  1
  O  O342  1  0.21358872  0.41660169  0.55942672  1
  O  O343  1  0.21438724  0.41670660  0.80717809  1
  O  O344  1  0.21326589  0.74982947  0.05648077  1
  O  O345  1  0.21344035  0.75071536  0.30810143  1
  O  O346  1  0.21368451  0.74984161  0.55721476  1
  O  O347  1  0.21324843  0.75003801  0.80832633  1
  O  O348  1  0.71262807  0.08323899  0.05622577  1
  O  O349  1  0.71142095  0.08329785  0.30817441  1
  O  O350  1  0.71235194  0.08305443  0.55902990  1
  O  O351  1  0.71304903  0.08239720  0.80831603  1
  O  O352  1  0.71355695  0.41574124  0.05739692  1
  O  O353  1  0.71314441  0.41761807  0.30594968  1
  O  O354  1  0.71331560  0.41762907  0.55912009  1
  O  O355  1  0.71365730  0.41625268  0.80629251  1
  O  O356  1  0.71253448  0.75027149  0.05803269  1
  O  O357  1  0.71349822  0.75062033  0.30796432  1
  O  O358  1  0.71401690  0.75016265  0.55718342  1
  O  O359  1  0.71309648  0.75019692  0.80585020  1
  O  O360  1  0.28804298  0.25058146  0.19174379  1
  O  O361  1  0.28783890  0.25095264  0.44304058  1
  O  O362  1  0.28672465  0.25190396  0.69205919  1
  O  O363  1  0.28695594  0.25102518  0.94081755  1
  O  O364  1  0.28773427  0.58459674  0.19251744  1
  O  O365  1  0.28783348  0.58341838  0.44328620  1
  O  O366  1  0.28731047  0.58273041  0.69340063  1
  O  O367  1  0.28677929  0.58214433  0.94144877  1
  O  O368  1  0.28702797  0.91431987  0.19287798  1
  O  O369  1  0.28617834  0.91491679  0.44385508  1
  O  O370  1  0.28677553  0.91491060  0.69209773  1
  O  O371  1  0.28681316  0.91393853  0.94248117  1
  O  O372  1  0.78706154  0.25103127  0.19129219  1
  O  O373  1  0.78740595  0.25150825  0.44320532  1
  O  O374  1  0.78622304  0.25064877  0.69327331  1
  O  O375  1  0.78576299  0.25067617  0.94135655  1
  O  O376  1  0.78702393  0.58394443  0.19233409  1
  O  O377  1  0.78633117  0.58490318  0.44309378  1
  O  O378  1  0.78706262  0.58381554  0.69021556  1
  O  O379  1  0.78783833  0.58179566  0.94204043  1
  O  O380  1  0.78646663  0.91495380  0.19275860  1
  O  O381  1  0.78637152  0.91633230  0.44367272  1
  O  O382  1  0.78614052  0.91851252  0.69171298  1
  O  O383  1  0.78650302  0.91654038  0.94228108  1
  O  O384  1  0.22807943  0.25095341  0.05640377  1
  O  O385  1  0.22885892  0.25059099  0.30685623  1
  O  O386  1  0.22815966  0.25108180  0.55837030  1
  O  O387  1  0.22780083  0.25160312  0.80776763  1
  O  O388  1  0.22813819  0.58219555  0.05769756  1
  O  O389  1  0.22859775  0.58569638  0.30830823  1
  O  O390  1  0.22847245  0.58172758  0.55885823  1
  O  O391  1  0.22771548  0.58225629  0.80900375  1
  O  O392  1  0.22777835  0.91388421  0.05824715  1
  O  O393  1  0.22786709  0.91427732  0.30852854  1
  O  O394  1  0.22709522  0.91465286  0.55998675  1
  O  O395  1  0.22795918  0.91395164  0.80805329  1
  O  O396  1  0.72709282  0.25143947  0.05749192  1
  O  O397  1  0.72816870  0.25088550  0.30673321  1
  O  O398  1  0.72793029  0.25174872  0.55855911  1
  O  O399  1  0.72667438  0.25106138  0.80906454  1
  O  O400  1  0.72821035  0.58161916  0.05738191  1
  O  O401  1  0.72789022  0.58546706  0.30798723  1
  O  O402  1  0.72725019  0.58408620  0.55925907  1
  O  O403  1  0.72852027  0.58316525  0.80603062  1
  O  O404  1  0.72761858  0.91475573  0.05815655  1
  O  O405  1  0.72754766  0.91462412  0.30857511  1
  O  O406  1  0.72689094  0.91741564  0.55938929  1
  O  O407  1  0.72737916  0.91866728  0.80776188  1
  O  O408  1  0.27132958  0.08285864  0.19337869  1
  O  O409  1  0.27182039  0.08233337  0.44376911  1
  O  O410  1  0.27227878  0.08196147  0.69230134  1
  O  O411  1  0.27129177  0.08258666  0.94301284  1
  O  O412  1  0.27226014  0.41911826  0.19171418  1
  O  O413  1  0.27230610  0.41746420  0.44364309  1
  O  O414  1  0.27334284  0.41692213  0.69098500  1
  O  O415  1  0.27305409  0.41695648  0.94025824  1
  O  O416  1  0.27201021  0.75104322  0.19184342  1
  O  O417  1  0.27282275  0.74976647  0.44117707  1
  O  O418  1  0.27231087  0.75088381  0.69251781  1
  O  O419  1  0.27291727  0.75009434  0.94077062  1
  O  O420  1  0.77067618  0.08329621  0.19306180  1
  O  O421  1  0.77125905  0.08321946  0.44354698  1
  O  O422  1  0.77167215  0.08244616  0.69221543  1
  O  O423  1  0.77245136  0.08240430  0.94062763  1
  O  O424  1  0.77245420  0.41725567  0.19015458  1
  O  O425  1  0.77204203  0.41804542  0.44335559  1
  O  O426  1  0.77268712  0.41729308  0.69031762  1
  O  O427  1  0.77234322  0.41473765  0.94127065  1
  O  O428  1  0.77179913  0.75125326  0.19155535  1
  O  O429  1  0.77273639  0.75044441  0.44072806  1
  O  O430  1  0.77282378  0.75014379  0.69033346  1
  O  O431  1  0.77162681  0.75024601  0.94262917  1
  O  O432  1  0.02161332  0.08230237  0.18317350  1
  O  O433  1  0.02120323  0.08600712  0.43375090  1
  O  O434  1  0.02224914  0.08487535  0.68446218  1
  O  O435  1  0.02183343  0.08563141  0.93262985  1
  O  O436  1  0.02212397  0.41614223  0.18148251  1
  O  O437  1  0.02265474  0.41653873  0.43491486  1
  O  O438  1  0.02258293  0.41760616  0.68287665  1
  O  O439  1  0.02236688  0.41440867  0.93236743  1
  O  O440  1  0.02131334  0.75067048  0.18151237  1
  O  O441  1  0.02137023  0.75070039  0.43178732  1
  O  O442  1  0.02210628  0.75128872  0.68281656  1
  O  O443  1  0.02184024  0.75026013  0.93076668  1
  O  O444  1  0.52116232  0.08257464  0.18122457  1
  O  O445  1  0.52146292  0.08109114  0.43317501  1
  O  O446  1  0.52102516  0.08316267  0.68169960  1
  O  O447  1  0.52163053  0.08441968  0.93253146  1
  O  O448  1  0.52244468  0.41682292  0.18125127  1
  O  O449  1  0.52301631  0.41628417  0.43463320  1
  O  O450  1  0.52283460  0.41567044  0.68341487  1
  O  O451  1  0.52346199  0.41780688  0.93401473  1
  O  O452  1  0.52229554  0.75103594  0.18324607  1
  O  O453  1  0.52208928  0.74798053  0.43360189  1
  O  O454  1  0.52341082  0.74864918  0.68440827  1
  O  O455  1  0.52332588  0.75008496  0.93406652  1
  O  O456  1  0.47728749  0.24936511  0.06489261  1
  O  O457  1  0.47836882  0.24984246  0.31811827  1
  O  O458  1  0.47799963  0.25130392  0.56678460  1
  O  O459  1  0.47761356  0.25204677  0.81653438  1
  O  O460  1  0.47775521  0.58288804  0.06544229  1
  O  O461  1  0.47860616  0.58304168  0.31869036  1
  O  O462  1  0.47724787  0.58391138  0.56645593  1
  O  O463  1  0.47851377  0.58472620  0.81734166  1
  O  O464  1  0.47784195  0.91496416  0.06640872  1
  O  O465  1  0.47733126  0.91410395  0.31686199  1
  O  O466  1  0.47726460  0.91708918  0.56739489  1
  O  O467  1  0.47762719  0.91468043  0.81708810  1
  O  O468  1  0.97734126  0.24958573  0.06545032  1
  O  O469  1  0.97861781  0.25018100  0.31905985  1
  O  O470  1  0.97712714  0.25000273  0.56626158  1
  O  O471  1  0.97791549  0.24865075  0.81694709  1
  O  O472  1  0.97906164  0.58290426  0.06783389  1
  O  O473  1  0.97847463  0.58308256  0.31851313  1
  O  O474  1  0.97796170  0.58219217  0.56726470  1
  O  O475  1  0.97823504  0.58139487  0.81653523  1
  O  O476  1  0.97828106  0.91749742  0.06778428  1
  O  O477  1  0.97755230  0.91953206  0.31722496  1
  O  O478  1  0.97770723  0.91768373  0.56890092  1
  O  O479  1  0.97688720  0.91697922  0.81572007  1
  O  O480  1  0.07246016  0.31320350  0.07278496  1
  O  O481  1  0.07395818  0.31382294  0.32595956  1
  O  O482  1  0.07197513  0.31379257  0.57453245  1
  O  O483  1  0.07331845  0.31212565  0.82433485  1
  O  O484  1  0.07429116  0.64687061  0.07417784  1
  O  O485  1  0.07368226  0.64677457  0.32605155  1
  O  O486  1  0.07320449  0.64605842  0.57555115  1
  O  O487  1  0.07379649  0.64482670  0.82405417  1
  O  O488  1  0.07392386  0.98072056  0.07459902  1
  O  O489  1  0.07272437  0.98268888  0.32448718  1
  O  O490  1  0.07302835  0.98111236  0.57659136  1
  O  O491  1  0.07163568  0.98108244  0.82282719  1
  O  O492  1  0.57178702  0.31369514  0.07231012  1
  O  O493  1  0.57393935  0.31321463  0.32462346  1
  O  O494  1  0.57321777  0.31465161  0.57404613  1
  O  O495  1  0.57286795  0.31497094  0.82461771  1
  O  O496  1  0.57205464  0.64754817  0.07328938  1
  O  O497  1  0.57411257  0.64610216  0.32567700  1
  O  O498  1  0.57267598  0.64703801  0.57364562  1
  O  O499  1  0.57372963  0.64789905  0.82454417  1
  O  O500  1  0.57326346  0.97836601  0.07457736  1
  O  O501  1  0.57265664  0.97814811  0.32411635  1
  O  O502  1  0.57204300  0.98073483  0.57428675  1
  O  O503  1  0.57271353  0.97888670  0.82524138  1
  O  O504  1  0.42547874  0.01974749  0.17319276  1
  O  O505  1  0.42656141  0.01738146  0.42613162  1
  O  O506  1  0.42545392  0.01983092  0.67511044  1
  O  O507  1  0.42628153  0.02055072  0.92474124  1
  O  O508  1  0.42692441  0.35367361  0.17378038  1
  O  O509  1  0.42777978  0.35284555  0.42696627  1
  O  O510  1  0.42757122  0.35264687  0.67620507  1
  O  O511  1  0.42900324  0.35330945  0.92666444  1
  O  O512  1  0.42727151  0.68686348  0.17488895  1
  O  O513  1  0.42704012  0.68470066  0.42662082  1
  O  O514  1  0.42768282  0.68579421  0.67759967  1
  O  O515  1  0.42897152  0.68562817  0.92663355  1
  O  O516  1  0.92644055  0.01938503  0.17568002  1
  O  O517  1  0.92603106  0.02164791  0.42659292  1
  O  O518  1  0.92770065  0.02081957  0.67712709  1
  O  O519  1  0.92696365  0.02104746  0.92461551  1
  O  O520  1  0.92666455  0.35248047  0.17507525  1
  O  O521  1  0.92738553  0.35338976  0.42761934  1
  O  O522  1  0.92714604  0.35422249  0.67457997  1
  O  O523  1  0.92732983  0.35127611  0.92514856  1
  O  O524  1  0.92622352  0.68645598  0.17468511  1
  O  O525  1  0.92581597  0.68748136  0.42528676  1
  O  O526  1  0.92661949  0.68774984  0.67511617  1
  O  O527  1  0.92669850  0.68632009  0.92311514  1
  O  O528  1  0.17591960  0.01960186  0.20063674  1
  O  O529  1  0.17596872  0.01948886  0.45115165  1
  O  O530  1  0.17780699  0.01772388  0.69910894  1
  O  O531  1  0.17588507  0.01898997  0.95015262  1
  O  O532  1  0.17670154  0.35554130  0.19923659  1
  O  O533  1  0.17715731  0.35354113  0.45078658  1
  O  O534  1  0.17820002  0.35323293  0.69890766  1
  O  O535  1  0.17819662  0.35316431  0.94839709  1
  O  O536  1  0.17662902  0.68772594  0.19979020  1
  O  O537  1  0.17820281  0.68582074  0.44903926  1
  O  O538  1  0.17731286  0.68666817  0.70014835  1
  O  O539  1  0.17865778  0.68549925  0.94811852  1
  O  O540  1  0.67545842  0.01941435  0.20029749  1
  O  O541  1  0.67557418  0.02009402  0.45076043  1
  O  O542  1  0.67652078  0.01914903  0.69948022  1
  O  O543  1  0.67701978  0.01925976  0.94843399  1
  O  O544  1  0.67755923  0.35335265  0.19798117  1
  O  O545  1  0.67682469  0.35430851  0.45064042  1
  O  O546  1  0.67784677  0.35309727  0.69804626  1
  O  O547  1  0.67679686  0.35239691  0.94877865  1
  O  O548  1  0.67652720  0.68745060  0.19993715  1
  O  O549  1  0.67799082  0.68655526  0.44880995  1
  O  O550  1  0.67759639  0.68670900  0.69757226  1
  O  O551  1  0.67690124  0.68587826  0.95017688  1
  O  O552  1  0.32383550  0.31390152  0.04899527  1
  O  O553  1  0.32430488  0.31420107  0.29961019  1
  O  O554  1  0.32315149  0.31470907  0.55158686  1
  O  O555  1  0.32307619  0.31491430  0.80082218  1
  O  O556  1  0.32340027  0.64570097  0.04929686  1
  O  O557  1  0.32354987  0.64872722  0.30095650  1
  O  O558  1  0.32346405  0.64610993  0.55178209  1
  O  O559  1  0.32193371  0.64685676  0.80196570  1
  O  O560  1  0.32282846  0.97796946  0.05010741  1
  O  O561  1  0.32289749  0.97842668  0.30055789  1
  O  O562  1  0.32121450  0.97929853  0.55206420  1
  O  O563  1  0.32307360  0.97818984  0.80028169  1
  O  O564  1  0.82248014  0.31408829  0.04999033  1
  O  O565  1  0.82388512  0.31411111  0.29953879  1
  O  O566  1  0.82290446  0.31531838  0.55174932  1
  O  O567  1  0.82237653  0.31389237  0.80133686  1
  O  O568  1  0.82364189  0.64522294  0.04992690  1
  O  O569  1  0.82303998  0.64836151  0.30056931  1
  O  O570  1  0.82218161  0.64813063  0.55133653  1
  O  O571  1  0.82368410  0.64700098  0.79872316  1
  O  O572  1  0.82268876  0.97923393  0.05054125  1
  O  O573  1  0.82228101  0.97929825  0.30028380  1
  O  O574  1  0.82204020  0.98080592  0.55159794  1
  O  O575  1  0.82268368  0.98150389  0.80065389  1
  O  O576  1  0.42603823  0.14664371  0.17445029  1
  O  O577  1  0.42606687  0.14469849  0.42512617  1
  O  O578  1  0.42580954  0.14668531  0.67378823  1
  O  O579  1  0.42652843  0.14792637  0.92530394  1
  O  O580  1  0.42711805  0.48038687  0.17442250  1
  O  O581  1  0.42839963  0.48031463  0.42773684  1
  O  O582  1  0.42777002  0.47952002  0.67539230  1
  O  O583  1  0.42813845  0.48069278  0.92554785  1
  O  O584  1  0.42723359  0.81388869  0.17585850  1
  O  O585  1  0.42667925  0.81161075  0.42650791  1
  O  O586  1  0.42905160  0.81309695  0.67726009  1
  O  O587  1  0.42778818  0.81273613  0.92612435  1
  O  O588  1  0.92644441  0.14652271  0.17561227  1
  O  O589  1  0.92588885  0.14864008  0.42611793  1
  O  O590  1  0.92681638  0.14815725  0.67739983  1
  O  O591  1  0.92637836  0.14795237  0.92552686  1
  O  O592  1  0.92677426  0.47934308  0.17418095  1
  O  O593  1  0.92784167  0.48082970  0.42717235  1
  O  O594  1  0.92769084  0.48115841  0.67553184  1
  O  O595  1  0.92692425  0.47837948  0.92496380  1
  O  O596  1  0.92557191  0.81348350  0.17435044  1
  O  O597  1  0.92603531  0.81449214  0.42502937  1
  O  O598  1  0.92711008  0.81500522  0.67590292  1
  O  O599  1  0.92604590  0.81333435  0.92408004  1
  O  O600  1  0.07216048  0.18572862  0.07316500  1
  O  O601  1  0.07416443  0.18720808  0.32615807  1
  O  O602  1  0.07218334  0.18633311  0.57385923  1
  O  O603  1  0.07315715  0.18543288  0.82409653  1
  O  O604  1  0.07472530  0.51990607  0.07462923  1
  O  O605  1  0.07407576  0.51978886  0.32562060  1
  O  O606  1  0.07320371  0.51889238  0.57421935  1
  O  O607  1  0.07303773  0.51753468  0.82345517  1
  O  O608  1  0.07349368  0.85395098  0.07519711  1
  O  O609  1  0.07263190  0.85529628  0.32504207  1
  O  O610  1  0.07322539  0.85438871  0.57581638  1
  O  O611  1  0.07208479  0.85346374  0.82303853  1
  O  O612  1  0.57257641  0.18619526  0.07241480  1
  O  O613  1  0.57354499  0.18622216  0.32541532  1
  O  O614  1  0.57313964  0.18751676  0.57551266  1
  O  O615  1  0.57268438  0.18793617  0.82431332  1
  O  O616  1  0.57320519  0.52010239  0.07320980  1
  O  O617  1  0.57393883  0.51947677  0.32581592  1
  O  O618  1  0.57163005  0.51965540  0.57410454  1
  O  O619  1  0.57382308  0.52110222  0.82450837  1
  O  O620  1  0.57292259  0.85135464  0.07360564  1
  O  O621  1  0.57234232  0.85101387  0.32476142  1
  O  O622  1  0.57280102  0.85364800  0.57478043  1
  O  O623  1  0.57292708  0.85176780  0.82341111  1
  O  O624  1  0.32311909  0.18698159  0.04869338  1
  O  O625  1  0.32424921  0.18708218  0.30005047  1
  O  O626  1  0.32362898  0.18751793  0.55078702  1
  O  O627  1  0.32299572  0.18772655  0.79934205  1
  O  O628  1  0.32297526  0.51874205  0.05021293  1
  O  O629  1  0.32388908  0.52162756  0.30073608  1
  O  O630  1  0.32380297  0.51912409  0.55155091  1
  O  O631  1  0.32353868  0.51954660  0.80153979  1
  O  O632  1  0.32309472  0.85081442  0.05108653  1
  O  O633  1  0.32329231  0.85141002  0.30185744  1
  O  O634  1  0.32274868  0.85187254  0.55199448  1
  O  O635  1  0.32336713  0.85130627  0.80066080  1
  O  O636  1  0.82210184  0.18716335  0.04928537  1
  O  O637  1  0.82326285  0.18716008  0.29948068  1
  O  O638  1  0.82329069  0.18817470  0.55117686  1
  O  O639  1  0.82084000  0.18648934  0.80174457  1
  O  O640  1  0.82312212  0.51799870  0.05060131  1
  O  O641  1  0.82315617  0.52131818  0.30069448  1
  O  O642  1  0.82232233  0.52080932  0.55102982  1
  O  O643  1  0.82412781  0.52025771  0.79824380  1
  O  O644  1  0.82286323  0.85203094  0.05021333  1
  O  O645  1  0.82321622  0.85228174  0.30162447  1
  O  O646  1  0.82180258  0.85344985  0.55239028  1
  O  O647  1  0.82241358  0.85457487  0.79934053  1
  O  O648  1  0.17602828  0.14670005  0.20046014  1
  O  O649  1  0.17695436  0.14646902  0.45176401  1
  O  O650  1  0.17657690  0.14509495  0.70011830  1
  O  O651  1  0.17590264  0.14600336  0.94968970  1
  O  O652  1  0.17745111  0.48282140  0.19868470  1
  O  O653  1  0.17664920  0.48024180  0.45143668  1
  O  O654  1  0.17850079  0.48052919  0.69886728  1
  O  O655  1  0.17777130  0.48036161  0.94744103  1
  O  O656  1  0.17701736  0.81454064  0.19966008  1
  O  O657  1  0.17751641  0.81323600  0.44910462  1
  O  O658  1  0.17682763  0.81350092  0.69960262  1
  O  O659  1  0.17719457  0.81281901  0.94797689  1
  O  O660  1  0.67508137  0.14636038  0.19971975  1
  O  O661  1  0.67614325  0.14705592  0.45121291  1
  O  O662  1  0.67631317  0.14606916  0.70073121  1
  O  O663  1  0.67796540  0.14672676  0.94750591  1
  O  O664  1  0.67747343  0.48094343  0.19766365  1
  O  O665  1  0.67647216  0.48096588  0.45092107  1
  O  O666  1  0.67750208  0.48055782  0.69857823  1
  O  O667  1  0.67755680  0.47920553  0.94916130  1
  O  O668  1  0.67677693  0.81435379  0.19950171  1
  O  O669  1  0.67763144  0.81379653  0.44913972  1
  O  O670  1  0.67808464  0.81409675  0.69765713  1
  O  O671  1  0.67571518  0.81276743  0.94946866  1
