# generated using pymatgen
data_Na2MnFe(PO4)2
_symmetry_space_group_name_H-M   'P 1'
_cell_length_a   22.34671637
_cell_length_b   20.09653181
_cell_length_c   19.44826623
_cell_angle_alpha   89.97330207
_cell_angle_beta   90.01212069
_cell_angle_gamma   90.01787365
_symmetry_Int_Tables_number   1
_chemical_formula_structural   Na2MnFe(PO4)2
_chemical_formula_sum   'Na96 Mn48 Fe48 P96 O384'
_cell_volume   8734.04941277
_cell_formula_units_Z   48
loop_
 _symmetry_equiv_pos_site_id
 _symmetry_equiv_pos_as_xyz
  1  'x, y, z'
loop_
 _atom_site_type_symbol
 _atom_site_label
 _atom_site_symmetry_multiplicity
 _atom_site_fract_x
 _atom_site_fract_y
 _atom_site_fract_z
 _atom_site_occupancy
  Na  Na0  1  0.13958323  0.25066594  0.24309804  1
  Na  Na1  1  0.14039212  0.25129179  0.49370491  1
  Na  Na2  1  0.14111947  0.25168928  0.74403304  1
  Na  Na3  1  0.13990813  0.25120698  0.99478362  1
  Na  Na4  1  0.13980949  0.58226221  0.24295465  1
  Na  Na5  1  0.13986934  0.58340255  0.49184705  1
  Na  Na6  1  0.13997470  0.58238288  0.74289131  1
  Na  Na7  1  0.13987421  0.58224811  0.99313659  1
  Na  Na8  1  0.14007067  0.91542780  0.24441737  1
  Na  Na9  1  0.14005687  0.91720454  0.49307775  1
  Na  Na10  1  0.14009843  0.91745513  0.74382515  1
  Na  Na11  1  0.14003112  0.91610934  0.99394424  1
  Na  Na12  1  0.64007555  0.24991814  0.24352088  1
  Na  Na13  1  0.64086820  0.25015694  0.49328563  1
  Na  Na14  1  0.64079928  0.25086255  0.74493457  1
  Na  Na15  1  0.64045603  0.24883121  0.99349154  1
  Na  Na16  1  0.64031718  0.58315926  0.24367178  1
  Na  Na17  1  0.64083386  0.58312540  0.49423427  1
  Na  Na18  1  0.64094206  0.58367950  0.74388708  1
  Na  Na19  1  0.64045550  0.58366412  0.99395531  1
  Na  Na20  1  0.64031198  0.91641568  0.24400993  1
  Na  Na21  1  0.63984764  0.91628953  0.49253761  1
  Na  Na22  1  0.64066883  0.91605514  0.74467833  1
  Na  Na23  1  0.64083706  0.91765924  0.99349392  1
  Na  Na24  1  0.36001148  0.08389144  0.00657141  1
  Na  Na25  1  0.35960246  0.08325173  0.25621886  1
  Na  Na26  1  0.35929242  0.08408710  0.50596093  1
  Na  Na27  1  0.35916519  0.08408609  0.75643891  1
  Na  Na28  1  0.35996979  0.41661940  0.00623486  1
  Na  Na29  1  0.35935619  0.41581927  0.25609836  1
  Na  Na30  1  0.35903786  0.41618913  0.50569440  1
  Na  Na31  1  0.35980325  0.41661896  0.75531286  1
  Na  Na32  1  0.35932844  0.74942168  0.00619911  1
  Na  Na33  1  0.35979463  0.74877622  0.25771135  1
  Na  Na34  1  0.35952767  0.74946203  0.50495776  1
  Na  Na35  1  0.35935445  0.74956053  0.75532861  1
  Na  Na36  1  0.85951210  0.08340856  0.00571192  1
  Na  Na37  1  0.85946996  0.08401162  0.25744196  1
  Na  Na38  1  0.85980154  0.08267385  0.50582252  1
  Na  Na39  1  0.85941042  0.08302155  0.75763770  1
  Na  Na40  1  0.86035875  0.41623965  0.00744307  1
  Na  Na41  1  0.86006602  0.41683888  0.25692953  1
  Na  Na42  1  0.85986324  0.41833255  0.50562037  1
  Na  Na43  1  0.86022685  0.41731921  0.75666189  1
  Na  Na44  1  0.86046022  0.75061889  0.00718081  1
  Na  Na45  1  0.86025186  0.74962548  0.25745670  1
  Na  Na46  1  0.85945403  0.74934037  0.50593614  1
  Na  Na47  1  0.85976570  0.75016778  0.75645672  1
  Na  Na48  1  0.10888167  0.08394191  0.11952849  1
  Na  Na49  1  0.10905533  0.08337659  0.36850202  1
  Na  Na50  1  0.10953923  0.08395145  0.61901771  1
  Na  Na51  1  0.10947089  0.08376628  0.86877011  1
  Na  Na52  1  0.10960288  0.41759526  0.11835074  1
  Na  Na53  1  0.10928699  0.41774211  0.36704863  1
  Na  Na54  1  0.11013166  0.41844961  0.61753677  1
  Na  Na55  1  0.10986038  0.41656129  0.86950370  1
  Na  Na56  1  0.10936860  0.74892428  0.11930672  1
  Na  Na57  1  0.10926726  0.74835476  0.36756273  1
  Na  Na58  1  0.10905784  0.75028910  0.61764402  1
  Na  Na59  1  0.10956773  0.75008569  0.86878478  1
  Na  Na60  1  0.60995323  0.08386273  0.11850656  1
  Na  Na61  1  0.60941437  0.08238875  0.36791056  1
  Na  Na62  1  0.60956906  0.08239801  0.61938556  1
  Na  Na63  1  0.60994918  0.08449574  0.86923992  1
  Na  Na64  1  0.60949756  0.41545752  0.11933864  1
  Na  Na65  1  0.60989118  0.41631221  0.36764665  1
  Na  Na66  1  0.61046040  0.41665931  0.61893400  1
  Na  Na67  1  0.60999841  0.41760990  0.86872745  1
  Na  Na68  1  0.60985954  0.74962867  0.11931013  1
  Na  Na69  1  0.60969353  0.75066068  0.36838031  1
  Na  Na70  1  0.60956687  0.74984670  0.61889491  1
  Na  Na71  1  0.60973690  0.75050892  0.86944130  1
  Na  Na72  1  0.39042342  0.24962678  0.13115499  1
  Na  Na73  1  0.38991494  0.24834070  0.38094052  1
  Na  Na74  1  0.38989036  0.24974533  0.63155098  1
  Na  Na75  1  0.39053380  0.25128170  0.88150187  1
  Na  Na76  1  0.39037701  0.58206446  0.13196900  1
  Na  Na77  1  0.38976083  0.58384720  0.38107266  1
  Na  Na78  1  0.39002527  0.58207543  0.63044551  1
  Na  Na79  1  0.39065645  0.58359410  0.88022732  1
  Na  Na80  1  0.39085131  0.91680308  0.13130119  1
  Na  Na81  1  0.39043927  0.91596150  0.38161029  1
  Na  Na82  1  0.39056317  0.91554445  0.63018914  1
  Na  Na83  1  0.39022284  0.91689344  0.88163428  1
  Na  Na84  1  0.89042804  0.25098638  0.13189789  1
  Na  Na85  1  0.89058513  0.25094110  0.38100689  1
  Na  Na86  1  0.89068505  0.25033838  0.63179105  1
  Na  Na87  1  0.89020264  0.25099027  0.88251479  1
  Na  Na88  1  0.89078907  0.58370033  0.13192081  1
  Na  Na89  1  0.89021354  0.58305753  0.38100938  1
  Na  Na90  1  0.89002346  0.58377131  0.63077087  1
  Na  Na91  1  0.89143180  0.58321829  0.88182962  1
  Na  Na92  1  0.89055456  0.91569609  0.13195641  1
  Na  Na93  1  0.89012177  0.91542613  0.38175941  1
  Na  Na94  1  0.89019939  0.91726755  0.63068952  1
  Na  Na95  1  0.89028400  0.91599146  0.88199715  1
  Mn  Mn96  1  0.50021024  0.33241208  0.49931327  1
  Mn  Mn97  1  0.24888407  0.66580152  0.62425926  1
  Mn  Mn98  1  0.24947358  0.66530984  0.12523049  1
  Mn  Mn99  1  0.75008687  0.16686157  0.62514577  1
  Mn  Mn100  1  0.00022590  0.66616039  0.74982133  1
  Mn  Mn101  1  0.50051169  0.66720495  0.50007692  1
  Mn  Mn102  1  0.00024467  0.33468767  0.49998434  1
  Mn  Mn103  1  0.49998431  0.49956340  0.49961695  1
  Mn  Mn104  1  0.24901518  0.16730127  0.12501948  1
  Mn  Mn105  1  0.00023421  0.33487982  0.75043997  1
  Mn  Mn106  1  0.75088435  0.66745163  0.87470299  1
  Mn  Mn107  1  0.49995513  -0.00010811  0.75005985  1
  Mn  Mn108  1  0.49986942  -0.00014385  0.24978893  1
  Mn  Mn109  1  0.74998437  0.16689872  0.37537592  1
  Mn  Mn110  1  0.74991663  0.66617993  0.37563911  1
  Mn  Mn111  1  -0.00048677  -0.00040436  0.00078054  1
  Mn  Mn112  1  0.24961453  -0.00020475  0.87517888  1
  Mn  Mn113  1  0.24985132  -0.00034740  0.12565806  1
  Mn  Mn114  1  0.49969615  0.49955412  0.25025058  1
  Mn  Mn115  1  0.50068297  0.50001547  0.74972532  1
  Mn  Mn116  1  -0.00051164  0.83423133  0.74921716  1
  Mn  Mn117  1  0.25041123  0.00118458  0.62437083  1
  Mn  Mn118  1  0.24945594  0.83316770  0.62457463  1
  Mn  Mn119  1  0.00039041  0.16663021  0.75056291  1
  Mn  Mn120  1  0.74964841  0.33256434  0.12563155  1
  Mn  Mn121  1  0.25010493  0.16814502  0.87593211  1
  Mn  Mn122  1  0.24954985  0.33341283  0.37497326  1
  Mn  Mn123  1  -0.00051089  0.16787267  -0.00004557  1
  Mn  Mn124  1  0.50034605  0.33346690  0.00021393  1
  Mn  Mn125  1  0.49945709  0.66617208  0.00028667  1
  Mn  Mn126  1  0.49952737  0.83371531  0.00019170  1
  Mn  Mn127  1  0.75102722  0.33434226  0.62478596  1
  Mn  Mn128  1  0.25023281  0.83261507  0.12512270  1
  Mn  Mn129  1  0.74940435  0.50017686  0.12529664  1
  Mn  Mn130  1  0.25034714  0.49888041  0.87400704  1
  Mn  Mn131  1  0.74996327  -0.00041249  0.62570040  1
  Mn  Mn132  1  0.75135985  0.49976968  0.87530486  1
  Mn  Mn133  1  -0.00004269  0.83289800  0.50003963  1
  Mn  Mn134  1  -0.00025574  -0.00077294  0.24977879  1
  Mn  Mn135  1  0.75075167  0.00059728  0.12454000  1
  Mn  Mn136  1  0.50077531  0.16553135  0.50031952  1
  Mn  Mn137  1  -0.00010795  0.16616258  0.50044029  1
  Mn  Mn138  1  0.75077155  0.83305818  0.12522394  1
  Mn  Mn139  1  0.50047940  0.83281935  0.75038161  1
  Mn  Mn140  1  0.24941216  0.00038033  0.37530260  1
  Mn  Mn141  1  0.25028272  0.66654302  0.87426364  1
  Mn  Mn142  1  0.49948595  0.16720665  0.74972387  1
  Mn  Mn143  1  0.75059452  0.83299249  0.62472092  1
  Fe  Fe144  1  0.75024165  0.66696322  0.12546104  1
  Fe  Fe145  1  0.49953791  -0.00087317  0.49925890  1
  Fe  Fe146  1  0.24978314  0.83283487  0.37463448  1
  Fe  Fe147  1  -0.00008061  0.83227731  0.25069441  1
  Fe  Fe148  1  -0.00004097  -0.00000600  0.75033920  1
  Fe  Fe149  1  -0.00015609  0.50055737  0.24909615  1
  Fe  Fe150  1  0.50023885  0.83347546  0.25001703  1
  Fe  Fe151  1  0.49950476  0.16594916  0.24976035  1
  Fe  Fe152  1  -0.00015759  0.66604550  0.24921452  1
  Fe  Fe153  1  0.00048020  0.50053102  0.75010421  1
  Fe  Fe154  1  0.00002656  0.66672821  0.00058237  1
  Fe  Fe155  1  -0.00031806  -0.00030372  0.49946437  1
  Fe  Fe156  1  0.25016094  0.33398203  0.87436100  1
  Fe  Fe157  1  0.50030343  0.16704891  0.00011212  1
  Fe  Fe158  1  0.75019374  0.33362495  0.37510794  1
  Fe  Fe159  1  0.24983752  0.16782722  0.62552735  1
  Fe  Fe160  1  0.25029348  0.49933753  0.12448934  1
  Fe  Fe161  1  0.00045565  0.33447579  0.00094345  1
  Fe  Fe162  1  0.00008841  0.50021056  0.00047547  1
  Fe  Fe163  1  0.24939752  0.49940027  0.37442782  1
  Fe  Fe164  1  0.00068887  0.83292681  0.00045806  1
  Fe  Fe165  1  0.25001861  0.49981660  0.62397975  1
  Fe  Fe166  1  0.74974995  0.00021734  0.37490702  1
  Fe  Fe167  1  0.74983632  0.66664780  0.62544167  1
  Fe  Fe168  1  0.24981192  0.66553346  0.37472018  1
  Fe  Fe169  1  0.74978643  0.49988950  0.62511949  1
  Fe  Fe170  1  -0.00023989  0.50085423  0.49869356  1
  Fe  Fe171  1  0.50039021  0.33362192  0.75040490  1
  Fe  Fe172  1  0.50029119  0.66659302  0.25012744  1
  Fe  Fe173  1  0.50055547  0.00069756  0.00079987  1
  Fe  Fe174  1  0.49967840  0.33236271  0.24916797  1
  Fe  Fe175  1  -0.00045040  0.16707908  0.25007096  1
  Fe  Fe176  1  -0.00033717  0.33419336  0.24994288  1
  Fe  Fe177  1  0.75010481  0.83312994  0.87557951  1
  Fe  Fe178  1  0.49952967  0.83287644  0.49971526  1
  Fe  Fe179  1  -0.00054703  0.66614418  0.49882882  1
  Fe  Fe180  1  0.74998462  0.50027301  0.37523717  1
  Fe  Fe181  1  0.75044827  0.16648548  0.12493886  1
  Fe  Fe182  1  0.24994188  0.33361250  0.62440717  1
  Fe  Fe183  1  0.50037044  0.50005181  0.00001179  1
  Fe  Fe184  1  0.50017960  0.66649171  0.74996739  1
  Fe  Fe185  1  0.75001009  0.00006661  0.87514933  1
  Fe  Fe186  1  0.75008636  0.33324769  0.87552887  1
  Fe  Fe187  1  0.24924012  0.16731699  0.37507202  1
  Fe  Fe188  1  0.25047091  0.33354933  0.12525139  1
  Fe  Fe189  1  0.25005162  0.83315230  0.87467709  1
  Fe  Fe190  1  0.75043554  0.16687770  0.87507700  1
  Fe  Fe191  1  0.74968508  0.83304994  0.37510843  1
  P  P192  1  0.04157202  0.25199537  0.10368458  1
  P  P193  1  0.04100550  0.25066116  0.35141489  1
  P  P194  1  0.04265738  0.25063623  0.60306112  1
  P  P195  1  0.04275492  0.25123829  0.85386889  1
  P  P196  1  0.04118122  0.58330499  0.10213998  1
  P  P197  1  0.04083322  0.58316903  0.35127865  1
  P  P198  1  0.04141727  0.58364477  0.60078632  1
  P  P199  1  0.04256923  0.58188294  0.85317155  1
  P  P200  1  0.04209039  0.91470120  0.10333026  1
  P  P201  1  0.04191701  0.91502600  0.35286530  1
  P  P202  1  0.04216362  0.91846839  0.60234861  1
  P  P203  1  0.04204028  0.91741072  0.85288912  1
  P  P204  1  0.54220502  0.24863087  0.10315951  1
  P  P205  1  0.54133238  0.24906916  0.35105560  1
  P  P206  1  0.54328135  0.24998495  0.60344837  1
  P  P207  1  0.54213205  0.25122504  0.85291997  1
  P  P208  1  0.54223327  0.58198791  0.10300722  1
  P  P209  1  0.54221871  0.58451019  0.35232850  1
  P  P210  1  0.54288366  0.58321728  0.60335057  1
  P  P211  1  0.54273845  0.58451065  0.85275718  1
  P  P212  1  0.54247671  0.91766265  0.10294204  1
  P  P213  1  0.54185500  0.91543297  0.35285768  1
  P  P214  1  0.54150415  0.91605928  0.60109933  1
  P  P215  1  0.54278940  0.91730027  0.85398311  1
  P  P216  1  0.45778946  0.08441587  0.14665914  1
  P  P217  1  0.45776608  0.08190673  0.39710244  1
  P  P218  1  0.45692377  0.08255628  0.64639938  1
  P  P219  1  0.45865598  0.08380263  0.89880790  1
  P  P220  1  0.45787163  0.41523346  0.14727026  1
  P  P221  1  0.45717095  0.41582137  0.39592781  1
  P  P222  1  0.45803553  0.41510988  0.64741707  1
  P  P223  1  0.45818664  0.41810858  0.89738735  1
  P  P224  1  0.45853835  0.74975056  0.14884786  1
  P  P225  1  0.45805939  0.75105827  0.39655589  1
  P  P226  1  0.45766871  0.74871332  0.64731648  1
  P  P227  1  0.45703988  0.74964582  0.89666688  1
  P  P228  1  0.95749514  0.08461518  0.14802716  1
  P  P229  1  0.95771398  0.08229620  0.39701304  1
  P  P230  1  0.95765178  0.08190615  0.64770108  1
  P  P231  1  0.95736243  0.08304627  0.89692477  1
  P  P232  1  0.95871031  0.41720490  0.14778057  1
  P  P233  1  0.95806951  0.41830884  0.39633290  1
  P  P234  1  0.95818409  0.41936445  0.64719691  1
  P  P235  1  0.95862006  0.41731251  0.89884835  1
  P  P236  1  0.95876510  0.74986014  0.14803420  1
  P  P237  1  0.95768357  0.74846120  0.39662337  1
  P  P238  1  0.95707736  0.74966543  0.64638029  1
  P  P239  1  0.95898656  0.74998756  0.89873317  1
  P  P240  1  0.20669466  0.08365392  0.22890888  1
  P  P241  1  0.20741274  0.08577450  0.47789937  1
  P  P242  1  0.20772496  0.08519489  0.72756387  1
  P  P243  1  0.20675594  0.08373529  0.97840248  1
  P  P244  1  0.20847139  0.41673144  0.22643696  1
  P  P245  1  0.20732760  0.41794865  0.47747336  1
  P  P246  1  0.20875065  0.41673333  0.72595779  1
  P  P247  1  0.20828760  0.41538437  0.97797270  1
  P  P248  1  0.20755591  0.74909281  0.22906599  1
  P  P249  1  0.20813807  0.74935793  0.47570959  1
  P  P250  1  0.20650273  0.74986593  0.72795479  1
  P  P251  1  0.20775550  0.75048369  0.97708847  1
  P  P252  1  0.70836252  0.08426412  0.22768787  1
  P  P253  1  0.70733618  0.08218101  0.47739445  1
  P  P254  1  0.70767447  0.08360944  0.72939238  1
  P  P255  1  0.70897511  0.08384978  0.97673998  1
  P  P256  1  0.70732689  0.41656199  0.22924963  1
  P  P257  1  0.70858171  0.41723588  0.47675009  1
  P  P258  1  0.70836060  0.41762542  0.72804098  1
  P  P259  1  0.70797303  0.41537339  0.97766530  1
  P  P260  1  0.70841501  0.74905295  0.22822555  1
  P  P261  1  0.70770459  0.75057051  0.47779963  1
  P  P262  1  0.70813777  0.74936842  0.72784872  1
  P  P263  1  0.70803798  0.75074501  0.97812372  1
  P  P264  1  0.29225651  0.25198011  0.02252181  1
  P  P265  1  0.29173695  0.24936849  0.27230028  1
  P  P266  1  0.29119939  0.24992613  0.52301944  1
  P  P267  1  0.29252684  0.25176522  0.77183418  1
  P  P268  1  0.29242833  0.58165467  0.02234235  1
  P  P269  1  0.29090226  0.58196009  0.27278116  1
  P  P270  1  0.29166955  0.58182619  0.52095890  1
  P  P271  1  0.29276378  0.58258303  0.77069598  1
  P  P272  1  0.29292701  0.91632847  0.02165759  1
  P  P273  1  0.29225006  0.91541289  0.27299920  1
  P  P274  1  0.29210429  0.91642223  0.52096750  1
  P  P275  1  0.29218566  0.91572330  0.77236038  1
  P  P276  1  0.79213547  0.24855029  0.02212491  1
  P  P277  1  0.79215550  0.25117766  0.27279356  1
  P  P278  1  0.79316033  0.25050848  0.52156423  1
  P  P279  1  0.79209119  0.25062175  0.77377530  1
  P  P280  1  0.79253506  0.58468861  0.02314226  1
  P  P281  1  0.79206801  0.58243520  0.27254893  1
  P  P282  1  0.79099301  0.58308292  0.52344891  1
  P  P283  1  0.79325299  0.58350436  0.77125993  1
  P  P284  1  0.79293112  0.91671392  0.02120202  1
  P  P285  1  0.79137339  0.91666117  0.27370923  1
  P  P286  1  0.79224382  0.91685178  0.52088930  1
  P  P287  1  0.79162930  0.91617854  0.77399583  1
  O  O288  1  0.03572965  0.25166581  0.18354814  1
  O  O289  1  0.03622679  0.25032769  0.43139930  1
  O  O290  1  0.03764208  0.25077446  0.68300646  1
  O  O291  1  0.03752669  0.25185223  0.93383943  1
  O  O292  1  0.03611600  0.58342860  0.18200398  1
  O  O293  1  0.03593644  0.58317602  0.43117473  1
  O  O294  1  0.03687997  0.58338511  0.68078207  1
  O  O295  1  0.03726238  0.58183094  0.93298601  1
  O  O296  1  0.03661608  0.91440296  0.18326153  1
  O  O297  1  0.03665890  0.91586211  0.43279296  1
  O  O298  1  0.03690658  0.91854905  0.68231342  1
  O  O299  1  0.03691478  0.91642983  0.93286446  1
  O  O300  1  0.53658288  0.24869756  0.18300490  1
  O  O301  1  0.53675761  0.24904341  0.43107720  1
  O  O302  1  0.53814558  0.25076855  0.68340328  1
  O  O303  1  0.53692733  0.25052396  0.93286997  1
  O  O304  1  0.53690434  0.58252188  0.18291517  1
  O  O305  1  0.53718333  0.58425677  0.43227788  1
  O  O306  1  0.53783146  0.58362773  0.68331016  1
  O  O307  1  0.53738681  0.58367643  0.93270595  1
  O  O308  1  0.53716713  0.91711340  0.18289939  1
  O  O309  1  0.53642319  0.91559736  0.43271931  1
  O  O310  1  0.53654498  0.91599002  0.68112400  1
  O  O311  1  0.53765574  0.91789087  0.93393025  1
  O  O312  1  0.46337351  0.08428635  0.06679280  1
  O  O313  1  0.46276729  0.08257352  0.31713026  1
  O  O314  1  0.46222984  0.08197565  0.56644990  1
  O  O315  1  0.46349561  0.08390997  0.81878473  1
  O  O316  1  0.46333013  0.41612507  0.06738527  1
  O  O317  1  0.46223368  0.41531584  0.31596170  1
  O  O318  1  0.46290578  0.41537530  0.56742341  1
  O  O319  1  0.46344608  0.41736437  0.81746174  1
  O  O320  1  0.46310282  0.74994663  0.06882173  1
  O  O321  1  0.46341831  0.75085306  0.31668977  1
  O  O322  1  0.46293688  0.74961467  0.56735895  1
  O  O323  1  0.46241096  0.74907966  0.81674860  1
  O  O324  1  0.96251709  0.08462796  0.06808642  1
  O  O325  1  0.96301461  0.08297623  0.31708991  1
  O  O326  1  0.96299927  0.08175173  0.56770653  1
  O  O327  1  0.96266726  0.08267066  0.81699757  1
  O  O328  1  0.96397930  0.41718400  0.06788840  1
  O  O329  1  0.96323933  0.41784048  0.31644695  1
  O  O330  1  0.96323729  0.41946205  0.56723815  1
  O  O331  1  0.96371023  0.41769361  0.81889976  1
  O  O332  1  0.96384401  0.75002745  0.06812861  1
  O  O333  1  0.96319298  0.74883800  0.31677541  1
  O  O334  1  0.96209592  0.74942511  0.56644635  1
  O  O335  1  0.96354660  0.74973126  0.81873870  1
  O  O336  1  0.21166308  0.08357188  0.05841524  1
  O  O337  1  0.21189299  0.08421622  0.30888979  1
  O  O338  1  0.21302080  0.08594390  0.55784008  1
  O  O339  1  0.21297709  0.08469990  0.80752433  1
  O  O340  1  0.21379896  0.41584104  0.05783530  1
  O  O341  1  0.21329520  0.41724616  0.30642097  1
  O  O342  1  0.21248975  0.41792069  0.55731329  1
  O  O343  1  0.21373972  0.41582896  0.80592344  1
  O  O344  1  0.21287472  0.75000714  0.05708261  1
  O  O345  1  0.21287574  0.74917912  0.30894870  1
  O  O346  1  0.21247479  0.74891514  0.55575312  1
  O  O347  1  0.21196534  0.75029997  0.80788591  1
  O  O348  1  0.71391599  0.08410653  0.05673411  1
  O  O349  1  0.71350776  0.08348423  0.30763649  1
  O  O350  1  0.71215976  0.08242329  0.55740084  1
  O  O351  1  0.71331962  0.08374340  0.80927602  1
  O  O352  1  0.71266566  0.41551259  0.05766836  1
  O  O353  1  0.71259585  0.41659416  0.30915373  1
  O  O354  1  0.71365777  0.41757141  0.55677115  1
  O  O355  1  0.71363350  0.41677098  0.80796309  1
  O  O356  1  0.71329201  0.74986780  0.05809207  1
  O  O357  1  0.71346663  0.74964732  0.30818906  1
  O  O358  1  0.71288536  0.74993619  0.55773831  1
  O  O359  1  0.71338150  0.75025417  0.80778339  1
  O  O360  1  0.28661231  0.25021015  0.19238167  1
  O  O361  1  0.28627229  0.24960536  0.44302631  1
  O  O362  1  0.28693865  0.25102604  0.69196259  1
  O  O363  1  0.28721533  0.25241939  0.94255681  1
  O  O364  1  0.28616054  0.58187059  0.19277186  1
  O  O365  1  0.28612338  0.58198311  0.44106127  1
  O  O366  1  0.28745882  0.58218980  0.69075400  1
  O  O367  1  0.28777309  0.58205491  0.94235341  1
  O  O368  1  0.28737616  0.91567011  0.19298959  1
  O  O369  1  0.28651665  0.91585478  0.44106070  1
  O  O370  1  0.28708725  0.91635790  0.69235408  1
  O  O371  1  0.28766943  0.91594458  0.94166951  1
  O  O372  1  0.78726932  0.25049265  0.19285401  1
  O  O373  1  0.78780687  0.25095916  0.44164383  1
  O  O374  1  0.78714342  0.25081593  0.69375172  1
  O  O375  1  0.78683478  0.24892682  0.94221035  1
  O  O376  1  0.78698694  0.58323776  0.19264296  1
  O  O377  1  0.78572413  0.58269644  0.44347991  1
  O  O378  1  0.78754753  0.58353882  0.69139447  1
  O  O379  1  0.78788982  0.58455452  0.94315135  1
  O  O380  1  0.78687020  0.91671610  0.19364421  1
  O  O381  1  0.78666396  0.91691961  0.44101503  1
  O  O382  1  0.78700864  0.91637827  0.69394957  1
  O  O383  1  0.78750070  0.91631736  0.94135737  1
  O  O384  1  0.22792298  0.25230325  0.05806395  1
  O  O385  1  0.22742427  0.24887546  0.30796241  1
  O  O386  1  0.22707776  0.24988949  0.55898215  1
  O  O387  1  0.22838131  0.25220695  0.80807250  1
  O  O388  1  0.22792115  0.58124863  0.05738404  1
  O  O389  1  0.22670936  0.58190592  0.30852688  1
  O  O390  1  0.22751994  0.58103919  0.55716390  1
  O  O391  1  0.22849921  0.58266256  0.80614656  1
  O  O392  1  0.22851011  0.91634845  0.05683608  1
  O  O393  1  0.22784417  0.91534927  0.30819694  1
  O  O394  1  0.22791444  0.91711407  0.55661163  1
  O  O395  1  0.22785040  0.91536009  0.80783942  1
  O  O396  1  0.72795567  0.24799689  0.05817196  1
  O  O397  1  0.72785601  0.25131870  0.30829627  1
  O  O398  1  0.72884395  0.25056714  0.55692576  1
  O  O399  1  0.72790257  0.25060669  0.80964793  1
  O  O400  1  0.72809160  0.58511748  0.05829778  1
  O  O401  1  0.72783969  0.58185445  0.30831605  1
  O  O402  1  0.72703676  0.58279795  0.55986394  1
  O  O403  1  0.72912706  0.58335844  0.80718206  1
  O  O404  1  0.72877727  0.91665376  0.05703661  1
  O  O405  1  0.72711180  0.91665138  0.30918201  1
  O  O406  1  0.72811003  0.91643047  0.55678648  1
  O  O407  1  0.72740976  0.91543875  0.80961411  1
  O  O408  1  0.27104156  0.08377848  0.19360508  1
  O  O409  1  0.27157247  0.08565457  0.44189977  1
  O  O410  1  0.27200999  0.08563466  0.69192549  1
  O  O411  1  0.27122795  0.08361971  0.94354564  1
  O  O412  1  0.27270792  0.41674697  0.19061273  1
  O  O413  1  0.27155681  0.41794362  0.44159407  1
  O  O414  1  0.27281967  0.41746732  0.68983204  1
  O  O415  1  0.27239316  0.41488718  0.94167709  1
  O  O416  1  0.27178191  0.74861814  0.19339973  1
  O  O417  1  0.27242133  0.74960891  0.44031985  1
  O  O418  1  0.27079805  0.74935503  0.69251905  1
  O  O419  1  0.27207280  0.75094949  0.94157066  1
  O  O420  1  0.77265010  0.08484985  0.19202020  1
  O  O421  1  0.77175719  0.08230464  0.44225093  1
  O  O422  1  0.77185478  0.08351986  0.69347454  1
  O  O423  1  0.77299789  0.08411287  0.94064179  1
  O  O424  1  0.77150509  0.41666309  0.19348583  1
  O  O425  1  0.77274234  0.41749369  0.44076305  1
  O  O426  1  0.77259359  0.41875488  0.69220926  1
  O  O427  1  0.77244710  0.41479987  0.94256275  1
  O  O428  1  0.77270867  0.74861082  0.19260446  1
  O  O429  1  0.77192839  0.75090249  0.44207872  1
  O  O430  1  0.77236246  0.74880711  0.69211273  1
  O  O431  1  0.77237970  0.75171702  0.94254373  1
  O  O432  1  0.02177624  0.08415850  0.18342677  1
  O  O433  1  0.02189770  0.08191991  0.43294883  1
  O  O434  1  0.02193298  0.08174302  0.68351523  1
  O  O435  1  0.02154996  0.08343580  0.93255311  1
  O  O436  1  0.02270069  0.41679976  0.18422740  1
  O  O437  1  0.02225090  0.41883918  0.43229963  1
  O  O438  1  0.02250018  0.41911914  0.68286481  1
  O  O439  1  0.02279138  0.41735646  0.93494733  1
  O  O440  1  0.02277341  0.75026478  0.18439722  1
  O  O441  1  0.02176438  0.74804204  0.43294119  1
  O  O442  1  0.02142027  0.75014180  0.68165054  1
  O  O443  1  0.02315920  0.75025342  0.93453266  1
  O  O444  1  0.52189268  0.08468546  0.18290586  1
  O  O445  1  0.52206141  0.08118311  0.43274121  1
  O  O446  1  0.52128588  0.08329292  0.68169935  1
  O  O447  1  0.52291243  0.08382564  0.93455815  1
  O  O448  1  0.52200687  0.41514001  0.18320219  1
  O  O449  1  0.52164104  0.41613659  0.43095991  1
  O  O450  1  0.52239297  0.41504587  0.68283646  1
  O  O451  1  0.52242468  0.41829434  0.93325128  1
  O  O452  1  0.52285223  0.74944266  0.18434517  1
  O  O453  1  0.52219141  0.75168651  0.43270830  1
  O  O454  1  0.52197056  0.74811738  0.68312486  1
  O  O455  1  0.52130349  0.74982382  0.93216922  1
  O  O456  1  0.47814730  0.24871703  0.06684574  1
  O  O457  1  0.47706492  0.24874787  0.31542657  1
  O  O458  1  0.47884219  0.24927187  0.56835365  1
  O  O459  1  0.47789106  0.25183430  0.81709979  1
  O  O460  1  0.47794603  0.58127373  0.06725880  1
  O  O461  1  0.47788062  0.58470147  0.31688982  1
  O  O462  1  0.47853758  0.58316700  0.56803788  1
  O  O463  1  0.47856070  0.58479894  0.81674330  1
  O  O464  1  0.47823986  0.91849760  0.06718529  1
  O  O465  1  0.47776507  0.91532155  0.31666633  1
  O  O466  1  0.47729373  0.91601145  0.56518143  1
  O  O467  1  0.47847536  0.91652403  0.81859187  1
  O  O468  1  0.97761587  0.25251470  0.06709170  1
  O  O469  1  0.97686028  0.25138083  0.31558131  1
  O  O470  1  0.97830149  0.25067707  0.56787213  1
  O  O471  1  0.97846952  0.25089804  0.81845884  1
  O  O472  1  0.97719369  0.58295691  0.06577832  1
  O  O473  1  0.97679051  0.58290062  0.31512444  1
  O  O474  1  0.97712265  0.58399646  0.56498718  1
  O  O475  1  0.97839976  0.58173295  0.81698830  1
  O  O476  1  0.97789673  0.91439571  0.06741696  1
  O  O477  1  0.97770068  0.91479210  0.31703781  1
  O  O478  1  0.97789363  0.91799428  0.56660492  1
  O  O479  1  0.97772262  0.91830283  0.81713899  1
  O  O480  1  0.07286498  0.31532624  0.07524062  1
  O  O481  1  0.07253858  0.31403355  0.32362126  1
  O  O482  1  0.07364789  0.31410827  0.57477503  1
  O  O483  1  0.07393960  0.31443436  0.82513455  1
  O  O484  1  0.07164786  0.64717799  0.07349606  1
  O  O485  1  0.07150126  0.64689350  0.32269630  1
  O  O486  1  0.07220914  0.64737155  0.57246641  1
  O  O487  1  0.07354254  0.64558060  0.82502242  1
  O  O488  1  0.07274864  0.97888306  0.07603504  1
  O  O489  1  0.07326810  0.97833800  0.32459876  1
  O  O490  1  0.07283659  0.98182285  0.57338917  1
  O  O491  1  0.07306435  0.98102746  0.82490587  1
  O  O492  1  0.57365483  0.31213563  0.07528787  1
  O  O493  1  0.57166891  0.31307362  0.32288510  1
  O  O494  1  0.57430470  0.31314027  0.57434224  1
  O  O495  1  0.57291002  0.31494199  0.82478521  1
  O  O496  1  0.57311484  0.64566981  0.07493149  1
  O  O497  1  0.57298830  0.64808349  0.32396201  1
  O  O498  1  0.57423414  0.64637749  0.57488377  1
  O  O499  1  0.57339909  0.64824606  0.82457413  1
  O  O500  1  0.57351965  0.98123109  0.07477793  1
  O  O501  1  0.57319038  0.97888952  0.32471181  1
  O  O502  1  0.57217439  0.97988578  0.57306190  1
  O  O503  1  0.57362589  0.98066678  0.82522567  1
  O  O504  1  0.42661547  0.02082425  0.17473533  1
  O  O505  1  0.42689291  0.01831047  0.42533983  1
  O  O506  1  0.42602485  0.01918351  0.67509427  1
  O  O507  1  0.42797595  0.02003947  0.92693460  1
  O  O508  1  0.42742181  0.35124968  0.17526574  1
  O  O509  1  0.42602883  0.35257238  0.42456693  1
  O  O510  1  0.42748898  0.35153865  0.67601442  1
  O  O511  1  0.42685352  0.35482274  0.92568599  1
  O  O512  1  0.42767353  0.68596175  0.17680914  1
  O  O513  1  0.42716446  0.68730629  0.42466770  1
  O  O514  1  0.42690061  0.68498890  0.67535501  1
  O  O515  1  0.42569072  0.68647211  0.92526829  1
  O  O516  1  0.92601020  0.02104375  0.17543474  1
  O  O517  1  0.92706864  0.01851778  0.42517980  1
  O  O518  1  0.92649377  0.01876830  0.67654698  1
  O  O519  1  0.92624026  0.01977002  0.92548662  1
  O  O520  1  0.92715978  0.35402653  0.17627272  1
  O  O521  1  0.92721580  0.35474466  0.42494619  1
  O  O522  1  0.92709438  0.35556790  0.67495788  1
  O  O523  1  0.92804205  0.35342027  0.92700100  1
  O  O524  1  0.92840075  0.68579053  0.17638782  1
  O  O525  1  0.92657792  0.68499597  0.42506028  1
  O  O526  1  0.92617495  0.68636982  0.67509855  1
  O  O527  1  0.92864585  0.68603651  0.92720471  1
  O  O528  1  0.17599387  0.01971449  0.20125556  1
  O  O529  1  0.17633334  0.02190067  0.45051475  1
  O  O530  1  0.17692843  0.02143996  0.69960210  1
  O  O531  1  0.17555331  0.02042142  0.95017060  1
  O  O532  1  0.17794078  0.35270021  0.19874351  1
  O  O533  1  0.17632555  0.35423627  0.44935857  1
  O  O534  1  0.17826101  0.35308394  0.69711531  1
  O  O535  1  0.17708527  0.35222802  0.94920652  1
  O  O536  1  0.17611185  0.68583042  0.20056144  1
  O  O537  1  0.17785505  0.68544551  0.44712257  1
  O  O538  1  0.17524669  0.68637869  0.69988996  1
  O  O539  1  0.17694414  0.68662933  0.94947906  1
  O  O540  1  0.67732441  0.02077400  0.19938970  1
  O  O541  1  0.67685318  0.01865451  0.44857956  1
  O  O542  1  0.67638106  0.02011564  0.70128730  1
  O  O543  1  0.67877557  0.01960330  0.94875746  1
  O  O544  1  0.67614317  0.35319697  0.20077162  1
  O  O545  1  0.67828976  0.35308943  0.44870227  1
  O  O546  1  0.67768492  0.35399825  0.69959714  1
  O  O547  1  0.67698739  0.35199604  0.94921652  1
  O  O548  1  0.67778374  0.68535685  0.19987577  1
  O  O549  1  0.67639726  0.68713994  0.44980473  1
  O  O550  1  0.67745190  0.68564182  0.69963546  1
  O  O551  1  0.67715794  0.68726209  0.94966011  1
  O  O552  1  0.32357702  0.31487194  0.05167896  1
  O  O553  1  0.32266174  0.31285552  0.30073575  1
  O  O554  1  0.32155594  0.31411319  0.55093904  1
  O  O555  1  0.32348815  0.31527966  0.80008526  1
  O  O556  1  0.32318786  0.64530938  0.05063207  1
  O  O557  1  0.32128703  0.64592756  0.30123339  1
  O  O558  1  0.32234644  0.64573500  0.54893872  1
  O  O559  1  0.32374172  0.64617228  0.79875499  1
  O  O560  1  0.32371719  0.97999058  0.04989966  1
  O  O561  1  0.32325834  0.97910742  0.30072978  1
  O  O562  1  0.32344325  0.97999330  0.54858570  1
  O  O563  1  0.32325189  0.97936174  0.80022733  1
  O  O564  1  0.82309076  0.31216876  0.05039373  1
  O  O565  1  0.82264590  0.31498657  0.30115041  1
  O  O566  1  0.82462073  0.31365788  0.54999646  1
  O  O567  1  0.82278916  0.31438824  0.80195561  1
  O  O568  1  0.82328297  0.64811363  0.05185428  1
  O  O569  1  0.82310255  0.64583798  0.30100993  1
  O  O570  1  0.82125286  0.64734382  0.55114293  1
  O  O571  1  0.82455449  0.64686764  0.79962054  1
  O  O572  1  0.82402304  0.98027567  0.04934320  1
  O  O573  1  0.82208770  0.98044252  0.30174274  1
  O  O574  1  0.82329708  0.98018524  0.54965266  1
  O  O575  1  0.82160157  0.98031994  0.80233489  1
  O  O576  1  0.42663927  0.14761613  0.17549154  1
  O  O577  1  0.42691365  0.14546990  0.42533810  1
  O  O578  1  0.42572989  0.14603054  0.67444524  1
  O  O579  1  0.42788581  0.14763106  0.92666500  1
  O  O580  1  0.42626789  0.47833525  0.17549023  1
  O  O581  1  0.42636883  0.47955973  0.42390541  1
  O  O582  1  0.42700240  0.47875180  0.67513456  1
  O  O583  1  0.42772760  0.48194130  0.92560469  1
  O  O584  1  0.42814748  0.81364114  0.17703987  1
  O  O585  1  0.42682367  0.81414507  0.42553270  1
  O  O586  1  0.42672068  0.81226585  0.67553893  1
  O  O587  1  0.42610433  0.81325217  0.92469345  1
  O  O588  1  0.92732692  0.14839169  0.17673907  1
  O  O589  1  0.92655330  0.14575204  0.42516357  1
  O  O590  1  0.92693726  0.14596385  0.67519434  1
  O  O591  1  0.92618467  0.14666602  0.92465079  1
  O  O592  1  0.92813571  0.48113997  0.17590513  1
  O  O593  1  0.92695660  0.48164311  0.42491758  1
  O  O594  1  0.92755727  0.48262743  0.67631605  1
  O  O595  1  0.92745395  0.48063897  0.92728377  1
  O  O596  1  0.92726153  0.81293522  0.17677765  1
  O  O597  1  0.92657731  0.81190544  0.42487785  1
  O  O598  1  0.92595106  0.81322530  0.67447589  1
  O  O599  1  0.92800709  0.81351803  0.92677441  1
  O  O600  1  0.07264449  0.18832672  0.07579389  1
  O  O601  1  0.07091403  0.18646183  0.32305591  1
  O  O602  1  0.07353876  0.18707806  0.57504726  1
  O  O603  1  0.07385137  0.18758574  0.82619246  1
  O  O604  1  0.07260795  0.51997989  0.07400268  1
  O  O605  1  0.07205113  0.51986068  0.32256849  1
  O  O606  1  0.07197529  0.52008563  0.57201376  1
  O  O607  1  0.07345589  0.51862526  0.82398568  1
  O  O608  1  0.07342617  0.85175214  0.07438770  1
  O  O609  1  0.07252895  0.85121891  0.32491992  1
  O  O610  1  0.07343678  0.85475078  0.57484107  1
  O  O611  1  0.07269145  0.85388456  0.82419429  1
  O  O612  1  0.57304840  0.18528263  0.07423515  1
  O  O613  1  0.57232273  0.18545348  0.32313769  1
  O  O614  1  0.57444124  0.18636909  0.57562820  1
  O  O615  1  0.57308075  0.18771938  0.82476286  1
  O  O616  1  0.57320097  0.51851038  0.07463020  1
  O  O617  1  0.57321650  0.52087657  0.32463392  1
  O  O618  1  0.57359810  0.51945225  0.57527734  1
  O  O619  1  0.57405771  0.52112796  0.82468998  1
  O  O620  1  0.57328499  0.85395566  0.07504061  1
  O  O621  1  0.57277581  0.85208354  0.32397915  1
  O  O622  1  0.57222394  0.85226642  0.57318629  1
  O  O623  1  0.57405476  0.85380806  0.82605504  1
  O  O624  1  0.32271512  0.18779920  0.05001389  1
  O  O625  1  0.32255341  0.18579916  0.30057267  1
  O  O626  1  0.32254050  0.18678998  0.55161213  1
  O  O627  1  0.32359806  0.18831423  0.80047833  1
  O  O628  1  0.32319956  0.51820683  0.05093494  1
  O  O629  1  0.32216371  0.51865481  0.30108128  1
  O  O630  1  0.32313422  0.51874503  0.54960852  1
  O  O631  1  0.32408282  0.51939368  0.79916423  1
  O  O632  1  0.32428955  0.85313225  0.05014799  1
  O  O633  1  0.32284937  0.85176357  0.30131806  1
  O  O634  1  0.32309327  0.85301939  0.54942613  1
  O  O635  1  0.32277088  0.85197911  0.80051497  1
  O  O636  1  0.82314278  0.18522276  0.05097180  1
  O  O637  1  0.82353031  0.18792642  0.30105754  1
  O  O638  1  0.82390847  0.18673229  0.54962148  1
  O  O639  1  0.82290267  0.18684613  0.80155125  1
  O  O640  1  0.82313949  0.52073533  0.05082119  1
  O  O641  1  0.82289632  0.51885556  0.30086125  1
  O  O642  1  0.82243305  0.51986659  0.55173659  1
  O  O643  1  0.82458262  0.52026961  0.79990928  1
  O  O644  1  0.82432472  0.85366485  0.05018542  1
  O  O645  1  0.82196817  0.85278616  0.30176303  1
  O  O646  1  0.82381196  0.85357176  0.54911554  1
  O  O647  1  0.82298062  0.85274209  0.80184410  1
  O  O648  1  0.17523267  0.14664608  0.20017645  1
  O  O649  1  0.17639126  0.14896764  0.44899794  1
  O  O650  1  0.17674272  0.14874831  0.69958299  1
  O  O651  1  0.17602676  0.14749105  0.95051036  1
  O  O652  1  0.17748164  0.48006421  0.19765570  1
  O  O653  1  0.17634447  0.48103918  0.44811478  1
  O  O654  1  0.17756589  0.48040668  0.69834532  1
  O  O655  1  0.17737684  0.47904572  0.94961239  1
  O  O656  1  0.17658464  0.81254200  0.20058899  1
  O  O657  1  0.17717032  0.81309227  0.44801359  1
  O  O658  1  0.17546856  0.81320884  0.69937594  1
  O  O659  1  0.17701637  0.81402107  0.94868345  1
  O  O660  1  0.67768992  0.14791609  0.19933428  1
  O  O661  1  0.67617524  0.14578265  0.44957821  1
  O  O662  1  0.67657111  0.14699297  0.70085611  1
  O  O663  1  0.67750942  0.14698255  0.94829847  1
  O  O664  1  0.67602126  0.47985376  0.20072404  1
  O  O665  1  0.67722831  0.48050529  0.44841305  1
  O  O666  1  0.67711347  0.48099661  0.69977359  1
  O  O667  1  0.67755325  0.47935820  0.94982870  1
  O  O668  1  0.67730185  0.81249332  0.19999542  1
  O  O669  1  0.67713642  0.81419854  0.44915172  1
  O  O670  1  0.67689238  0.81272085  0.69954489  1
  O  O671  1  0.67699833  0.81427897  0.95000416  1
