# generated using pymatgen
data_Na2MnFe(PO4)2
_symmetry_space_group_name_H-M   'P 1'
_cell_length_a   22.33999041
_cell_length_b   20.09692606
_cell_length_c   19.45224176
_cell_angle_alpha   89.93629156
_cell_angle_beta   90.12824379
_cell_angle_gamma   90.02270266
_symmetry_Int_Tables_number   1
_chemical_formula_structural   Na2MnFe(PO4)2
_chemical_formula_sum   'Na96 Mn48 Fe48 P96 O384'
_cell_volume   8733.35040492
_cell_formula_units_Z   48
loop_
 _symmetry_equiv_pos_site_id
 _symmetry_equiv_pos_as_xyz
  1  'x, y, z'
loop_
 _atom_site_type_symbol
 _atom_site_label
 _atom_site_symmetry_multiplicity
 _atom_site_fract_x
 _atom_site_fract_y
 _atom_site_fract_z
 _atom_site_occupancy
  Na  Na0  1  0.14016224  0.24980300  0.24362185  1
  Na  Na1  1  0.14026695  0.24935410  0.49470832  1
  Na  Na2  1  0.14021883  0.25050724  0.74304530  1
  Na  Na3  1  0.14003224  0.25018765  0.99191908  1
  Na  Na4  1  0.14016450  0.58231602  0.24475876  1
  Na  Na5  1  0.13957385  0.58238596  0.49398555  1
  Na  Na6  1  0.14004225  0.58220755  0.74175397  1
  Na  Na7  1  0.14060138  0.58213915  0.99245712  1
  Na  Na8  1  0.13981628  0.91826230  0.24370891  1
  Na  Na9  1  0.13948153  0.91626614  0.49368901  1
  Na  Na10  1  0.13967570  0.91728409  0.74267851  1
  Na  Na11  1  0.13987929  0.91734512  0.99254428  1
  Na  Na12  1  0.63955501  0.25022363  0.24315786  1
  Na  Na13  1  0.63943250  0.25020969  0.49343882  1
  Na  Na14  1  0.63982987  0.25113642  0.74375066  1
  Na  Na15  1  0.63979012  0.24896167  0.99372369  1
  Na  Na16  1  0.64005476  0.58491631  0.24384181  1
  Na  Na17  1  0.64005790  0.58357583  0.49443125  1
  Na  Na18  1  0.63990097  0.58406925  0.74402680  1
  Na  Na19  1  0.64014844  0.58396563  0.99407645  1
  Na  Na20  1  0.63960845  0.91799624  0.24308008  1
  Na  Na21  1  0.63972781  0.91622676  0.49376231  1
  Na  Na22  1  0.63963436  0.91721498  0.74497616  1
  Na  Na23  1  0.63973879  0.91713228  0.99431418  1
  Na  Na24  1  0.36034610  0.08397892  0.00680530  1
  Na  Na25  1  0.36004336  0.08393833  0.25627402  1
  Na  Na26  1  0.35989171  0.08285494  0.50689539  1
  Na  Na27  1  0.35994473  0.08406863  0.75712008  1
  Na  Na28  1  0.36002089  0.41547562  0.00554636  1
  Na  Na29  1  0.35986899  0.41556651  0.25595218  1
  Na  Na30  1  0.35945151  0.41506224  0.50711834  1
  Na  Na31  1  0.36001408  0.41527812  0.75677278  1
  Na  Na32  1  0.35925973  0.74965800  0.00631712  1
  Na  Na33  1  0.36010895  0.74981218  0.25794483  1
  Na  Na34  1  0.36023324  0.74891203  0.50695545  1
  Na  Na35  1  0.35932698  0.74899820  0.75555647  1
  Na  Na36  1  0.86052909  0.08210550  0.00663467  1
  Na  Na37  1  0.86050554  0.08357503  0.25557339  1
  Na  Na38  1  0.86045183  0.08357118  0.50677188  1
  Na  Na39  1  0.86032634  0.08276263  0.75713871  1
  Na  Na40  1  0.86052314  0.41555447  0.00581500  1
  Na  Na41  1  0.86015829  0.41736861  0.25576308  1
  Na  Na42  1  0.85999007  0.41730796  0.50660880  1
  Na  Na43  1  0.86058168  0.41739512  0.75584377  1
  Na  Na44  1  0.86013374  0.75123997  0.00475106  1
  Na  Na45  1  0.86008163  0.75126919  0.25560034  1
  Na  Na46  1  0.86039706  0.74951878  0.50775821  1
  Na  Na47  1  0.86031864  0.75124535  0.75718063  1
  Na  Na48  1  0.10924380  0.08355201  0.11744095  1
  Na  Na49  1  0.10979533  0.08305830  0.36960517  1
  Na  Na50  1  0.10939124  0.08262130  0.61888717  1
  Na  Na51  1  0.10936644  0.08388525  0.86817223  1
  Na  Na52  1  0.10933329  0.41629442  0.11798249  1
  Na  Na53  1  0.10972635  0.41729018  0.36970146  1
  Na  Na54  1  0.11013074  0.41644985  0.61826243  1
  Na  Na55  1  0.10972527  0.41600361  0.86634989  1
  Na  Na56  1  0.10957920  0.75083078  0.11865850  1
  Na  Na57  1  0.10903700  0.75014299  0.36980684  1
  Na  Na58  1  0.10872518  0.75022103  0.61787533  1
  Na  Na59  1  0.10885765  0.75059646  0.86711324  1
  Na  Na60  1  0.60904404  0.08440448  0.11851375  1
  Na  Na61  1  0.60849300  0.08418397  0.36810223  1
  Na  Na62  1  0.60889552  0.08271660  0.61898585  1
  Na  Na63  1  0.60940535  0.08395764  0.86936676  1
  Na  Na64  1  0.60888461  0.41581189  0.11859974  1
  Na  Na65  1  0.60877159  0.41639936  0.36912442  1
  Na  Na66  1  0.60928057  0.41620252  0.61808978  1
  Na  Na67  1  0.60930228  0.41747865  0.86911496  1
  Na  Na68  1  0.60916600  0.75089852  0.11894628  1
  Na  Na69  1  0.60888663  0.75095285  0.36879432  1
  Na  Na70  1  0.60883679  0.74959669  0.61945801  1
  Na  Na71  1  0.60887109  0.75127911  0.86920007  1
  Na  Na72  1  0.39062906  0.24889871  0.13042841  1
  Na  Na73  1  0.39065352  0.24964274  0.38092356  1
  Na  Na74  1  0.39004389  0.24857754  0.63216846  1
  Na  Na75  1  0.39044943  0.25011697  0.88233494  1
  Na  Na76  1  0.39064760  0.58234519  0.13169238  1
  Na  Na77  1  0.39062915  0.58307837  0.38211848  1
  Na  Na78  1  0.39032291  0.58182533  0.63171118  1
  Na  Na79  1  0.39018676  0.58256498  0.88103889  1
  Na  Na80  1  0.39091239  0.91744995  0.13274746  1
  Na  Na81  1  0.39046665  0.91690445  0.38161559  1
  Na  Na82  1  0.39051143  0.91481232  0.63121826  1
  Na  Na83  1  0.39043721  0.91799575  0.88129423  1
  Na  Na84  1  0.89102337  0.24963732  0.13070201  1
  Na  Na85  1  0.89114072  0.25001250  0.38109631  1
  Na  Na86  1  0.89141716  0.24949280  0.63177295  1
  Na  Na87  1  0.89132273  0.24910182  0.88104483  1
  Na  Na88  1  0.89130017  0.58375821  0.13046584  1
  Na  Na89  1  0.89107553  0.58379123  0.38185963  1
  Na  Na90  1  0.89119871  0.58328327  0.63201120  1
  Na  Na91  1  0.89121448  0.58350376  0.88016397  1
  Na  Na92  1  0.89075603  0.91671009  0.12985571  1
  Na  Na93  1  0.89124541  0.91744425  0.38158086  1
  Na  Na94  1  0.89117464  0.91687924  0.63228040  1
  Na  Na95  1  0.89068058  0.91752782  0.88177158  1
  Mn  Mn96  1  0.00081975  0.33421759  0.25081240  1
  Mn  Mn97  1  0.74955452  0.66661003  0.62596268  1
  Mn  Mn98  1  0.75041285  0.83385214  0.37520549  1
  Mn  Mn99  1  0.00106697  0.66749405  -0.00070681  1
  Mn  Mn100  1  0.74999526  0.33338435  0.87490981  1
  Mn  Mn101  1  0.74996015  0.50045535  0.37482958  1
  Mn  Mn102  1  0.74999568  0.00017653  0.62548760  1
  Mn  Mn103  1  0.25010761  0.66579626  0.12523026  1
  Mn  Mn104  1  0.75038835  0.66775949  0.87476041  1
  Mn  Mn105  1  0.75028133  0.50049470  0.12490140  1
  Mn  Mn106  1  0.49934322  0.83326126  0.75011873  1
  Mn  Mn107  1  0.00089313  0.16601672  0.24990900  1
  Mn  Mn108  1  0.75077685  0.66846301  0.12411949  1
  Mn  Mn109  1  0.49969987  0.49943175  0.25045720  1
  Mn  Mn110  1  0.24988764  0.83386782  0.12547195  1
  Mn  Mn111  1  0.49976131  -0.00049799  0.49946736  1
  Mn  Mn112  1  0.25024393  -0.00022284  0.62546643  1
  Mn  Mn113  1  0.24958205  0.66518939  0.37605733  1
  Mn  Mn114  1  0.25046242  0.16585172  0.37528312  1
  Mn  Mn115  1  0.75013731  0.33357747  0.37488058  1
  Mn  Mn116  1  0.75023021  0.00012143  0.12504295  1
  Mn  Mn117  1  0.75057149  0.16596626  0.87465053  1
  Mn  Mn118  1  0.74963302  0.33246825  0.12536009  1
  Mn  Mn119  1  0.75046554  0.66725648  0.37507244  1
  Mn  Mn120  1  0.74957402  0.16695698  0.62540258  1
  Mn  Mn121  1  -0.00010721  0.66644589  0.24963239  1
  Mn  Mn122  1  0.24996574  0.66563473  0.62492449  1
  Mn  Mn123  1  0.75007115  0.83392634  0.62578211  1
  Mn  Mn124  1  0.49972653  0.49952899  0.49999523  1
  Mn  Mn125  1  0.00006349  0.83450275  0.24985056  1
  Mn  Mn126  1  0.24997230  0.49887729  0.12429582  1
  Mn  Mn127  1  0.24886548  0.66569031  0.87453088  1
  Mn  Mn128  1  0.49882210  0.83449826  0.00026728  1
  Mn  Mn129  1  0.75016194  0.50046253  0.87526922  1
  Mn  Mn130  1  0.25032563  0.00144265  0.12397875  1
  Mn  Mn131  1  0.74979041  0.00064883  0.37453814  1
  Mn  Mn132  1  0.00021893  0.33349198  0.50043728  1
  Mn  Mn133  1  0.24901239  0.33225545  0.12459670  1
  Mn  Mn134  1  0.25071987  0.00101852  0.87416335  1
  Mn  Mn135  1  0.24977483  0.83326887  0.87483011  1
  Mn  Mn136  1  0.75064492  0.33444867  0.62451497  1
  Mn  Mn137  1  0.50000589  0.16654013  0.75040547  1
  Mn  Mn138  1  0.75021825  0.16700286  0.37512262  1
  Mn  Mn139  1  0.24999973  0.33319714  0.37507702  1
  Mn  Mn140  1  0.49917611  0.66643200  0.00064680  1
  Mn  Mn141  1  0.50015623  0.49964031  0.74996528  1
  Mn  Mn142  1  0.00093336  0.49929091  -0.00096742  1
  Mn  Mn143  1  0.24965090  0.83341112  0.37522328  1
  Fe  Fe144  1  0.00016860  0.50022030  0.24987743  1
  Fe  Fe145  1  0.00059235  0.00003277  -0.00105183  1
  Fe  Fe146  1  0.49955041  0.66637261  0.75027689  1
  Fe  Fe147  1  -0.00018164  0.66674501  0.50032348  1
  Fe  Fe148  1  -0.00053706  0.83367204  0.50062982  1
  Fe  Fe149  1  0.74993401  0.83417002  0.12477750  1
  Fe  Fe150  1  0.24990404  0.16644952  0.62543188  1
  Fe  Fe151  1  0.50000288  0.00105711  0.00106430  1
  Fe  Fe152  1  0.74962068  -0.00019954  0.87606918  1
  Fe  Fe153  1  0.00022102  0.66690478  0.74907335  1
  Fe  Fe154  1  0.50005229  0.33290591  0.75039864  1
  Fe  Fe155  1  0.74926031  0.83415215  0.87563623  1
  Fe  Fe156  1  0.00060717  0.49970898  0.74959146  1
  Fe  Fe157  1  0.24972965  0.16672299  0.12480057  1
  Fe  Fe158  1  0.50021082  0.33328648  0.00008607  1
  Fe  Fe159  1  0.00039860  0.33258135  0.74922662  1
  Fe  Fe160  1  -0.00013233  0.00000317  0.75005503  1
  Fe  Fe161  1  0.49992413  0.16687272  0.00046101  1
  Fe  Fe162  1  -0.00029480  0.50028745  0.50050721  1
  Fe  Fe163  1  0.50018822  0.49973676  0.00041045  1
  Fe  Fe164  1  0.49935976  0.16675370  0.49947463  1
  Fe  Fe165  1  0.49978331  0.83343197  0.25037973  1
  Fe  Fe166  1  -0.00003521  0.16597166  0.75048007  1
  Fe  Fe167  1  -0.00006818  0.33299180  -0.00121802  1
  Fe  Fe168  1  0.24997627  0.33289944  0.87409180  1
  Fe  Fe169  1  0.25001408  0.16732892  0.87496303  1
  Fe  Fe170  1  0.24975029  0.83306100  0.62462371  1
  Fe  Fe171  1  0.49970301  -0.00002498  0.75005950  1
  Fe  Fe172  1  0.74978369  0.50037125  0.62513305  1
  Fe  Fe173  1  0.25028987  0.49881059  0.62495623  1
  Fe  Fe174  1  0.49945800  0.33214302  0.49941593  1
  Fe  Fe175  1  0.00025704  0.16663657  -0.00063332  1
  Fe  Fe176  1  0.49955809  0.00059796  0.25071568  1
  Fe  Fe177  1  0.25032292  0.49896977  0.87395517  1
  Fe  Fe178  1  0.50026133  0.16719137  0.24947952  1
  Fe  Fe179  1  0.49999028  0.83297173  0.49984882  1
  Fe  Fe180  1  0.00038157  0.16615031  0.50104179  1
  Fe  Fe181  1  0.00026296  0.00034449  0.24984747  1
  Fe  Fe182  1  0.49992679  0.66664600  0.25059220  1
  Fe  Fe183  1  0.00020875  0.83389597  0.74933565  1
  Fe  Fe184  1  0.24979597  -0.00019095  0.37547899  1
  Fe  Fe185  1  0.00009297  0.83417011  -0.00119405  1
  Fe  Fe186  1  0.49961576  0.33275956  0.24935529  1
  Fe  Fe187  1  0.00002771  0.00029211  0.50068981  1
  Fe  Fe188  1  0.25014183  0.49904782  0.37547137  1
  Fe  Fe189  1  0.75047537  0.16629503  0.12467281  1
  Fe  Fe190  1  0.49983763  0.66667193  0.50010491  1
  Fe  Fe191  1  0.25049697  0.33271355  0.62568205  1
  P  P192  1  0.04159227  0.25018665  0.10072699  1
  P  P193  1  0.04326366  0.24954165  0.35383254  1
  P  P194  1  0.04197955  0.24850284  0.60362580  1
  P  P195  1  0.04144534  0.24969086  0.85161499  1
  P  P196  1  0.04326358  0.58318077  0.10265734  1
  P  P197  1  0.04181560  0.58225320  0.35329990  1
  P  P198  1  0.04107515  0.58345123  0.60233401  1
  P  P199  1  0.04181061  0.58355793  0.85056190  1
  P  P200  1  0.04177320  0.91707806  0.10091024  1
  P  P201  1  0.04204780  0.91863995  0.35324673  1
  P  P202  1  0.04110952  0.91678299  0.60240977  1
  P  P203  1  0.04133266  0.91696977  0.85153482  1
  P  P204  1  0.54115591  0.25016366  0.10209907  1
  P  P205  1  0.54098769  0.25034833  0.35172862  1
  P  P206  1  0.54090894  0.24934762  0.60167630  1
  P  P207  1  0.54198764  0.25131431  0.85332642  1
  P  P208  1  0.54202826  0.58208396  0.10316406  1
  P  P209  1  0.54185134  0.58465264  0.35314211  1
  P  P210  1  0.54156747  0.58424840  0.60276490  1
  P  P211  1  0.54192923  0.58421769  0.85302809  1
  P  P212  1  0.54134352  0.91848650  0.10369257  1
  P  P213  1  0.54107967  0.91676087  0.35184875  1
  P  P214  1  0.54182694  0.91506737  0.60251562  1
  P  P215  1  0.54129575  0.91864122  0.85316005  1
  P  P216  1  0.45886486  0.08348644  0.14826317  1
  P  P217  1  0.45770784  0.08452540  0.39687674  1
  P  P218  1  0.45751972  0.08189097  0.64757617  1
  P  P219  1  0.45871688  0.08361957  0.89874913  1
  P  P220  1  0.45783620  0.41493503  0.14677708  1
  P  P221  1  0.45733406  0.41484127  0.39743887  1
  P  P222  1  0.45810783  0.41426140  0.64742240  1
  P  P223  1  0.45885009  0.41644435  0.89837688  1
  P  P224  1  0.45815793  0.74985986  0.14910759  1
  P  P225  1  0.45849451  0.75014603  0.39779965  1
  P  P226  1  0.45746702  0.74805143  0.64705767  1
  P  P227  1  0.45671722  0.75007772  0.89688928  1
  P  P228  1  0.95863790  0.08192940  0.14641328  1
  P  P229  1  0.95888986  0.08337421  0.39867848  1
  P  P230  1  0.95891630  0.08323344  0.64824589  1
  P  P231  1  0.95902761  0.08341841  0.89757009  1
  P  P232  1  0.95833179  0.41755307  0.14704527  1
  P  P233  1  0.95806373  0.41825540  0.39774482  1
  P  P234  1  0.95946220  0.41662524  0.64797365  1
  P  P235  1  0.95853584  0.41509281  0.89579055  1
  P  P236  1  0.95771734  0.75097435  0.14617066  1
  P  P237  1  0.95864909  0.75033063  0.39891488  1
  P  P238  1  0.95875337  0.75054858  0.64776026  1
  P  P239  1  0.95847201  0.75184976  0.89596674  1
  P  P240  1  0.20753091  0.08451288  0.22741694  1
  P  P241  1  0.20800889  0.08189370  0.47825044  1
  P  P242  1  0.20800770  0.08511030  0.72787640  1
  P  P243  1  0.20792573  0.08514517  0.97702531  1
  P  P244  1  0.20685368  0.41619922  0.22811785  1
  P  P245  1  0.20804753  0.41719221  0.47858983  1
  P  P246  1  0.20912056  0.41599756  0.72699097  1
  P  P247  1  0.20843363  0.41604342  0.97530391  1
  P  P248  1  0.20713215  0.74960297  0.22846791  1
  P  P249  1  0.20740772  0.74967430  0.47893134  1
  P  P250  1  0.20730700  0.75064050  0.72671603  1
  P  P251  1  0.20649535  0.74966280  0.97784386  1
  P  P252  1  0.70744029  0.08487157  0.22707724  1
  P  P253  1  0.70661177  0.08349332  0.47823864  1
  P  P254  1  0.70689086  0.08299452  0.72908486  1
  P  P255  1  0.70809930  0.08233550  0.97806755  1
  P  P256  1  0.70677864  0.41693872  0.22800390  1
  P  P257  1  0.70690739  0.41730402  0.47852282  1
  P  P258  1  0.70748845  0.41824373  0.72733873  1
  P  P259  1  0.70716089  0.41636502  0.97829237  1
  P  P260  1  0.70760623  0.75215905  0.22716018  1
  P  P261  1  0.70720169  0.75000723  0.47849028  1
  P  P262  1  0.70689718  0.75106031  0.72922894  1
  P  P263  1  0.70741012  0.75198147  0.97774327  1
  P  P264  1  0.29173389  0.24844263  0.02158826  1
  P  P265  1  0.29255590  0.24940362  0.27161796  1
  P  P266  1  0.29120619  0.24940478  0.52397082  1
  P  P267  1  0.29148256  0.24968504  0.77280568  1
  P  P268  1  0.29288607  0.58227026  0.02108694  1
  P  P269  1  0.29249362  0.58131817  0.27315602  1
  P  P270  1  0.29218831  0.58080515  0.52257979  1
  P  P271  1  0.29175780  0.58118495  0.77178738  1
  P  P272  1  0.29317774  0.91710309  0.02173973  1
  P  P273  1  0.29203838  0.91841682  0.27282118  1
  P  P274  1  0.29195133  0.91551276  0.52239726  1
  P  P275  1  0.29270192  0.91628762  0.77106185  1
  P  P276  1  0.79258498  0.24824286  0.02242143  1
  P  P277  1  0.79330907  0.24979314  0.27129385  1
  P  P278  1  0.79330636  0.25021381  0.52197784  1
  P  P279  1  0.79323182  0.25041693  0.77175113  1
  P  P280  1  0.79359916  0.58415326  0.02159202  1
  P  P281  1  0.79341338  0.58426101  0.27169670  1
  P  P282  1  0.79262446  0.58247106  0.52317901  1
  P  P283  1  0.79295816  0.58349757  0.77147452  1
  P  P284  1  0.79202161  0.91565979  0.02174060  1
  P  P285  1  0.79315324  0.91722004  0.27130677  1
  P  P286  1  0.79331394  0.91696246  0.52233684  1
  P  P287  1  0.79146205  0.91718865  0.77438846  1
  O  O288  1  0.03715926  0.24985878  0.18070806  1
  O  O289  1  0.03804921  0.24918554  0.43372987  1
  O  O290  1  0.03623710  0.24872698  0.68343636  1
  O  O291  1  0.03625728  0.25000283  0.93148626  1
  O  O292  1  0.03772414  0.58272322  0.18255722  1
  O  O293  1  0.03616320  0.58240138  0.43314240  1
  O  O294  1  0.03618016  0.58369386  0.68221076  1
  O  O295  1  0.03771934  0.58340560  0.93054752  1
  O  O296  1  0.03679001  0.91745605  0.18084598  1
  O  O297  1  0.03668764  0.91863157  0.43303074  1
  O  O298  1  0.03618459  0.91624208  0.68226721  1
  O  O299  1  0.03628426  0.91714820  0.93139129  1
  O  O300  1  0.53621855  0.24993899  0.18193336  1
  O  O301  1  0.53589223  0.25001150  0.43158070  1
  O  O302  1  0.53621037  0.24951087  0.68162942  1
  O  O303  1  0.53668672  0.25116669  0.93312507  1
  O  O304  1  0.53698708  0.58230693  0.18309678  1
  O  O305  1  0.53633091  0.58477833  0.43305365  1
  O  O306  1  0.53629129  0.58420578  0.68268975  1
  O  O307  1  0.53659340  0.58329100  0.93292772  1
  O  O308  1  0.53600189  0.91825268  0.18353780  1
  O  O309  1  0.53632427  0.91580788  0.43180557  1
  O  O310  1  0.53643649  0.91549264  0.68235643  1
  O  O311  1  0.53594167  0.91896006  0.93304758  1
  O  O312  1  0.46392176  0.08345475  0.06840457  1
  O  O313  1  0.46326542  0.08437097  0.31709700  1
  O  O314  1  0.46234877  0.08236541  0.56771012  1
  O  O315  1  0.46322088  0.08379486  0.81882533  1
  O  O316  1  0.46363588  0.41565581  0.06696994  1
  O  O317  1  0.46258195  0.41501851  0.31754742  1
  O  O318  1  0.46322663  0.41416693  0.56752643  1
  O  O319  1  0.46370185  0.41649092  0.81842700  1
  O  O320  1  0.46252564  0.75035595  0.06910733  1
  O  O321  1  0.46370973  0.75009400  0.31790673  1
  O  O322  1  0.46306011  0.74823045  0.56723054  1
  O  O323  1  0.46209103  0.74975435  0.81700039  1
  O  O324  1  0.96400312  0.08202980  0.06660264  1
  O  O325  1  0.96396177  0.08347055  0.31873539  1
  O  O326  1  0.96396550  0.08283261  0.56839347  1
  O  O327  1  0.96371557  0.08389554  0.81771230  1
  O  O328  1  0.96354248  0.41660407  0.06711266  1
  O  O329  1  0.96349611  0.41845774  0.31784924  1
  O  O330  1  0.96423590  0.41752663  0.56804121  1
  O  O331  1  0.96414508  0.41510747  0.81596348  1
  O  O332  1  0.96319494  0.75138086  0.06628464  1
  O  O333  1  0.96310494  0.75044044  0.31896035  1
  O  O334  1  0.96353109  0.75028465  0.56787004  1
  O  O335  1  0.96409410  0.75192505  0.81614602  1
  O  O336  1  0.21285524  0.08523153  0.05700630  1
  O  O337  1  0.21272125  0.08350095  0.30736490  1
  O  O338  1  0.21333383  0.08238220  0.55815347  1
  O  O339  1  0.21339322  0.08530492  0.80778489  1
  O  O340  1  0.21276983  0.41562360  0.05531025  1
  O  O341  1  0.21191097  0.41646042  0.30806512  1
  O  O342  1  0.21379490  0.41706109  0.55845142  1
  O  O343  1  0.21390948  0.41590164  0.80688793  1
  O  O344  1  0.21171910  0.74958867  0.05783599  1
  O  O345  1  0.21221059  0.74947340  0.30849136  1
  O  O346  1  0.21276986  0.75015619  0.55886839  1
  O  O347  1  0.21210934  0.75032531  0.80672335  1
  O  O348  1  0.71354081  0.08319054  0.05797749  1
  O  O349  1  0.71220379  0.08470627  0.30706965  1
  O  O350  1  0.71137446  0.08347639  0.55827566  1
  O  O351  1  0.71219841  0.08232010  0.80905871  1
  O  O352  1  0.71220873  0.41619106  0.05823828  1
  O  O353  1  0.71178100  0.41676732  0.30801954  1
  O  O354  1  0.71214358  0.41789744  0.55852075  1
  O  O355  1  0.71242342  0.41773708  0.80733246  1
  O  O356  1  0.71275080  0.75222357  0.05769462  1
  O  O357  1  0.71269604  0.75155369  0.30715086  1
  O  O358  1  0.71194310  0.74987709  0.55850452  1
  O  O359  1  0.71205517  0.75154776  0.80919169  1
  O  O360  1  0.28720523  0.24899161  0.19169902  1
  O  O361  1  0.28649398  0.24977734  0.44402086  1
  O  O362  1  0.28678512  0.24962160  0.69289710  1
  O  O363  1  0.28660022  0.24854785  0.94168467  1
  O  O364  1  0.28740354  0.58196722  0.19315266  1
  O  O365  1  0.28702113  0.58077233  0.44263995  1
  O  O366  1  0.28648728  0.58105507  0.69183154  1
  O  O367  1  0.28755457  0.58212018  0.94110567  1
  O  O368  1  0.28719120  0.91831504  0.19281145  1
  O  O369  1  0.28671431  0.91638201  0.44244769  1
  O  O370  1  0.28722078  0.91572153  0.69109874  1
  O  O371  1  0.28831522  0.91719718  0.94173227  1
  O  O372  1  0.78805780  0.24903802  0.19130464  1
  O  O373  1  0.78845965  0.25031049  0.44195150  1
  O  O374  1  0.78818338  0.25054569  0.69179345  1
  O  O375  1  0.78756751  0.24858096  0.94243798  1
  O  O376  1  0.78851074  0.58446794  0.19172477  1
  O  O377  1  0.78783141  0.58296365  0.44316548  1
  O  O378  1  0.78752467  0.58295689  0.69153327  1
  O  O379  1  0.78844608  0.58433580  0.94159696  1
  O  O380  1  0.78801532  0.91678759  0.19132908  1
  O  O381  1  0.78855958  0.91711081  0.44233626  1
  O  O382  1  0.78693880  0.91727079  0.69436812  1
  O  O383  1  0.78624910  0.91611213  0.94188840  1
  O  O384  1  0.22746604  0.24771854  0.05738444  1
  O  O385  1  0.22833807  0.24944375  0.30704894  1
  O  O386  1  0.22706014  0.24916613  0.55961622  1
  O  O387  1  0.22728072  0.24939411  0.80851745  1
  O  O388  1  0.22847379  0.58256926  0.05614497  1
  O  O389  1  0.22811682  0.58069412  0.30852155  1
  O  O390  1  0.22791058  0.58098924  0.55805157  1
  O  O391  1  0.22746840  0.58046595  0.80732834  1
  O  O392  1  0.22862098  0.91732965  0.05631325  1
  O  O393  1  0.22764475  0.91842625  0.30798207  1
  O  O394  1  0.22771198  0.91565484  0.55797048  1
  O  O395  1  0.22838325  0.91711594  0.80625809  1
  O  O396  1  0.72817447  0.24779925  0.05764354  1
  O  O397  1  0.72880949  0.25015582  0.30615992  1
  O  O398  1  0.72870674  0.25060790  0.55645012  1
  O  O399  1  0.72872588  0.24989078  0.80643422  1
  O  O400  1  0.72910854  0.58436842  0.05631484  1
  O  O401  1  0.72882084  0.58431558  0.30628411  1
  O  O402  1  0.72811032  0.58212770  0.55815234  1
  O  O403  1  0.72862132  0.58390587  0.80667719  1
  O  O404  1  0.72797867  0.91556650  0.05805185  1
  O  O405  1  0.72865744  0.91708141  0.30623401  1
  O  O406  1  0.72863955  0.91696052  0.55663279  1
  O  O407  1  0.72708666  0.91765872  0.80962914  1
  O  O408  1  0.27190755  0.08549109  0.19192187  1
  O  O409  1  0.27221783  0.08125959  0.44246559  1
  O  O410  1  0.27226304  0.08480830  0.69232072  1
  O  O411  1  0.27233488  0.08527932  0.94181233  1
  O  O412  1  0.27123929  0.41542601  0.19304401  1
  O  O413  1  0.27210178  0.41750616  0.44224177  1
  O  O414  1  0.27323214  0.41631533  0.69110446  1
  O  O415  1  0.27281082  0.41672607  0.94015701  1
  O  O416  1  0.27161939  0.74978263  0.19364903  1
  O  O417  1  0.27163921  0.74947413  0.44354895  1
  O  O418  1  0.27172506  0.75046212  0.69171816  1
  O  O419  1  0.27094484  0.74920003  0.94297453  1
  O  O420  1  0.77195329  0.08497638  0.19217018  1
  O  O421  1  0.77127533  0.08340943  0.44388652  1
  O  O422  1  0.77136239  0.08353833  0.69416705  1
  O  O423  1  0.77231750  0.08160841  0.94238103  1
  O  O424  1  0.77131506  0.41657969  0.19338441  1
  O  O425  1  0.77137823  0.41698279  0.44362068  1
  O  O426  1  0.77197770  0.41882795  0.69231279  1
  O  O427  1  0.77168813  0.41655782  0.94358745  1
  O  O428  1  0.77205231  0.75281833  0.19197887  1
  O  O429  1  0.77184299  0.75032428  0.44404601  1
  O  O430  1  0.77132836  0.75051638  0.69427907  1
  O  O431  1  0.77169879  0.75223356  0.94222627  1
  O  O432  1  0.02276592  0.08165350  0.18286894  1
  O  O433  1  0.02299230  0.08300975  0.43507295  1
  O  O434  1  0.02295396  0.08346888  0.68469045  1
  O  O435  1  0.02313824  0.08302488  0.93376891  1
  O  O436  1  0.02257024  0.41850715  0.18313067  1
  O  O437  1  0.02224660  0.41830131  0.43387710  1
  O  O438  1  0.02363046  0.41572761  0.68396426  1
  O  O439  1  0.02269389  0.41446537  0.93215877  1
  O  O440  1  0.02188552  0.75061585  0.18214502  1
  O  O441  1  0.02281941  0.75026918  0.43474792  1
  O  O442  1  0.02290158  0.75111382  0.68389844  1
  O  O443  1  0.02254752  0.75232417  0.93248800  1
  O  O444  1  0.52285180  0.08277665  0.18483785  1
  O  O445  1  0.52176598  0.08481805  0.43338412  1
  O  O446  1  0.52183704  0.08196631  0.68345090  1
  O  O447  1  0.52292411  0.08329738  0.93469598  1
  O  O448  1  0.52183462  0.41474454  0.18349993  1
  O  O449  1  0.52157286  0.41471349  0.43341072  1
  O  O450  1  0.52234032  0.41456527  0.68342125  1
  O  O451  1  0.52294805  0.41611781  0.93459297  1
  O  O452  1  0.52250607  0.74917361  0.18461078  1
  O  O453  1  0.52248656  0.75047314  0.43450596  1
  O  O454  1  0.52150548  0.74813537  0.68369365  1
  O  O455  1  0.52092172  0.75042975  0.93270433  1
  O  O456  1  0.47715472  0.25065551  0.06554023  1
  O  O457  1  0.47695858  0.25062764  0.31522440  1
  O  O458  1  0.47665681  0.24909597  0.56562197  1
  O  O459  1  0.47778293  0.25120082  0.81708650  1
  O  O460  1  0.47769706  0.58173981  0.06744017  1
  O  O461  1  0.47767741  0.58457448  0.31694907  1
  O  O462  1  0.47740496  0.58407282  0.56666956  1
  O  O463  1  0.47775407  0.58435972  0.81677624  1
  O  O464  1  0.47719605  0.91907711  0.06738541  1
  O  O465  1  0.47689070  0.91760310  0.31589959  1
  O  O466  1  0.47765986  0.91470481  0.56631237  1
  O  O467  1  0.47718146  0.91838208  0.81685711  1
  O  O468  1  0.97734922  0.25084991  0.06488255  1
  O  O469  1  0.97906499  0.24970842  0.31800088  1
  O  O470  1  0.97805204  0.24867596  0.56685300  1
  O  O471  1  0.97741461  0.24994496  0.81508905  1
  O  O472  1  0.97907841  0.58333034  0.06675204  1
  O  O473  1  0.97779380  0.58182180  0.31657540  1
  O  O474  1  0.97702280  0.58315815  0.56593887  1
  O  O475  1  0.97749265  0.58350073  0.81520653  1
  O  O476  1  0.97763404  0.91681693  0.06460490  1
  O  O477  1  0.97793590  0.91883994  0.31674311  1
  O  O478  1  0.97705959  0.91756516  0.56602962  1
  O  O479  1  0.97721817  0.91638418  0.81520624  1
  O  O480  1  0.07290140  0.31355964  0.07260854  1
  O  O481  1  0.07420105  0.31330942  0.32591339  1
  O  O482  1  0.07348735  0.31197124  0.57583833  1
  O  O483  1  0.07280565  0.31294010  0.82289420  1
  O  O484  1  0.07435926  0.64683576  0.07486616  1
  O  O485  1  0.07276761  0.64613004  0.32550265  1
  O  O486  1  0.07146654  0.64729974  0.57349368  1
  O  O487  1  0.07241348  0.64729410  0.82222387  1
  O  O488  1  0.07267263  0.98062163  0.07236701  1
  O  O489  1  0.07296193  0.98186697  0.32398120  1
  O  O490  1  0.07272854  0.98014779  0.57454360  1
  O  O491  1  0.07158396  0.98107514  0.82304448  1
  O  O492  1  0.57276944  0.31331105  0.07377395  1
  O  O493  1  0.57227456  0.31374332  0.32341017  1
  O  O494  1  0.57178762  0.31289283  0.57321226  1
  O  O495  1  0.57276722  0.31474584  0.82433810  1
  O  O496  1  0.57309817  0.64572603  0.07523682  1
  O  O497  1  0.57285869  0.64795776  0.32445411  1
  O  O498  1  0.57259131  0.64756468  0.57419114  1
  O  O499  1  0.57251060  0.64808490  0.82506512  1
  O  O500  1  0.57272693  0.98166343  0.07502854  1
  O  O501  1  0.57240583  0.98044985  0.32443012  1
  O  O502  1  0.57293480  0.97864884  0.57452919  1
  O  O503  1  0.57205152  0.98202065  0.82421178  1
  O  O504  1  0.42702199  0.02052881  0.17680106  1
  O  O505  1  0.42664418  0.02088119  0.42494617  1
  O  O506  1  0.42723810  0.01800836  0.67607538  1
  O  O507  1  0.42728288  0.02041143  0.92702703  1
  O  O508  1  0.42682008  0.35131263  0.17482501  1
  O  O509  1  0.42623678  0.35154813  0.42603684  1
  O  O510  1  0.42736011  0.35092022  0.67644896  1
  O  O511  1  0.42742107  0.35310336  0.92645594  1
  O  O512  1  0.42699764  0.68628887  0.17698069  1
  O  O513  1  0.42774705  0.68637432  0.42617318  1
  O  O514  1  0.42659858  0.68459745  0.67584731  1
  O  O515  1  0.42551253  0.68675763  0.92524676  1
  O  O516  1  0.92765375  0.01863437  0.17540325  1
  O  O517  1  0.92745841  0.02006330  0.42676023  1
  O  O518  1  0.92829571  0.01950313  0.67716324  1
  O  O519  1  0.92775373  0.01993705  0.92569018  1
  O  O520  1  0.92762218  0.35390366  0.17556560  1
  O  O521  1  0.92723756  0.35421904  0.42520568  1
  O  O522  1  0.92804791  0.35300692  0.67537655  1
  O  O523  1  0.92713748  0.35203657  0.92471612  1
  O  O524  1  0.92650688  0.68739133  0.17402089  1
  O  O525  1  0.92791265  0.68660320  0.42725363  1
  O  O526  1  0.92851559  0.68658438  0.67657121  1
  O  O527  1  0.92758278  0.68793493  0.92362519  1
  O  O528  1  0.17675018  0.02104255  0.19870665  1
  O  O529  1  0.17713509  0.01840283  0.44973463  1
  O  O530  1  0.17680442  0.02139298  0.70036642  1
  O  O531  1  0.17717800  0.02124300  0.94914434  1
  O  O532  1  0.17548362  0.35282212  0.19984922  1
  O  O533  1  0.17696625  0.35341626  0.45084779  1
  O  O534  1  0.17879764  0.35207164  0.69822777  1
  O  O535  1  0.17842522  0.35202427  0.94661647  1
  O  O536  1  0.17615724  0.68610496  0.20034661  1
  O  O537  1  0.17640403  0.68587785  0.45132112  1
  O  O538  1  0.17611184  0.68702884  0.69901374  1
  O  O539  1  0.17511890  0.68645031  0.94942505  1
  O  O540  1  0.67654133  0.02114559  0.19930260  1
  O  O541  1  0.67570916  0.02002096  0.44981646  1
  O  O542  1  0.67584165  0.01978671  0.70030740  1
  O  O543  1  0.67710477  0.01867752  0.95017676  1
  O  O544  1  0.67554927  0.35358711  0.19980008  1
  O  O545  1  0.67588328  0.35367035  0.45056467  1
  O  O546  1  0.67676109  0.35448117  0.69927087  1
  O  O547  1  0.67637267  0.35278043  0.94999351  1
  O  O548  1  0.67693812  0.68842355  0.19898944  1
  O  O549  1  0.67657269  0.68642320  0.45000091  1
  O  O550  1  0.67569742  0.68756072  0.70123607  1
  O  O551  1  0.67659319  0.68805959  0.95012435  1
  O  O552  1  0.32230793  0.31238442  0.04959907  1
  O  O553  1  0.32354264  0.31299967  0.29968835  1
  O  O554  1  0.32175769  0.31311803  0.55257396  1
  O  O555  1  0.32177867  0.31360604  0.80165452  1
  O  O556  1  0.32404858  0.64564343  0.04955741  1
  O  O557  1  0.32319879  0.64504228  0.30137779  1
  O  O558  1  0.32327350  0.64458045  0.55024520  1
  O  O559  1  0.32213572  0.64533887  0.79940896  1
  O  O560  1  0.32427349  0.98054956  0.04987878  1
  O  O561  1  0.32259514  0.98199028  0.30142944  1
  O  O562  1  0.32375857  0.97854881  0.55062701  1
  O  O563  1  0.32403993  0.97991388  0.79866350  1
  O  O564  1  0.82342248  0.31196747  0.05030703  1
  O  O565  1  0.82429900  0.31349365  0.29913472  1
  O  O566  1  0.82462308  0.31356050  0.55005821  1
  O  O567  1  0.82386825  0.31407480  0.79997880  1
  O  O568  1  0.82477327  0.64764208  0.04952967  1
  O  O569  1  0.82438348  0.64774681  0.30007896  1
  O  O570  1  0.82344628  0.64613013  0.55131888  1
  O  O571  1  0.82411223  0.64714267  0.79917011  1
  O  O572  1  0.82336442  0.97914900  0.04978116  1
  O  O573  1  0.82369732  0.98112955  0.29930326  1
  O  O574  1  0.82422738  0.98035300  0.55090422  1
  O  O575  1  0.82249980  0.98067838  0.80269307  1
  O  O576  1  0.42875745  0.14766312  0.17645986  1
  O  O577  1  0.42662800  0.14779630  0.42557820  1
  O  O578  1  0.42625091  0.14512975  0.67594732  1
  O  O579  1  0.42859188  0.14766740  0.92732164  1
  O  O580  1  0.42650736  0.47822791  0.17514560  1
  O  O581  1  0.42656854  0.47864735  0.42525990  1
  O  O582  1  0.42701649  0.47798591  0.67497931  1
  O  O583  1  0.42866540  0.48049812  0.92659698  1
  O  O584  1  0.42808633  0.81385930  0.17763986  1
  O  O585  1  0.42735371  0.81366071  0.42599594  1
  O  O586  1  0.42611176  0.81157159  0.67476778  1
  O  O587  1  0.42558367  0.81365552  0.92470668  1
  O  O588  1  0.92770740  0.14561793  0.17440226  1
  O  O589  1  0.92860672  0.14734119  0.42704686  1
  O  O590  1  0.92759223  0.14656010  0.67641580  1
  O  O591  1  0.92859669  0.14709256  0.92656881  1
  O  O592  1  0.92726287  0.48107712  0.17492180  1
  O  O593  1  0.92684177  0.48126136  0.42654176  1
  O  O594  1  0.92917756  0.48034758  0.67684707  1
  O  O595  1  0.92778701  0.47895832  0.92356320  1
  O  O596  1  0.92660630  0.81419451  0.17469172  1
  O  O597  1  0.92805476  0.81408103  0.42720204  1
  O  O598  1  0.92726703  0.81377154  0.67602292  1
  O  O599  1  0.92726095  0.81496146  0.92481406  1
  O  O600  1  0.07156091  0.18610292  0.07226601  1
  O  O601  1  0.07456881  0.18644003  0.32531753  1
  O  O602  1  0.07273536  0.18494050  0.57524534  1
  O  O603  1  0.07206475  0.18581123  0.82361974  1
  O  O604  1  0.07452566  0.51998184  0.07416295  1
  O  O605  1  0.07304752  0.51909049  0.32469948  1
  O  O606  1  0.07240836  0.52002970  0.57433636  1
  O  O607  1  0.07240975  0.51978533  0.82221099  1
  O  O608  1  0.07261374  0.85338814  0.07290679  1
  O  O609  1  0.07307448  0.85491766  0.32539485  1
  O  O610  1  0.07129414  0.85298941  0.57337377  1
  O  O611  1  0.07300582  0.85399600  0.82307083  1
  O  O612  1  0.57142927  0.18619924  0.07350569  1
  O  O613  1  0.57153571  0.18661964  0.32295099  1
  O  O614  1  0.57150888  0.18554530  0.57347093  1
  O  O615  1  0.57326485  0.18787434  0.82525754  1
  O  O616  1  0.57271546  0.51859393  0.07449668  1
  O  O617  1  0.57283925  0.52080788  0.32583016  1
  O  O618  1  0.57254901  0.52043272  0.57522469  1
  O  O619  1  0.57329761  0.52096056  0.82476796  1
  O  O620  1  0.57199128  0.85469743  0.07547681  1
  O  O621  1  0.57138229  0.85310021  0.32283265  1
  O  O622  1  0.57265970  0.85156787  0.57419737  1
  O  O623  1  0.57246081  0.85493486  0.82580980  1
  O  O624  1  0.32304177  0.18542059  0.05074199  1
  O  O625  1  0.32389956  0.18626068  0.30027461  1
  O  O626  1  0.32215373  0.18566109  0.55180016  1
  O  O627  1  0.32287586  0.18652925  0.80166876  1
  O  O628  1  0.32382297  0.51877923  0.04953617  1
  O  O629  1  0.32341032  0.51773907  0.30123763  1
  O  O630  1  0.32316111  0.51754641  0.55146499  1
  O  O631  1  0.32329713  0.51817153  0.80049115  1
  O  O632  1  0.32392065  0.85352753  0.05019681  1
  O  O633  1  0.32309563  0.85471953  0.30061749  1
  O  O634  1  0.32217338  0.85142453  0.55058170  1
  O  O635  1  0.32367078  0.85296256  0.79966695  1
  O  O636  1  0.82341734  0.18465558  0.05070540  1
  O  O637  1  0.82452692  0.18661715  0.30011889  1
  O  O638  1  0.82389627  0.18655650  0.55033768  1
  O  O639  1  0.82456646  0.18706925  0.79987152  1
  O  O640  1  0.82442363  0.52047634  0.04961112  1
  O  O641  1  0.82417888  0.52067095  0.30000011  1
  O  O642  1  0.82328187  0.51887646  0.55168214  1
  O  O643  1  0.82413745  0.52024746  0.80003701  1
  O  O644  1  0.82297749  0.85222220  0.05026117  1
  O  O645  1  0.82461587  0.85419846  0.30003831  1
  O  O646  1  0.82410170  0.85344872  0.55086908  1
  O  O647  1  0.82175077  0.85318042  0.80254358  1
  O  O648  1  0.17654237  0.14806402  0.19913774  1
  O  O649  1  0.17707739  0.14555444  0.45022026  1
  O  O650  1  0.17721016  0.14842169  0.69889373  1
  O  O651  1  0.17686333  0.14829352  0.94809117  1
  O  O652  1  0.17616026  0.47961848  0.19926093  1
  O  O653  1  0.17693428  0.48044454  0.44975825  1
  O  O654  1  0.17769968  0.47924758  0.69843986  1
  O  O655  1  0.17719665  0.47943447  0.94707502  1
  O  O656  1  0.17617210  0.81329460  0.20046321  1
  O  O657  1  0.17597700  0.81276242  0.45034269  1
  O  O658  1  0.17691256  0.81438931  0.69811950  1
  O  O659  1  0.17589665  0.81341990  0.94965569  1
  O  O660  1  0.67678185  0.14830232  0.19822044  1
  O  O661  1  0.67574554  0.14701655  0.44991595  1
  O  O662  1  0.67574746  0.14666338  0.70123792  1
  O  O663  1  0.67703004  0.14576460  0.94969297  1
  O  O664  1  0.67611336  0.48067288  0.19992659  1
  O  O665  1  0.67577762  0.48056379  0.44984337  1
  O  O666  1  0.67658782  0.48174063  0.69897350  1
  O  O667  1  0.67609501  0.47987840  0.95021146  1
  O  O668  1  0.67664969  0.81564911  0.19889047  1
  O  O669  1  0.67614001  0.81342849  0.45016062  1
  O  O670  1  0.67592403  0.81444428  0.70063750  1
  O  O671  1  0.67617745  0.81518183  0.94899706  1
