# generated using pymatgen
data_Na2MnFe(PO4)2
_symmetry_space_group_name_H-M   'P 1'
_cell_length_a   22.34915225
_cell_length_b   20.10108126
_cell_length_c   19.44200875
_cell_angle_alpha   90.05499509
_cell_angle_beta   90.04695495
_cell_angle_gamma   90.01590101
_symmetry_Int_Tables_number   1
_chemical_formula_structural   Na2MnFe(PO4)2
_chemical_formula_sum   'Na96 Mn48 Fe48 P96 O384'
_cell_volume   8734.16203866
_cell_formula_units_Z   48
loop_
 _symmetry_equiv_pos_site_id
 _symmetry_equiv_pos_as_xyz
  1  'x, y, z'
loop_
 _atom_site_type_symbol
 _atom_site_label
 _atom_site_symmetry_multiplicity
 _atom_site_fract_x
 _atom_site_fract_y
 _atom_site_fract_z
 _atom_site_occupancy
  Na  Na0  1  0.13999022  0.24918439  0.24477453  1
  Na  Na1  1  0.14000053  0.24987280  0.49328217  1
  Na  Na2  1  0.13976020  0.25014803  0.74306389  1
  Na  Na3  1  0.14025210  0.24980334  0.99328044  1
  Na  Na4  1  0.14047561  0.58302046  0.24585311  1
  Na  Na5  1  0.14078445  0.58182438  0.49377611  1
  Na  Na6  1  0.14070344  0.58414486  0.74362761  1
  Na  Na7  1  0.14055853  0.58275788  0.99355154  1
  Na  Na8  1  0.14004513  0.91629414  0.24457364  1
  Na  Na9  1  0.13990303  0.91499425  0.49380943  1
  Na  Na10  1  0.13982369  0.91675220  0.74289271  1
  Na  Na11  1  0.14003271  0.91702085  0.99333573  1
  Na  Na12  1  0.64013004  0.25103774  0.24343366  1
  Na  Na13  1  0.63988837  0.24908093  0.49238333  1
  Na  Na14  1  0.63953448  0.25027861  0.74344986  1
  Na  Na15  1  0.64016145  0.25251503  0.99387478  1
  Na  Na16  1  0.64063008  0.58245612  0.24234539  1
  Na  Na17  1  0.64088484  0.58250557  0.49348833  1
  Na  Na18  1  0.64005003  0.58277742  0.74508512  1
  Na  Na19  1  0.64009405  0.58279930  0.99456897  1
  Na  Na20  1  0.63980480  0.91645354  0.24295640  1
  Na  Na21  1  0.64050742  0.91731437  0.49176953  1
  Na  Na22  1  0.64025813  0.91656401  0.74494453  1
  Na  Na23  1  0.63979096  0.91673003  0.99378410  1
  Na  Na24  1  0.35971257  0.08387170  0.00611735  1
  Na  Na25  1  0.36006466  0.08399197  0.25658105  1
  Na  Na26  1  0.35986396  0.08363955  0.50605575  1
  Na  Na27  1  0.35969886  0.08467855  0.75626535  1
  Na  Na28  1  0.36022909  0.41591776  0.00605324  1
  Na  Na29  1  0.35995992  0.41737731  0.25699572  1
  Na  Na30  1  0.36026460  0.41673186  0.50529738  1
  Na  Na31  1  0.36011333  0.41612445  0.75774555  1
  Na  Na32  1  0.35972751  0.75085678  0.00702011  1
  Na  Na33  1  0.36005672  0.75039177  0.25708666  1
  Na  Na34  1  0.36002432  0.74936835  0.50455043  1
  Na  Na35  1  0.35971363  0.75073262  0.75605618  1
  Na  Na36  1  0.85933631  0.08488267  0.00536528  1
  Na  Na37  1  0.85947431  0.08339021  0.25827273  1
  Na  Na38  1  0.85989164  0.08278040  0.50576078  1
  Na  Na39  1  0.86021143  0.08334924  0.75613105  1
  Na  Na40  1  0.85927173  0.41815528  0.00582950  1
  Na  Na41  1  0.85968750  0.41576208  0.25655106  1
  Na  Na42  1  0.86008594  0.41539098  0.50640118  1
  Na  Na43  1  0.85978626  0.41684246  0.75622198  1
  Na  Na44  1  0.85982010  0.74958382  0.00613645  1
  Na  Na45  1  0.85967887  0.75061572  0.25650213  1
  Na  Na46  1  0.85952293  0.75007261  0.50665805  1
  Na  Na47  1  0.86012537  0.74902366  0.75718762  1
  Na  Na48  1  0.10947800  0.08258247  0.11926996  1
  Na  Na49  1  0.10961041  0.08176085  0.36891351  1
  Na  Na50  1  0.10878387  0.08278486  0.61832872  1
  Na  Na51  1  0.10907044  0.08369500  0.86742519  1
  Na  Na52  1  0.10983701  0.41632543  0.11977382  1
  Na  Na53  1  0.11011540  0.41545395  0.36941581  1
  Na  Na54  1  0.10955794  0.41468403  0.61799607  1
  Na  Na55  1  0.10947726  0.41608814  0.86749341  1
  Na  Na56  1  0.10958073  0.75056089  0.11963253  1
  Na  Na57  1  0.10940028  0.74986088  0.36973122  1
  Na  Na58  1  0.10952620  0.75008999  0.61904650  1
  Na  Na59  1  0.10943878  0.75096870  0.86798950  1
  Na  Na60  1  0.60936021  0.08389344  0.11926418  1
  Na  Na61  1  0.60902631  0.08424464  0.36666631  1
  Na  Na62  1  0.60955539  0.08423685  0.61901805  1
  Na  Na63  1  0.60929168  0.08433521  0.86887472  1
  Na  Na64  1  0.60992892  0.41711116  0.11848197  1
  Na  Na65  1  0.60994551  0.41619307  0.36675285  1
  Na  Na66  1  0.60971163  0.41618252  0.61928969  1
  Na  Na67  1  0.60939261  0.41655994  0.86892776  1
  Na  Na68  1  0.60939664  0.74974115  0.11856688  1
  Na  Na69  1  0.60944223  0.75022058  0.36647664  1
  Na  Na70  1  0.60972060  0.74990730  0.61910593  1
  Na  Na71  1  0.60938509  0.74917759  0.86988807  1
  Na  Na72  1  0.39070553  0.25069487  0.13114091  1
  Na  Na73  1  0.39049929  0.25064797  0.38084275  1
  Na  Na74  1  0.39045539  0.25107762  0.63184809  1
  Na  Na75  1  0.39010669  0.25035473  0.88161350  1
  Na  Na76  1  0.39068926  0.58301736  0.13227631  1
  Na  Na77  1  0.39073011  0.58348499  0.38044505  1
  Na  Na78  1  0.39076821  0.58254175  0.63088750  1
  Na  Na79  1  0.39046117  0.58314445  0.88206016  1
  Na  Na80  1  0.39079170  0.91752351  0.13193521  1
  Na  Na81  1  0.39045025  0.91781933  0.38087869  1
  Na  Na82  1  0.39062895  0.91721899  0.63083076  1
  Na  Na83  1  0.39076576  0.91710895  0.88188140  1
  Na  Na84  1  0.89003964  0.25027692  0.13171747  1
  Na  Na85  1  0.89038571  0.24922974  0.38252718  1
  Na  Na86  1  0.89057119  0.24865622  0.63035608  1
  Na  Na87  1  0.89006641  0.24972494  0.88038490  1
  Na  Na88  1  0.89012875  0.58412108  0.13157474  1
  Na  Na89  1  0.89058440  0.58290149  0.38193476  1
  Na  Na90  1  0.89059223  0.58212263  0.63223091  1
  Na  Na91  1  0.89004645  0.58468562  0.88174500  1
  Na  Na92  1  0.89043613  0.91708666  0.13140128  1
  Na  Na93  1  0.89015064  0.91683333  0.38243193  1
  Na  Na94  1  0.89053469  0.91614121  0.63066659  1
  Na  Na95  1  0.89070790  0.91682818  0.88023087  1
  Mn  Mn96  1  0.74953383  0.16646078  0.62384985  1
  Mn  Mn97  1  -0.00007226  0.66653352  0.50071926  1
  Mn  Mn98  1  0.74970763  0.16810414  0.12601050  1
  Mn  Mn99  1  0.00036753  0.66754054  0.25114982  1
  Mn  Mn100  1  0.25001756  0.49971672  0.12505420  1
  Mn  Mn101  1  0.74961953  0.66552210  0.62527864  1
  Mn  Mn102  1  0.75069331  0.66641975  0.37488436  1
  Mn  Mn103  1  0.25066935  0.83339164  0.87514364  1
  Mn  Mn104  1  0.50057979  0.00181725  0.50021334  1
  Mn  Mn105  1  0.25046125  0.16602627  0.12507940  1
  Mn  Mn106  1  0.74978370  0.33415750  0.87457491  1
  Mn  Mn107  1  0.24967293  0.16756884  0.62491321  1
  Mn  Mn108  1  0.24967686  -0.00057535  0.62552208  1
  Mn  Mn109  1  -0.00081968  -0.00053803  -0.00050111  1
  Mn  Mn110  1  0.24942977  0.83424409  0.12578361  1
  Mn  Mn111  1  0.00012987  0.50051126  -0.00039627  1
  Mn  Mn112  1  0.75052822  0.83261406  0.12463608  1
  Mn  Mn113  1  0.74954190  0.00015908  0.62450539  1
  Mn  Mn114  1  0.49957250  0.66644230  0.00060067  1
  Mn  Mn115  1  0.24983028  0.33321294  0.12515259  1
  Mn  Mn116  1  0.49999561  0.33282463  0.49947627  1
  Mn  Mn117  1  0.25010574  0.49979750  0.87453731  1
  Mn  Mn118  1  0.74982589  0.00048353  0.12522938  1
  Mn  Mn119  1  0.25093669  0.49918258  0.62476016  1
  Mn  Mn120  1  0.50086406  0.00101807  0.75016091  1
  Mn  Mn121  1  0.75001399  0.00104085  0.87479604  1
  Mn  Mn122  1  0.50040795  0.16716248  0.00027538  1
  Mn  Mn123  1  0.25021824  0.66638558  0.12539023  1
  Mn  Mn124  1  -0.00040199  0.33204885  0.25041567  1
  Mn  Mn125  1  0.50091740  0.66657822  0.49920830  1
  Mn  Mn126  1  0.75033909  0.33358364  0.62467636  1
  Mn  Mn127  1  0.00010447  0.49956296  0.25087296  1
  Mn  Mn128  1  0.25024164  0.00093311  0.87423877  1
  Mn  Mn129  1  -0.00012114  -0.00043327  0.25024381  1
  Mn  Mn130  1  0.75012873  0.83240209  0.87503166  1
  Mn  Mn131  1  0.74978314  0.83298017  0.62502606  1
  Mn  Mn132  1  0.49920602  0.66587768  0.75037406  1
  Mn  Mn133  1  0.50042925  0.83368008  0.75031656  1
  Mn  Mn134  1  0.50006484  0.83397671  0.49934016  1
  Mn  Mn135  1  0.00016917  0.49957755  0.75002391  1
  Mn  Mn136  1  0.24992374  0.16634472  0.37510311  1
  Mn  Mn137  1  0.75068896  0.49881021  0.37396244  1
  Mn  Mn138  1  0.50062260  0.49978535  0.49927518  1
  Mn  Mn139  1  0.00009517  0.16652975  -0.00081351  1
  Mn  Mn140  1  0.25023271  0.83333729  0.37476125  1
  Mn  Mn141  1  0.00045085  0.66831207  0.00092165  1
  Mn  Mn142  1  0.00013044  0.33293783  -0.00018536  1
  Mn  Mn143  1  0.25095920  0.66705186  0.62442746  1
  Fe  Fe144  1  -0.00063527  0.33270445  0.74866101  1
  Fe  Fe145  1  0.75001998  0.16686471  0.37438176  1
  Fe  Fe146  1  0.00021729  0.16570985  0.50046784  1
  Fe  Fe147  1  -0.00044515  0.16652402  0.74860616  1
  Fe  Fe148  1  0.25034189  0.33334166  0.62498141  1
  Fe  Fe149  1  0.49986922  0.83351305  0.00079642  1
  Fe  Fe150  1  0.49993726  0.83401602  0.24939002  1
  Fe  Fe151  1  0.50021319  0.66667836  0.24909697  1
  Fe  Fe152  1  0.50003082  0.16739584  0.49941887  1
  Fe  Fe153  1  0.00000255  0.83386718  -0.00079747  1
  Fe  Fe154  1  0.50018752  0.33374704  0.00027503  1
  Fe  Fe155  1  -0.00052711  0.83308731  0.50091875  1
  Fe  Fe156  1  0.49958160  0.00068447  0.24990713  1
  Fe  Fe157  1  -0.00007917  0.83351601  0.74944505  1
  Fe  Fe158  1  0.25018000  0.83311212  0.62443903  1
  Fe  Fe159  1  0.75074405  0.33383620  0.12456327  1
  Fe  Fe160  1  0.49987749  0.16723647  0.24948981  1
  Fe  Fe161  1  0.25023701  -0.00045773  0.37560892  1
  Fe  Fe162  1  0.50023135  0.33321330  0.75011833  1
  Fe  Fe163  1  0.24916124  0.16720466  0.87514064  1
  Fe  Fe164  1  -0.00029395  -0.00027460  0.74913595  1
  Fe  Fe165  1  0.74959663  -0.00043173  0.37478203  1
  Fe  Fe166  1  0.00021828  -0.00050604  0.50005361  1
  Fe  Fe167  1  -0.00031863  0.83371676  0.25059545  1
  Fe  Fe168  1  0.49974415  0.49919367  0.00089788  1
  Fe  Fe169  1  0.74956515  0.33339606  0.37474872  1
  Fe  Fe170  1  0.74996063  0.49972897  0.62516732  1
  Fe  Fe171  1  0.50016740  0.49918889  0.75087654  1
  Fe  Fe172  1  0.00015898  0.33221885  0.50006940  1
  Fe  Fe173  1  0.24950226  0.00062153  0.12464267  1
  Fe  Fe174  1  -0.00002239  0.66677539  0.75011949  1
  Fe  Fe175  1  0.25018726  0.66717216  0.87470453  1
  Fe  Fe176  1  0.49978645  0.00041845  0.00053484  1
  Fe  Fe177  1  0.50006393  0.49976506  0.24920160  1
  Fe  Fe178  1  0.24985456  0.66628645  0.37565936  1
  Fe  Fe179  1  0.74939955  0.83284964  0.37478297  1
  Fe  Fe180  1  0.49941006  0.16727889  0.75048043  1
  Fe  Fe181  1  0.74980921  0.66618815  0.12518435  1
  Fe  Fe182  1  -0.00011149  0.16580323  0.25082651  1
  Fe  Fe183  1  0.49992784  0.33357307  0.24924507  1
  Fe  Fe184  1  0.74921585  0.16786090  0.87520672  1
  Fe  Fe185  1  0.74955628  0.66575361  0.87555991  1
  Fe  Fe186  1  0.75043092  0.50011086  0.12484387  1
  Fe  Fe187  1  0.25036856  0.33337097  0.37489572  1
  Fe  Fe188  1  0.00034489  0.49923338  0.50108153  1
  Fe  Fe189  1  0.25022475  0.49952297  0.37558132  1
  Fe  Fe190  1  0.74998590  0.50066760  0.87594981  1
  Fe  Fe191  1  0.24959992  0.33309352  0.87507820  1
  P  P192  1  0.04285072  0.24908973  0.10357083  1
  P  P193  1  0.04181920  0.24766471  0.35379113  1
  P  P194  1  0.04115305  0.24910807  0.60201854  1
  P  P195  1  0.04078160  0.24992189  0.85036984  1
  P  P196  1  0.04313802  0.58383328  0.10361009  1
  P  P197  1  0.04256565  0.58294933  0.35469369  1
  P  P198  1  0.04231973  0.58202312  0.60326529  1
  P  P199  1  0.04238396  0.58499466  0.85234328  1
  P  P200  1  0.04200887  0.91541147  0.10253343  1
  P  P201  1  0.04185335  0.91524289  0.35368044  1
  P  P202  1  0.04108634  0.91653823  0.60232094  1
  P  P203  1  0.04138499  0.91673623  0.85109451  1
  P  P204  1  0.54202220  0.25201521  0.10320402  1
  P  P205  1  0.54118959  0.25032114  0.35107047  1
  P  P206  1  0.54213271  0.24893709  0.60288772  1
  P  P207  1  0.54112056  0.25042716  0.85217340  1
  P  P208  1  0.54147150  0.58180224  0.10346135  1
  P  P209  1  0.54187990  0.58304301  0.35038113  1
  P  P210  1  0.54299692  0.58258096  0.60336168  1
  P  P211  1  0.54158183  0.58145634  0.85353582  1
  P  P212  1  0.54111447  0.91712168  0.10254742  1
  P  P213  1  0.54125560  0.91739543  0.35095171  1
  P  P214  1  0.54347802  0.91748643  0.60276022  1
  P  P215  1  0.54277047  0.91719386  0.85451301  1
  P  P216  1  0.45888528  0.08369187  0.14801937  1
  P  P217  1  0.45789230  0.08530962  0.39645619  1
  P  P218  1  0.45770932  0.08555733  0.64738760  1
  P  P219  1  0.45794176  0.08307744  0.89776474  1
  P  P220  1  0.45835484  0.41665785  0.14769479  1
  P  P221  1  0.45805605  0.41655093  0.39546654  1
  P  P222  1  0.45863241  0.41646690  0.64881944  1
  P  P223  1  0.45878939  0.41638642  0.89806684  1
  P  P224  1  0.45861510  0.75071317  0.14805988  1
  P  P225  1  0.45807114  0.75020920  0.39509563  1
  P  P226  1  0.45731793  0.74992840  0.64679532  1
  P  P227  1  0.45763722  0.75114524  0.89832772  1
  P  P228  1  0.95713139  0.08425981  0.14806617  1
  P  P229  1  0.95895909  0.08300476  0.39849531  1
  P  P230  1  0.95853443  0.08266871  0.64715165  1
  P  P231  1  0.95718892  0.08297516  0.89534643  1
  P  P232  1  0.95720879  0.41643839  0.14717855  1
  P  P233  1  0.95905012  0.41604242  0.39907968  1
  P  P234  1  0.95807909  0.41500713  0.64639819  1
  P  P235  1  0.95736003  0.41635451  0.89604093  1
  P  P236  1  0.95775330  0.75198914  0.14782255  1
  P  P237  1  0.95754743  0.75148100  0.39806772  1
  P  P238  1  0.95860059  0.74975132  0.64829789  1
  P  P239  1  0.95784265  0.75150051  0.89666083  1
  P  P240  1  0.20777644  0.08170228  0.22813220  1
  P  P241  1  0.20778636  0.08185808  0.47756793  1
  P  P242  1  0.20688393  0.08434884  0.72829277  1
  P  P243  1  0.20731726  0.08431643  0.97740591  1
  P  P244  1  0.20750390  0.41663842  0.22949366  1
  P  P245  1  0.20908345  0.41577169  0.47706657  1
  P  P246  1  0.20803011  0.41518298  0.72762564  1
  P  P247  1  0.20731009  0.41541751  0.97702458  1
  P  P248  1  0.20754326  0.74956252  0.22907734  1
  P  P249  1  0.20788430  0.74896170  0.47779433  1
  P  P250  1  0.20808263  0.75116164  0.72740403  1
  P  P251  1  0.20768600  0.74908327  0.97742945  1
  P  P252  1  0.70749375  0.08367526  0.22928274  1
  P  P253  1  0.70818416  0.08328306  0.47541766  1
  P  P254  1  0.70710164  0.08408020  0.72834699  1
  P  P255  1  0.70735813  0.08567889  0.97763162  1
  P  P256  1  0.70888857  0.41627534  0.22630694  1
  P  P257  1  0.70755394  0.41553871  0.47715983  1
  P  P258  1  0.70796666  0.41817089  0.72785775  1
  P  P259  1  0.70795715  0.41851833  0.97822192  1
  P  P260  1  0.70792583  0.74895231  0.22767047  1
  P  P261  1  0.70734581  0.75050512  0.47704554  1
  P  P262  1  0.70722085  0.74894290  0.72884607  1
  P  P263  1  0.70786041  0.74782103  0.97816582  1
  P  P264  1  0.29259156  0.24981213  0.02113857  1
  P  P265  1  0.29230566  0.25081949  0.27278939  1
  P  P266  1  0.29229887  0.25164627  0.52201883  1
  P  P267  1  0.29106021  0.25044306  0.77325753  1
  P  P268  1  0.29308487  0.58332397  0.02152397  1
  P  P269  1  0.29146634  0.58317295  0.27405058  1
  P  P270  1  0.29312212  0.58277194  0.52080478  1
  P  P271  1  0.29274961  0.58475110  0.77253994  1
  P  P272  1  0.29222836  0.91830980  0.02286201  1
  P  P273  1  0.29218587  0.91868103  0.27217869  1
  P  P274  1  0.29240185  0.91556274  0.52212264  1
  P  P275  1  0.29313841  0.91657681  0.77136044  1
  P  P276  1  0.79222758  0.25153957  0.02218148  1
  P  P277  1  0.79150968  0.25089349  0.27326793  1
  P  P278  1  0.79242976  0.24988816  0.52047212  1
  P  P279  1  0.79190166  0.24926944  0.77230416  1
  P  P280  1  0.79149842  0.58349455  0.02301463  1
  P  P281  1  0.79313401  0.58295832  0.27085293  1
  P  P282  1  0.79275456  0.58141002  0.52270872  1
  P  P283  1  0.79152962  0.58267562  0.77352496  1
  P  P284  1  0.79271096  0.91700662  0.02183360  1
  P  P285  1  0.79119728  0.91631692  0.27358652  1
  P  P286  1  0.79210880  0.91648830  0.52067094  1
  P  P287  1  0.79283840  0.91653660  0.77188805  1
  O  O288  1  0.03781399  0.24860950  0.18358135  1
  O  O289  1  0.03644071  0.24777374  0.43370678  1
  O  O290  1  0.03585293  0.24980004  0.68189582  1
  O  O291  1  0.03636975  0.24971742  0.93041628  1
  O  O292  1  0.03808354  0.58376085  0.18363515  1
  O  O293  1  0.03700764  0.58238439  0.43464370  1
  O  O294  1  0.03702368  0.58278506  0.68323653  1
  O  O295  1  0.03736130  0.58495507  0.93235511  1
  O  O296  1  0.03673749  0.91556596  0.18252041  1
  O  O297  1  0.03649613  0.91534763  0.43354860  1
  O  O298  1  0.03607634  0.91715550  0.68221789  1
  O  O299  1  0.03635518  0.91606175  0.93110046  1
  O  O300  1  0.53642154  0.25199767  0.18304343  1
  O  O301  1  0.53646989  0.24956151  0.43109867  1
  O  O302  1  0.53681884  0.24913351  0.68278318  1
  O  O303  1  0.53656722  0.25109061  0.93216635  1
  O  O304  1  0.53602848  0.58214126  0.18335209  1
  O  O305  1  0.53757453  0.58341809  0.43047933  1
  O  O306  1  0.53752609  0.58214768  0.68331560  1
  O  O307  1  0.53611514  0.58132069  0.93348133  1
  O  O308  1  0.53573460  0.91692883  0.18250080  1
  O  O309  1  0.53672240  0.91784015  0.43096806  1
  O  O310  1  0.53855702  0.91754466  0.68278342  1
  O  O311  1  0.53710639  0.91720330  0.93445078  1
  O  O312  1  0.46374305  0.08303071  0.06806546  1
  O  O313  1  0.46312312  0.08479940  0.31655028  1
  O  O314  1  0.46304306  0.08579889  0.56739655  1
  O  O315  1  0.46318602  0.08378810  0.81781530  1
  O  O316  1  0.46349161  0.41660072  0.06772962  1
  O  O317  1  0.46318156  0.41659349  0.31556522  1
  O  O318  1  0.46319408  0.41593079  0.56878170  1
  O  O319  1  0.46413692  0.41659797  0.81816158  1
  O  O320  1  0.46351479  0.75081906  0.06803784  1
  O  O321  1  0.46344184  0.75035411  0.31515049  1
  O  O322  1  0.46268451  0.74980635  0.56678000  1
  O  O323  1  0.46257307  0.75080287  0.81834186  1
  O  O324  1  0.96202885  0.08386576  0.06805745  1
  O  O325  1  0.96364053  0.08305202  0.31848788  1
  O  O326  1  0.96380435  0.08315265  0.56725074  1
  O  O327  1  0.96238146  0.08264344  0.81543123  1
  O  O328  1  0.96231392  0.41656171  0.06718182  1
  O  O329  1  0.96354241  0.41572840  0.31903483  1
  O  O330  1  0.96381306  0.41548796  0.56652493  1
  O  O331  1  0.96242247  0.41589437  0.81600417  1
  O  O332  1  0.96312655  0.75221275  0.06784352  1
  O  O333  1  0.96295270  0.75147007  0.31811942  1
  O  O334  1  0.96351287  0.75012989  0.56831224  1
  O  O335  1  0.96313709  0.75047267  0.81675896  1
  O  O336  1  0.21245117  0.08355237  0.05744162  1
  O  O337  1  0.21306081  0.08157078  0.30812496  1
  O  O338  1  0.21276896  0.08244249  0.55753712  1
  O  O339  1  0.21193850  0.08510348  0.80827802  1
  O  O340  1  0.21226499  0.41581732  0.05706351  1
  O  O341  1  0.21300278  0.41674482  0.30947227  1
  O  O342  1  0.21434124  0.41529885  0.55706944  1
  O  O343  1  0.21296462  0.41518773  0.80763360  1
  O  O344  1  0.21257180  0.74954469  0.05747252  1
  O  O345  1  0.21289331  0.74917478  0.30904896  1
  O  O346  1  0.21328484  0.75004993  0.55773402  1
  O  O347  1  0.21335988  0.75063196  0.80739097  1
  O  O348  1  0.71262260  0.08543778  0.05766611  1
  O  O349  1  0.71277206  0.08323152  0.30919245  1
  O  O350  1  0.71260529  0.08335524  0.55550539  1
  O  O351  1  0.71220241  0.08494701  0.80833136  1
  O  O352  1  0.71375196  0.41820971  0.05806917  1
  O  O353  1  0.71383546  0.41563056  0.30632325  1
  O  O354  1  0.71260390  0.41628110  0.55713163  1
  O  O355  1  0.71310853  0.41836422  0.80783746  1
  O  O356  1  0.71331639  0.74774050  0.05815854  1
  O  O357  1  0.71324946  0.74988303  0.30766730  1
  O  O358  1  0.71207189  0.75013789  0.55711609  1
  O  O359  1  0.71246942  0.74840623  0.80884820  1
  O  O360  1  0.28735539  0.25030221  0.19280196  1
  O  O361  1  0.28702952  0.25156469  0.44204821  1
  O  O362  1  0.28619494  0.25098250  0.69319863  1
  O  O363  1  0.28729205  0.24966685  0.94116412  1
  O  O364  1  0.28653287  0.58284123  0.19399582  1
  O  O365  1  0.28748796  0.58261092  0.44089696  1
  O  O366  1  0.28796189  0.58429249  0.69250054  1
  O  O367  1  0.28795596  0.58385032  0.94153341  1
  O  O368  1  0.28668388  0.91885771  0.19223333  1
  O  O369  1  0.28694474  0.91636590  0.44211599  1
  O  O370  1  0.28794075  0.91583829  0.69137422  1
  O  O371  1  0.28745475  0.91785805  0.94283180  1
  O  O372  1  0.78687437  0.25143979  0.19321785  1
  O  O373  1  0.78731674  0.25011650  0.44054041  1
  O  O374  1  0.78684316  0.24939537  0.69230765  1
  O  O375  1  0.78667594  0.25067963  0.94223578  1
  O  O376  1  0.78774194  0.58317219  0.19091509  1
  O  O377  1  0.78795244  0.58177844  0.44268533  1
  O  O378  1  0.78660271  0.58224891  0.69350457  1
  O  O379  1  0.78616106  0.58348108  0.94304674  1
  O  O380  1  0.78649046  0.91628475  0.19352094  1
  O  O381  1  0.78667590  0.91619348  0.44069998  1
  O  O382  1  0.78763029  0.91653650  0.69185723  1
  O  O383  1  0.78746634  0.91693821  0.94189642  1
  O  O384  1  0.22837383  0.24954361  0.05671257  1
  O  O385  1  0.22802218  0.25073595  0.30820280  1
  O  O386  1  0.22799761  0.25210670  0.55767327  1
  O  O387  1  0.22680954  0.25054119  0.80901530  1
  O  O388  1  0.22863742  0.58309707  0.05653589  1
  O  O389  1  0.22740043  0.58312934  0.31005522  1
  O  O390  1  0.22903938  0.58273163  0.55676587  1
  O  O391  1  0.22836756  0.58466801  0.80780184  1
  O  O392  1  0.22775027  0.91856396  0.05794317  1
  O  O393  1  0.22803298  0.91831479  0.30813664  1
  O  O394  1  0.22814440  0.91478134  0.55794272  1
  O  O395  1  0.22876087  0.91672685  0.80646588  1
  O  O396  1  0.72802911  0.25223600  0.05809754  1
  O  O397  1  0.72722404  0.25127059  0.30880816  1
  O  O398  1  0.72815272  0.25026777  0.55593305  1
  O  O399  1  0.72758926  0.24950059  0.80784884  1
  O  O400  1  0.72753448  0.58320453  0.05956828  1
  O  O401  1  0.72890669  0.58279883  0.30644008  1
  O  O402  1  0.72827081  0.58119551  0.55776662  1
  O  O403  1  0.72736432  0.58289976  0.80953769  1
  O  O404  1  0.72834408  0.91656668  0.05694717  1
  O  O405  1  0.72687927  0.91682026  0.30899334  1
  O  O406  1  0.72787358  0.91645218  0.55632344  1
  O  O407  1  0.72852618  0.91650271  0.80709998  1
  O  O408  1  0.27204419  0.08142665  0.19236839  1
  O  O409  1  0.27210631  0.08197405  0.44215891  1
  O  O410  1  0.27123646  0.08387840  0.69314752  1
  O  O411  1  0.27163174  0.08514238  0.94192967  1
  O  O412  1  0.27171663  0.41660404  0.19374606  1
  O  O413  1  0.27307671  0.41615228  0.44081214  1
  O  O414  1  0.27245180  0.41477144  0.69228372  1
  O  O415  1  0.27171233  0.41522470  0.94179820  1
  O  O416  1  0.27178031  0.75031568  0.19361257  1
  O  O417  1  0.27203189  0.74851625  0.44191832  1
  O  O418  1  0.27233446  0.75207193  0.69166720  1
  O  O419  1  0.27216457  0.74875335  0.94232987  1
  O  O420  1  0.77172104  0.08395025  0.19367832  1
  O  O421  1  0.77253673  0.08262982  0.44022817  1
  O  O422  1  0.77143103  0.08359435  0.69302958  1
  O  O423  1  0.77160091  0.08618997  0.94202296  1
  O  O424  1  0.77305055  0.41639251  0.19041575  1
  O  O425  1  0.77199943  0.41463140  0.44184615  1
  O  O426  1  0.77218258  0.41814741  0.69201924  1
  O  O427  1  0.77194386  0.41829931  0.94179324  1
  O  O428  1  0.77214691  0.74822761  0.19197405  1
  O  O429  1  0.77186117  0.75094104  0.44216381  1
  O  O430  1  0.77151927  0.74915680  0.69344908  1
  O  O431  1  0.77198633  0.74764890  0.94221569  1
  O  O432  1  0.02156223  0.08428475  0.18345024  1
  O  O433  1  0.02308044  0.08332094  0.43447808  1
  O  O434  1  0.02245866  0.08228602  0.68372116  1
  O  O435  1  0.02142700  0.08262730  0.93115276  1
  O  O436  1  0.02158312  0.41591676  0.18240482  1
  O  O437  1  0.02325744  0.41655139  0.43468492  1
  O  O438  1  0.02212004  0.41471757  0.68282000  1
  O  O439  1  0.02175655  0.41653325  0.93130752  1
  O  O440  1  0.02197166  0.75226954  0.18380555  1
  O  O441  1  0.02174413  0.75130414  0.43400799  1
  O  O442  1  0.02273618  0.74918034  0.68420514  1
  O  O443  1  0.02205516  0.75217440  0.93279252  1
  O  O444  1  0.52294226  0.08419507  0.18399821  1
  O  O445  1  0.52211824  0.08593483  0.43257362  1
  O  O446  1  0.52194080  0.08604487  0.68327639  1
  O  O447  1  0.52213711  0.08245315  0.93369105  1
  O  O448  1  0.52250852  0.41667467  0.18390516  1
  O  O449  1  0.52228469  0.41609289  0.43118155  1
  O  O450  1  0.52288753  0.41699963  0.68443118  1
  O  O451  1  0.52274222  0.41634583  0.93482223  1
  O  O452  1  0.52277286  0.75117367  0.18392127  1
  O  O453  1  0.52227923  0.75056621  0.43094635  1
  O  O454  1  0.52160788  0.74938831  0.68223784  1
  O  O455  1  0.52192264  0.75100342  0.93390507  1
  O  O456  1  0.47801538  0.25194860  0.06675991  1
  O  O457  1  0.47703474  0.25093330  0.31520099  1
  O  O458  1  0.47792767  0.24861915  0.56672457  1
  O  O459  1  0.47695483  0.24991857  0.81624928  1
  O  O460  1  0.47746862  0.58167903  0.06711522  1
  O  O461  1  0.47754157  0.58254944  0.31508112  1
  O  O462  1  0.47875060  0.58309297  0.56767036  1
  O  O463  1  0.47745432  0.58119691  0.81740569  1
  O  O464  1  0.47715398  0.91720398  0.06592542  1
  O  O465  1  0.47699452  0.91648098  0.31540797  1
  O  O466  1  0.47897483  0.91784894  0.56784661  1
  O  O467  1  0.47869874  0.91751295  0.81833196  1
  O  O468  1  0.97843463  0.24953583  0.06835401  1
  O  O469  1  0.97767815  0.24729581  0.31752661  1
  O  O470  1  0.97722217  0.24860455  0.56552381  1
  O  O471  1  0.97654726  0.25035594  0.81474286  1
  O  O472  1  0.97871239  0.58407093  0.06845717  1
  O  O473  1  0.97838386  0.58347602  0.31896203  1
  O  O474  1  0.97806682  0.58169734  0.56752520  1
  O  O475  1  0.97803800  0.58476408  0.81687249  1
  O  O476  1  0.97773204  0.91493814  0.06665382  1
  O  O477  1  0.97772098  0.91508736  0.31737743  1
  O  O478  1  0.97708359  0.91623503  0.56592483  1
  O  O479  1  0.97729908  0.91740591  0.81495842  1
  O  O480  1  0.07395532  0.31263556  0.07550787  1
  O  O481  1  0.07275509  0.31142195  0.32597916  1
  O  O482  1  0.07170394  0.31275579  0.57300383  1
  O  O483  1  0.07194895  0.31340136  0.82249366  1
  O  O484  1  0.07421964  0.64734011  0.07569462  1
  O  O485  1  0.07373177  0.64657268  0.32708137  1
  O  O486  1  0.07360702  0.64536134  0.57517116  1
  O  O487  1  0.07293030  0.64852517  0.82377033  1
  O  O488  1  0.07246915  0.97945882  0.07467789  1
  O  O489  1  0.07281352  0.97889204  0.32549655  1
  O  O490  1  0.07178646  0.98009605  0.57337275  1
  O  O491  1  0.07266018  0.98024066  0.82333626  1
  O  O492  1  0.57299692  0.31524298  0.07427798  1
  O  O493  1  0.57236926  0.31390708  0.32334232  1
  O  O494  1  0.57308286  0.31263395  0.57477682  1
  O  O495  1  0.57163872  0.31407049  0.82330738  1
  O  O496  1  0.57266091  0.64542719  0.07563627  1
  O  O497  1  0.57205195  0.64696031  0.32176690  1
  O  O498  1  0.57433860  0.64598356  0.57538178  1
  O  O499  1  0.57232012  0.64544305  0.82608652  1
  O  O500  1  0.57218462  0.98074621  0.07451473  1
  O  O501  1  0.57112547  0.98154320  0.32251795  1
  O  O502  1  0.57456133  0.98092391  0.57460691  1
  O  O503  1  0.57428169  0.98038958  0.82619776  1
  O  O504  1  0.42826763  0.02015635  0.17692791  1
  O  O505  1  0.42714969  0.02164363  0.42489280  1
  O  O506  1  0.42714444  0.02143999  0.67474977  1
  O  O507  1  0.42687641  0.01964992  0.92596730  1
  O  O508  1  0.42735835  0.35315056  0.17604404  1
  O  O509  1  0.42660028  0.35347674  0.42412137  1
  O  O510  1  0.42853350  0.35254182  0.67757172  1
  O  O511  1  0.42786423  0.35268804  0.92615470  1
  O  O512  1  0.42855589  0.68642534  0.17608966  1
  O  O513  1  0.42724196  0.68661143  0.42336700  1
  O  O514  1  0.42582343  0.68670776  0.67488423  1
  O  O515  1  0.42646271  0.68758923  0.92605930  1
  O  O516  1  0.92615336  0.02062692  0.17603903  1
  O  O517  1  0.92884734  0.01885818  0.42674383  1
  O  O518  1  0.92712150  0.01929543  0.67508597  1
  O  O519  1  0.92576094  0.01995244  0.92423585  1
  O  O520  1  0.92598631  0.35307834  0.17530542  1
  O  O521  1  0.92885954  0.35192279  0.42717569  1
  O  O522  1  0.92693564  0.35150307  0.67446266  1
  O  O523  1  0.92616028  0.35318575  0.92456773  1
  O  O524  1  0.92711003  0.68798424  0.17540757  1
  O  O525  1  0.92636244  0.68778597  0.42567213  1
  O  O526  1  0.92747790  0.68612776  0.67616911  1
  O  O527  1  0.92691632  0.68810540  0.92552595  1
  O  O528  1  0.17652682  0.01863595  0.19918627  1
  O  O529  1  0.17729767  0.01803236  0.44949907  1
  O  O530  1  0.17582654  0.02061959  0.70058551  1
  O  O531  1  0.17639708  0.02079071  0.94897596  1
  O  O532  1  0.17625118  0.35320709  0.20121108  1
  O  O533  1  0.17809614  0.35229684  0.44855992  1
  O  O534  1  0.17682577  0.35214480  0.69860152  1
  O  O535  1  0.17653651  0.35184228  0.94866359  1
  O  O536  1  0.17650243  0.68621852  0.20062551  1
  O  O537  1  0.17709783  0.68509657  0.45004122  1
  O  O538  1  0.17738277  0.68740475  0.69924898  1
  O  O539  1  0.17705462  0.68555364  0.94874072  1
  O  O540  1  0.67636587  0.02039464  0.20038855  1
  O  O541  1  0.67674642  0.01998058  0.44728128  1
  O  O542  1  0.67608422  0.02031075  0.70059002  1
  O  O543  1  0.67663420  0.02175017  0.95003603  1
  O  O544  1  0.67782169  0.35297129  0.19758019  1
  O  O545  1  0.67645591  0.35211937  0.44869548  1
  O  O546  1  0.67707806  0.35425846  0.70022236  1
  O  O547  1  0.67644897  0.35516558  0.94997262  1
  O  O548  1  0.67694204  0.68534690  0.19962512  1
  O  O549  1  0.67665115  0.68668272  0.44900191  1
  O  O550  1  0.67605793  0.68565814  0.70024708  1
  O  O551  1  0.67667188  0.68456454  0.94959198  1
  O  O552  1  0.32363820  0.31328886  0.04959730  1
  O  O553  1  0.32292449  0.31452432  0.30094991  1
  O  O554  1  0.32369714  0.31463442  0.55090248  1
  O  O555  1  0.32221934  0.31374355  0.80196024  1
  O  O556  1  0.32429734  0.64644557  0.05051575  1
  O  O557  1  0.32217683  0.64715024  0.30164007  1
  O  O558  1  0.32445518  0.64615675  0.54899876  1
  O  O559  1  0.32310535  0.64850617  0.80101677  1
  O  O560  1  0.32290340  0.98194135  0.05116597  1
  O  O561  1  0.32303644  0.98194101  0.30122442  1
  O  O562  1  0.32328403  0.97919721  0.55034594  1
  O  O563  1  0.32394923  0.98048981  0.79905773  1
  O  O564  1  0.82321156  0.31522283  0.05010894  1
  O  O565  1  0.82298008  0.31387912  0.30207627  1
  O  O566  1  0.82386228  0.31289889  0.54949243  1
  O  O567  1  0.82304254  0.31297483  0.79984481  1
  O  O568  1  0.82234919  0.64716740  0.05140251  1
  O  O569  1  0.82433045  0.64620336  0.29967154  1
  O  O570  1  0.82356072  0.64517179  0.55075902  1
  O  O571  1  0.82216597  0.64656690  0.80167436  1
  O  O572  1  0.82339489  0.98074735  0.04996522  1
  O  O573  1  0.82239926  0.97981650  0.30170013  1
  O  O574  1  0.82308500  0.98014189  0.54884352  1
  O  O575  1  0.82381183  0.98009272  0.79989563  1
  O  O576  1  0.42779538  0.14747282  0.17570058  1
  O  O577  1  0.42679060  0.14861986  0.42501643  1
  O  O578  1  0.42632673  0.14849930  0.67640207  1
  O  O579  1  0.42708567  0.14666534  0.92607481  1
  O  O580  1  0.42740992  0.48023480  0.17611626  1
  O  O581  1  0.42731589  0.48011406  0.42408173  1
  O  O582  1  0.42738451  0.47986832  0.67684766  1
  O  O583  1  0.42772290  0.47982858  0.92665227  1
  O  O584  1  0.42702148  0.81383663  0.17628734  1
  O  O585  1  0.42658707  0.81342527  0.42354473  1
  O  O586  1  0.42672696  0.81372213  0.67470358  1
  O  O587  1  0.42713979  0.81480338  0.92685291  1
  O  O588  1  0.92652150  0.14773872  0.17675546  1
  O  O589  1  0.92744023  0.14611320  0.42678983  1
  O  O590  1  0.92800866  0.14651967  0.67587310  1
  O  O591  1  0.92638213  0.14661389  0.92369241  1
  O  O592  1  0.92650521  0.48001571  0.17542258  1
  O  O593  1  0.92781158  0.47947756  0.42707736  1
  O  O594  1  0.92691896  0.47843676  0.67476642  1
  O  O595  1  0.92659612  0.48018137  0.92396449  1
  O  O596  1  0.92649132  0.81506376  0.17662754  1
  O  O597  1  0.92671930  0.81477860  0.42687149  1
  O  O598  1  0.92813283  0.81357037  0.67674076  1
  O  O599  1  0.92678824  0.81501442  0.92480476  1
  O  O600  1  0.07379556  0.18581557  0.07471101  1
  O  O601  1  0.07286763  0.18439619  0.32496600  1
  O  O602  1  0.07265656  0.18563772  0.57431332  1
  O  O603  1  0.07093114  0.18592549  0.82184704  1
  O  O604  1  0.07397598  0.52031762  0.07523493  1
  O  O605  1  0.07369976  0.51965585  0.32630061  1
  O  O606  1  0.07298712  0.51822595  0.57512511  1
  O  O607  1  0.07360084  0.52136032  0.82475999  1
  O  O608  1  0.07333950  0.85241839  0.07378640  1
  O  O609  1  0.07297319  0.85203944  0.32488632  1
  O  O610  1  0.07214870  0.85285756  0.57435457  1
  O  O611  1  0.07180304  0.85298698  0.82230172  1
  O  O612  1  0.57328599  0.18835731  0.07548649  1
  O  O613  1  0.57162350  0.18668994  0.32208248  1
  O  O614  1  0.57324024  0.18582288  0.57374319  1
  O  O615  1  0.57206710  0.18677007  0.82424183  1
  O  O616  1  0.57247828  0.51843491  0.07486967  1
  O  O617  1  0.57305036  0.51951120  0.32248554  1
  O  O618  1  0.57386857  0.51918861  0.57460357  1
  O  O619  1  0.57280378  0.51834594  0.82478516  1
  O  O620  1  0.57204492  0.85343176  0.07421361  1
  O  O621  1  0.57277292  0.85416263  0.32292699  1
  O  O622  1  0.57412232  0.85386441  0.57450908  1
  O  O623  1  0.57384882  0.85361917  0.82631141  1
  O  O624  1  0.32401400  0.18666703  0.04982097  1
  O  O625  1  0.32342099  0.18731383  0.30071985  1
  O  O626  1  0.32275963  0.18759549  0.54979762  1
  O  O627  1  0.32143798  0.18641757  0.80116652  1
  O  O628  1  0.32386908  0.51960515  0.04957739  1
  O  O629  1  0.32236271  0.51955608  0.30210593  1
  O  O630  1  0.32436973  0.51943881  0.54930512  1
  O  O631  1  0.32385996  0.52115354  0.80027760  1
  O  O632  1  0.32298971  0.85466573  0.05104286  1
  O  O633  1  0.32338375  0.85493747  0.29956168  1
  O  O634  1  0.32335869  0.85193236  0.54989675  1
  O  O635  1  0.32456452  0.85371679  0.80034116  1
  O  O636  1  0.82324734  0.18820439  0.05077099  1
  O  O637  1  0.82140055  0.18651976  0.30129087  1
  O  O638  1  0.82328340  0.18624250  0.54871557  1
  O  O639  1  0.82234529  0.18570819  0.80085372  1
  O  O640  1  0.82268423  0.51998946  0.05117219  1
  O  O641  1  0.82437025  0.51953835  0.29907064  1
  O  O642  1  0.82330701  0.51789224  0.55123121  1
  O  O643  1  0.82250323  0.51929761  0.80207559  1
  O  O644  1  0.82402427  0.85369443  0.04985848  1
  O  O645  1  0.82140818  0.85233762  0.30172872  1
  O  O646  1  0.82347405  0.85339028  0.54943992  1
  O  O647  1  0.82387236  0.85304714  0.79980432  1
  O  O648  1  0.17716022  0.14569111  0.20049244  1
  O  O649  1  0.17667628  0.14536889  0.44961550  1
  O  O650  1  0.17586774  0.14745450  0.69933800  1
  O  O651  1  0.17638807  0.14787217  0.94917571  1
  O  O652  1  0.17636558  0.47996703  0.20094053  1
  O  O653  1  0.17815891  0.47963558  0.44954886  1
  O  O654  1  0.17759977  0.47925040  0.69984123  1
  O  O655  1  0.17633261  0.47896084  0.94898815  1
  O  O656  1  0.17631081  0.81312725  0.20126419  1
  O  O657  1  0.17665793  0.81221798  0.44939260  1
  O  O658  1  0.17697730  0.81450600  0.69899453  1
  O  O659  1  0.17687971  0.81282590  0.94952117  1
  O  O660  1  0.67626298  0.14712807  0.20121988  1
  O  O661  1  0.67826869  0.14744018  0.44708714  1
  O  O662  1  0.67601462  0.14717065  0.69935985  1
  O  O663  1  0.67635078  0.14914961  0.94946334  1
  O  O664  1  0.67830276  0.48026637  0.19862151  1
  O  O665  1  0.67689233  0.47905611  0.44846776  1
  O  O666  1  0.67717731  0.48142562  0.69897518  1
  O  O667  1  0.67717386  0.48200964  0.94971024  1
  O  O668  1  0.67691577  0.81239608  0.19931076  1
  O  O669  1  0.67657297  0.81391680  0.44838590  1
  O  O670  1  0.67612279  0.81253945  0.70105513  1
  O  O671  1  0.67695149  0.81172205  0.95077135  1
