# generated using pymatgen
data_Na2MnFe(PO4)2
_symmetry_space_group_name_H-M   'P 1'
_cell_length_a   22.34659739
_cell_length_b   20.09650063
_cell_length_c   19.44602108
_cell_angle_alpha   90.01618926
_cell_angle_beta   90.02505722
_cell_angle_gamma   89.98581648
_symmetry_Int_Tables_number   1
_chemical_formula_structural   Na2MnFe(PO4)2
_chemical_formula_sum   'Na96 Mn48 Fe48 P96 O384'
_cell_volume   8732.98120916
_cell_formula_units_Z   48
loop_
 _symmetry_equiv_pos_site_id
 _symmetry_equiv_pos_as_xyz
  1  'x, y, z'
loop_
 _atom_site_type_symbol
 _atom_site_label
 _atom_site_symmetry_multiplicity
 _atom_site_fract_x
 _atom_site_fract_y
 _atom_site_fract_z
 _atom_site_occupancy
  Na  Na0  1  0.14027330  0.24823914  0.24351297  1
  Na  Na1  1  0.13955796  0.25020589  0.49406331  1
  Na  Na2  1  0.14013408  0.25044410  0.74340104  1
  Na  Na3  1  0.14032358  0.24934225  0.99369782  1
  Na  Na4  1  0.14032261  0.58341649  0.24406176  1
  Na  Na5  1  0.14017636  0.58432464  0.49399238  1
  Na  Na6  1  0.14045027  0.58432521  0.74320637  1
  Na  Na7  1  0.14018351  0.58359696  0.99271697  1
  Na  Na8  1  0.14066499  0.91795701  0.24410764  1
  Na  Na9  1  0.14020645  0.91680294  0.49336506  1
  Na  Na10  1  0.14044921  0.91743567  0.74241040  1
  Na  Na11  1  0.14111997  0.91825525  0.99266859  1
  Na  Na12  1  0.63942780  0.25012241  0.24359039  1
  Na  Na13  1  0.63967169  0.24986562  0.49408972  1
  Na  Na14  1  0.64009981  0.25023429  0.74279821  1
  Na  Na15  1  0.63946533  0.24983088  0.99376828  1
  Na  Na16  1  0.64037429  0.58295913  0.24576233  1
  Na  Na17  1  0.63993040  0.58277015  0.49428220  1
  Na  Na18  1  0.64022541  0.58306702  0.74245327  1
  Na  Na19  1  0.63975629  0.58379531  0.99395373  1
  Na  Na20  1  0.64082911  0.91492481  0.24433167  1
  Na  Na21  1  0.64036255  0.91431387  0.49403828  1
  Na  Na22  1  0.64023361  0.91641571  0.74282542  1
  Na  Na23  1  0.64087199  0.91572326  0.99395447  1
  Na  Na24  1  0.35935330  0.08492863  0.00581297  1
  Na  Na25  1  0.36008104  0.08434670  0.25589456  1
  Na  Na26  1  0.35987566  0.08494520  0.50757480  1
  Na  Na27  1  0.35940133  0.08423344  0.75756705  1
  Na  Na28  1  0.35947200  0.41475827  0.00617494  1
  Na  Na29  1  0.35922599  0.41585240  0.25631642  1
  Na  Na30  1  0.35897372  0.41726222  0.50693803  1
  Na  Na31  1  0.35928710  0.41575885  0.75627174  1
  Na  Na32  1  0.35989139  0.75143341  0.00614091  1
  Na  Na33  1  0.36001796  0.75098542  0.25642409  1
  Na  Na34  1  0.36002362  0.75045651  0.50696291  1
  Na  Na35  1  0.35970757  0.75100508  0.75559647  1
  Na  Na36  1  0.85995617  0.08311096  0.00542340  1
  Na  Na37  1  0.86065150  0.08269052  0.25713466  1
  Na  Na38  1  0.86021519  0.08260827  0.50724522  1
  Na  Na39  1  0.85971950  0.08340768  0.75483916  1
  Na  Na40  1  0.85952710  0.41822196  0.00575463  1
  Na  Na41  1  0.85934051  0.41720432  0.25651933  1
  Na  Na42  1  0.85897423  0.41622159  0.50750039  1
  Na  Na43  1  0.85955575  0.41729540  0.75535386  1
  Na  Na44  1  0.86009814  0.74892638  0.00470516  1
  Na  Na45  1  0.86002511  0.74796711  0.25658639  1
  Na  Na46  1  0.86045658  0.74819544  0.50762771  1
  Na  Na47  1  0.86063104  0.74971086  0.75517100  1
  Na  Na48  1  0.11044315  0.08343561  0.11867337  1
  Na  Na49  1  0.10995721  0.08380437  0.36925369  1
  Na  Na50  1  0.10939539  0.08346758  0.61802111  1
  Na  Na51  1  0.11024210  0.08387317  0.86709716  1
  Na  Na52  1  0.10949025  0.41685632  0.11852446  1
  Na  Na53  1  0.10893280  0.41521995  0.36948999  1
  Na  Na54  1  0.10947034  0.41552050  0.61835237  1
  Na  Na55  1  0.10945795  0.41765786  0.86885186  1
  Na  Na56  1  0.10963059  0.74978594  0.11839771  1
  Na  Na57  1  0.11021522  0.75059702  0.36975193  1
  Na  Na58  1  0.11043515  0.75080333  0.61762154  1
  Na  Na59  1  0.11001399  0.75104898  0.86736163  1
  Na  Na60  1  0.60941437  0.08461329  0.11949063  1
  Na  Na61  1  0.60919605  0.08381409  0.36949043  1
  Na  Na62  1  0.60909344  0.08272609  0.61882446  1
  Na  Na63  1  0.60922002  0.08370915  0.86853681  1
  Na  Na64  1  0.60875850  0.41609877  0.11938046  1
  Na  Na65  1  0.60906740  0.41696585  0.36998408  1
  Na  Na66  1  0.60936501  0.41689594  0.61778420  1
  Na  Na67  1  0.60893955  0.41517790  0.86832986  1
  Na  Na68  1  0.60990214  0.74975612  0.11912764  1
  Na  Na69  1  0.60993229  0.74919871  0.36966884  1
  Na  Na70  1  0.60979672  0.74868205  0.61761061  1
  Na  Na71  1  0.60964544  0.74833465  0.86800266  1
  Na  Na72  1  0.38959812  0.25016841  0.13136421  1
  Na  Na73  1  0.38973477  0.25061580  0.38143945  1
  Na  Na74  1  0.38946094  0.24935167  0.63259637  1
  Na  Na75  1  0.38968782  0.24941603  0.88177766  1
  Na  Na76  1  0.39047294  0.58413064  0.13127252  1
  Na  Na77  1  0.39014580  0.58487380  0.38227033  1
  Na  Na78  1  0.38993821  0.58391394  0.63096746  1
  Na  Na79  1  0.39063130  0.58203686  0.88082667  1
  Na  Na80  1  0.39045692  0.91821025  0.13079871  1
  Na  Na81  1  0.39120221  0.91683254  0.38144215  1
  Na  Na82  1  0.39034992  0.91643312  0.63224131  1
  Na  Na83  1  0.39001025  0.91764772  0.88165121  1
  Na  Na84  1  0.89067555  0.24930867  0.13150039  1
  Na  Na85  1  0.89090971  0.24852363  0.38228170  1
  Na  Na86  1  0.88969268  0.24919766  0.63133844  1
  Na  Na87  1  0.89025447  0.25124668  0.87990213  1
  Na  Na88  1  0.89022886  0.58382351  0.13061748  1
  Na  Na89  1  0.89000395  0.58320515  0.38321906  1
  Na  Na90  1  0.89034267  0.58393125  0.63171438  1
  Na  Na91  1  0.89042909  0.58456895  0.88035557  1
  Na  Na92  1  0.89118354  0.91691199  0.13094767  1
  Na  Na93  1  0.89176101  0.91658114  0.38208454  1
  Na  Na94  1  0.89124578  0.91512534  0.63098944  1
  Na  Na95  1  0.89076655  0.91530413  0.87917460  1
  Mn  Mn96  1  0.24996685  0.66730796  0.12428668  1
  Mn  Mn97  1  0.75117839  0.83075873  0.37449734  1
  Mn  Mn98  1  0.75001589  0.16646409  0.37548233  1
  Mn  Mn99  1  0.50050262  0.00069135  0.25066958  1
  Mn  Mn100  1  0.49970497  0.49980231  0.25001739  1
  Mn  Mn101  1  0.00022373  0.50039168  0.74945744  1
  Mn  Mn102  1  0.75004351  0.33394012  0.87435829  1
  Mn  Mn103  1  0.00046460  0.66661766  0.25033786  1
  Mn  Mn104  1  0.49947432  0.33266050  0.74956477  1
  Mn  Mn105  1  0.75025473  0.16690295  0.87466325  1
  Mn  Mn106  1  0.50090761  0.83320222  0.00002459  1
  Mn  Mn107  1  -0.00023388  0.16676494  -0.00086331  1
  Mn  Mn108  1  0.75006691  -0.00044044  0.87407384  1
  Mn  Mn109  1  0.25012904  0.00097863  0.62529875  1
  Mn  Mn110  1  0.24937258  0.50018150  0.62507643  1
  Mn  Mn111  1  -0.00062793  0.33231393  0.24949934  1
  Mn  Mn112  1  0.50001353  0.66792256  0.25123592  1
  Mn  Mn113  1  0.00009872  0.33462580  0.00059384  1
  Mn  Mn114  1  0.24996289  0.83508678  0.12524234  1
  Mn  Mn115  1  0.74921610  0.50123535  0.87505915  1
  Mn  Mn116  1  0.49969006  0.66526013  0.74902772  1
  Mn  Mn117  1  0.50069250  0.00129293  0.00119121  1
  Mn  Mn118  1  0.24926792  0.33260965  0.37557972  1
  Mn  Mn119  1  0.25015059  0.49900649  0.87407735  1
  Mn  Mn120  1  0.00117191  0.83300176  -0.00026227  1
  Mn  Mn121  1  0.49973367  0.00018877  0.50020103  1
  Mn  Mn122  1  -0.00017636  0.49950149  0.50090807  1
  Mn  Mn123  1  -0.00007088  0.49989126  0.25079377  1
  Mn  Mn124  1  0.74979184  0.33373715  0.12525189  1
  Mn  Mn125  1  0.74919626  0.50107126  0.12576407  1
  Mn  Mn126  1  0.25101063  0.00132738  0.37514552  1
  Mn  Mn127  1  0.75029751  0.83179603  0.87427603  1
  Mn  Mn128  1  0.49918334  0.33325322  0.50026176  1
  Mn  Mn129  1  -0.00015908  0.16676813  0.74900461  1
  Mn  Mn130  1  0.75016927  -0.00087538  0.62467703  1
  Mn  Mn131  1  0.25088981  0.83328349  0.37435248  1
  Mn  Mn132  1  0.00005010  0.83411469  0.25007169  1
  Mn  Mn133  1  0.49985636  0.49912535  0.00043477  1
  Mn  Mn134  1  0.75015475  0.16645408  0.12502015  1
  Mn  Mn135  1  0.75010352  0.33382782  0.37534539  1
  Mn  Mn136  1  0.75013520  -0.00144634  0.37570274  1
  Mn  Mn137  1  0.25083956  0.66789818  0.87423054  1
  Mn  Mn138  1  0.00026260  0.00011588  -0.00053517  1
  Mn  Mn139  1  0.75038529  -0.00087606  0.12498200  1
  Mn  Mn140  1  0.24926785  0.50062444  0.37546818  1
  Mn  Mn141  1  0.25045534  0.49920875  0.12455369  1
  Mn  Mn142  1  0.49985739  0.83330535  0.75036426  1
  Mn  Mn143  1  0.75109321  0.83124205  0.12429767  1
  Fe  Fe144  1  0.00064962  0.66704356  0.50093627  1
  Fe  Fe145  1  0.49989598  0.49918630  0.74983453  1
  Fe  Fe146  1  0.00016751  0.66677658  -0.00063485  1
  Fe  Fe147  1  0.49996966  0.00011487  0.75035674  1
  Fe  Fe148  1  0.00089043  0.83320856  0.74905869  1
  Fe  Fe149  1  0.49970464  0.16722879  -0.00010697  1
  Fe  Fe150  1  0.49886049  0.50000587  0.49960529  1
  Fe  Fe151  1  0.74997412  0.66583924  0.12544390  1
  Fe  Fe152  1  0.49952093  0.33239395  -0.00044157  1
  Fe  Fe153  1  0.75014161  0.66593781  0.62482651  1
  Fe  Fe154  1  0.24913760  0.33254657  0.12550784  1
  Fe  Fe155  1  0.24981459  0.16637582  0.12434485  1
  Fe  Fe156  1  0.25015320  0.16689344  0.37488668  1
  Fe  Fe157  1  0.49980005  0.66679861  0.50009984  1
  Fe  Fe158  1  -0.00038224  0.33366173  0.74971900  1
  Fe  Fe159  1  0.74933042  0.16660961  0.62510095  1
  Fe  Fe160  1  0.49974442  0.66645971  0.00006764  1
  Fe  Fe161  1  0.24965322  0.16767926  0.62606809  1
  Fe  Fe162  1  0.25030313  0.66751603  0.62486169  1
  Fe  Fe163  1  0.50012937  0.83368985  0.25049112  1
  Fe  Fe164  1  0.00071713  0.83348508  0.50034967  1
  Fe  Fe165  1  -0.00010450  -0.00043870  0.74867089  1
  Fe  Fe166  1  0.75035326  0.83182694  0.62474196  1
  Fe  Fe167  1  -0.00057519  0.33220883  0.49935317  1
  Fe  Fe168  1  0.49963453  0.16789676  0.24980145  1
  Fe  Fe169  1  0.24954011  0.16741081  0.87542505  1
  Fe  Fe170  1  0.50033882  0.83354898  0.50072392  1
  Fe  Fe171  1  0.24978288  0.00099007  0.87439524  1
  Fe  Fe172  1  0.75007578  0.50036669  0.62513077  1
  Fe  Fe173  1  0.74975920  0.66657959  0.87399618  1
  Fe  Fe174  1  -0.00027959  0.50106039  -0.00095520  1
  Fe  Fe175  1  0.24997503  0.83447740  0.87458348  1
  Fe  Fe176  1  0.24998778  0.66716558  0.37509578  1
  Fe  Fe177  1  -0.00029779  0.16589040  0.50011190  1
  Fe  Fe178  1  0.00050492  0.16585065  0.25086602  1
  Fe  Fe179  1  0.00101853  0.00055990  0.25082790  1
  Fe  Fe180  1  0.49902580  0.33321529  0.25011528  1
  Fe  Fe181  1  0.25064287  0.00115942  0.12391951  1
  Fe  Fe182  1  0.49991444  0.16613319  0.75052217  1
  Fe  Fe183  1  0.00098179  0.66717670  0.75013753  1
  Fe  Fe184  1  0.24933138  0.33251823  0.87546891  1
  Fe  Fe185  1  0.25031685  0.83427730  0.62471123  1
  Fe  Fe186  1  0.00045035  -0.00034979  0.49985180  1
  Fe  Fe187  1  0.75016263  0.66526317  0.37635620  1
  Fe  Fe188  1  0.74961574  0.50005340  0.37608370  1
  Fe  Fe189  1  0.24942984  0.33306519  0.62568660  1
  Fe  Fe190  1  0.49940475  0.16700333  0.50007764  1
  Fe  Fe191  1  0.74953727  0.33383505  0.62467582  1
  P  P192  1  0.04263620  0.24940660  0.10338709  1
  P  P193  1  0.04189541  0.24841654  0.35337208  1
  P  P194  1  0.04061755  0.24990966  0.60158488  1
  P  P195  1  0.04208492  0.25177523  0.85185161  1
  P  P196  1  0.04172409  0.58346404  0.10113874  1
  P  P197  1  0.04270049  0.58352257  0.35442460  1
  P  P198  1  0.04235420  0.58474031  0.60317802  1
  P  P199  1  0.04254345  0.58483551  0.85269260  1
  P  P200  1  0.04351081  0.91731378  0.10326666  1
  P  P201  1  0.04275379  0.91822741  0.35352175  1
  P  P202  1  0.04168739  0.91684740  0.60196387  1
  P  P203  1  0.04181624  0.91687351  0.85043977  1
  P  P204  1  0.54085971  0.25020151  0.10231615  1
  P  P205  1  0.54094670  0.25041105  0.35212547  1
  P  P206  1  0.54128223  0.24831352  0.60295699  1
  P  P207  1  0.54186240  0.24859026  0.85268937  1
  P  P208  1  0.54188996  0.58447613  0.10268949  1
  P  P209  1  0.54185439  0.58320441  0.35440570  1
  P  P210  1  0.54059219  0.58245116  0.60139276  1
  P  P211  1  0.54213550  0.58126043  0.85222876  1
  P  P212  1  0.54322412  0.91680188  0.10405082  1
  P  P213  1  0.54250007  0.91535094  0.35338120  1
  P  P214  1  0.54215763  0.91608280  0.60312480  1
  P  P215  1  0.54241356  0.91795016  0.85257301  1
  P  P216  1  0.45805626  0.08553168  0.14757086  1
  P  P217  1  0.45763847  0.08519739  0.39748598  1
  P  P218  1  0.45806862  0.08316516  0.64868765  1
  P  P219  1  0.45794826  0.08462740  0.89725703  1
  P  P220  1  0.45735080  0.41502701  0.14714319  1
  P  P221  1  0.45678172  0.41741821  0.39738609  1
  P  P222  1  0.45748563  0.41790097  0.64700142  1
  P  P223  1  0.45746263  0.41484471  0.89727296  1
  P  P224  1  0.45778734  0.75157421  0.14767509  1
  P  P225  1  0.45893451  0.75108814  0.39875676  1
  P  P226  1  0.45770295  0.75002621  0.64606643  1
  P  P227  1  0.45791419  0.74855992  0.89753728  1
  P  P228  1  0.95894317  0.08311746  0.14880968  1
  P  P229  1  0.95900757  0.08267818  0.39811518  1
  P  P230  1  0.95808824  0.08154704  0.64606646  1
  P  P231  1  0.95744651  0.08285420  0.89536825  1
  P  P232  1  0.95708032  0.41751491  0.14656590  1
  P  P233  1  0.95707163  0.41502086  0.39806222  1
  P  P234  1  0.95794901  0.41516125  0.64686896  1
  P  P235  1  0.95753924  0.41843010  0.89687655  1
  P  P236  1  0.95782948  0.74971489  0.14657434  1
  P  P237  1  0.95915433  0.75017919  0.39917823  1
  P  P238  1  0.95990243  0.74963107  0.64756704  1
  P  P239  1  0.95876574  0.74901933  0.89635430  1
  P  P240  1  0.20920691  0.08348185  0.22648965  1
  P  P241  1  0.20836631  0.08560588  0.47809131  1
  P  P242  1  0.20777654  0.08524824  0.72820862  1
  P  P243  1  0.20843952  0.08388050  0.97664771  1
  P  P244  1  0.20731960  0.41533072  0.22755044  1
  P  P245  1  0.20675936  0.41647180  0.47896044  1
  P  P246  1  0.20747598  0.41506067  0.72790834  1
  P  P247  1  0.20780818  0.41480741  0.97771709  1
  P  P248  1  0.20721813  0.75035175  0.22819269  1
  P  P249  1  0.20857085  0.74948071  0.47814576  1
  P  P250  1  0.20904450  0.75137263  0.72637310  1
  P  P251  1  0.20788136  0.75224675  0.97667409  1
  P  P252  1  0.70734611  0.08267019  0.22852538  1
  P  P253  1  0.70744851  0.08291906  0.47903435  1
  P  P254  1  0.70755657  0.08401692  0.72696455  1
  P  P255  1  0.70704912  0.08295013  0.97782020  1
  P  P256  1  0.70674464  0.41731746  0.22914782  1
  P  P257  1  0.70772130  0.41799517  0.47881122  1
  P  P258  1  0.70810607  0.41725189  0.72616233  1
  P  P259  1  0.70655899  0.41726016  0.97799989  1
  P  P260  1  0.70806904  0.74730535  0.22801860  1
  P  P261  1  0.70846657  0.74755744  0.47865289  1
  P  P262  1  0.70833721  0.74891976  0.72630376  1
  P  P263  1  0.70757733  0.74779880  0.97736930  1
  P  P264  1  0.29055681  0.25007972  0.02306101  1
  P  P265  1  0.29164765  0.24881261  0.27205371  1
  P  P266  1  0.29114387  0.25009521  0.52390416  1
  P  P267  1  0.29099986  0.25002438  0.77327273  1
  P  P268  1  0.29302183  0.58321884  0.02131361  1
  P  P269  1  0.29228537  0.58458315  0.27269385  1
  P  P270  1  0.29165815  0.58516508  0.52230719  1
  P  P271  1  0.29270043  0.58372896  0.77101518  1
  P  P272  1  0.29234277  0.91888373  0.02121405  1
  P  P273  1  0.29348462  0.91801263  0.27142590  1
  P  P274  1  0.29252067  0.91657376  0.52278459  1
  P  P275  1  0.29127996  0.91720013  0.77294406  1
  P  P276  1  0.79310109  0.25043215  0.02175954  1
  P  P277  1  0.79311529  0.25010924  0.27234826  1
  P  P278  1  0.79084340  0.24990863  0.52373194  1
  P  P279  1  0.79236242  0.25038779  0.77026180  1
  P  P280  1  0.79189392  0.58488145  0.02215310  1
  P  P281  1  0.79183950  0.58291835  0.27425117  1
  P  P282  1  0.79167392  0.58277348  0.52327180  1
  P  P283  1  0.79196278  0.58459433  0.77121300  1
  P  P284  1  0.79361397  0.91561801  0.02131032  1
  P  P285  1  0.79376129  0.91525028  0.27204620  1
  P  P286  1  0.79267525  0.91391199  0.52265736  1
  P  P287  1  0.79252357  0.91539233  0.77050004  1
  O  O288  1  0.03749408  0.24854206  0.18337929  1
  O  O289  1  0.03628742  0.24877865  0.43326767  1
  O  O290  1  0.03576934  0.25026980  0.68155101  1
  O  O291  1  0.03697682  0.25148996  0.93180530  1
  O  O292  1  0.03699951  0.58329668  0.18121795  1
  O  O293  1  0.03755473  0.58391701  0.43439048  1
  O  O294  1  0.03724093  0.58485636  0.68313852  1
  O  O295  1  0.03701548  0.58452611  0.93258048  1
  O  O296  1  0.03846219  0.91780645  0.18324222  1
  O  O297  1  0.03719200  0.91796220  0.43339942  1
  O  O298  1  0.03665347  0.91667593  0.68184231  1
  O  O299  1  0.03740876  0.91649998  0.93045392  1
  O  O300  1  0.53537502  0.25049262  0.18224302  1
  O  O301  1  0.53578618  0.25015177  0.43210995  1
  O  O302  1  0.53626785  0.24822652  0.68289395  1
  O  O303  1  0.53666261  0.24911553  0.93260611  1
  O  O304  1  0.53665949  0.58451281  0.18262448  1
  O  O305  1  0.53625879  0.58296127  0.43427364  1
  O  O306  1  0.53607600  0.58194023  0.68139405  1
  O  O307  1  0.53704875  0.58192522  0.93213908  1
  O  O308  1  0.53782564  0.91636313  0.18400449  1
  O  O309  1  0.53682444  0.91528782  0.43334752  1
  O  O310  1  0.53693567  0.91695475  0.68307237  1
  O  O311  1  0.53762473  0.91785787  0.93257508  1
  O  O312  1  0.46344833  0.08558728  0.06764386  1
  O  O313  1  0.46321689  0.08531840  0.31759326  1
  O  O314  1  0.46286545  0.08338083  0.56867757  1
  O  O315  1  0.46329913  0.08408976  0.81735419  1
  O  O316  1  0.46287529  0.41463289  0.06720137  1
  O  O317  1  0.46201770  0.41659803  0.31743890  1
  O  O318  1  0.46249560  0.41809680  0.56703192  1
  O  O319  1  0.46272156  0.41533422  0.81731572  1
  O  O320  1  0.46305904  0.75059547  0.06773390  1
  O  O321  1  0.46373978  0.75149095  0.31875404  1
  O  O322  1  0.46304501  0.75047734  0.56618191  1
  O  O323  1  0.46297959  0.74864101  0.81755559  1
  O  O324  1  0.96369031  0.08330840  0.06874688  1
  O  O325  1  0.96410661  0.08301298  0.31817336  1
  O  O326  1  0.96365159  0.08155255  0.56619540  1
  O  O327  1  0.96259945  0.08260929  0.81540489  1
  O  O328  1  0.96225103  0.41840831  0.06658958  1
  O  O329  1  0.96212091  0.41532788  0.31807679  1
  O  O330  1  0.96325859  0.41474761  0.56695655  1
  O  O331  1  0.96295988  0.41776986  0.81691081  1
  O  O332  1  0.96327363  0.74923323  0.06663187  1
  O  O333  1  0.96351323  0.75040324  0.31915132  1
  O  O334  1  0.96479747  0.74975890  0.56766223  1
  O  O335  1  0.96416740  0.74905822  0.81645827  1
  O  O336  1  0.21347456  0.08319933  0.05654469  1
  O  O337  1  0.21408359  0.08409319  0.30646037  1
  O  O338  1  0.21344719  0.08578470  0.55804570  1
  O  O339  1  0.21282619  0.08491550  0.80810022  1
  O  O340  1  0.21319661  0.41484095  0.05767878  1
  O  O341  1  0.21236143  0.41589598  0.30757355  1
  O  O342  1  0.21200564  0.41607213  0.55893157  1
  O  O343  1  0.21283050  0.41470496  0.80786408  1
  O  O344  1  0.21283352  0.75212910  0.05664303  1
  O  O345  1  0.21256521  0.74962026  0.30818121  1
  O  O346  1  0.21417158  0.74984704  0.55804533  1
  O  O347  1  0.21409801  0.75207881  0.80633757  1
  O  O348  1  0.71218441  0.08286191  0.05784145  1
  O  O349  1  0.71235125  0.08263166  0.30856289  1
  O  O350  1  0.71280077  0.08351004  0.55900195  1
  O  O351  1  0.71272614  0.08387379  0.80692705  1
  O  O352  1  0.71146120  0.41733069  0.05801301  1
  O  O353  1  0.71200360  0.41763548  0.30912601  1
  O  O354  1  0.71319567  0.41786431  0.55871447  1
  O  O355  1  0.71264808  0.41723778  0.80618689  1
  O  O356  1  0.71282989  0.74767428  0.05734719  1
  O  O357  1  0.71336784  0.74704953  0.30798748  1
  O  O358  1  0.71376969  0.74828109  0.55857068  1
  O  O359  1  0.71315533  0.74851460  0.80632944  1
  O  O360  1  0.28624556  0.24917200  0.19223368  1
  O  O361  1  0.28652117  0.24982107  0.44391676  1
  O  O362  1  0.28580576  0.25009001  0.69335088  1
  O  O363  1  0.28558769  0.24996609  0.94315361  1
  O  O364  1  0.28734145  0.58413427  0.19265511  1
  O  O365  1  0.28619185  0.58523718  0.44234456  1
  O  O366  1  0.28707460  0.58419566  0.69107655  1
  O  O367  1  0.28801339  0.58308974  0.94129859  1
  O  O368  1  0.28830039  0.91850718  0.19146001  1
  O  O369  1  0.28789407  0.91673557  0.44280583  1
  O  O370  1  0.28646107  0.91715861  0.69292985  1
  O  O371  1  0.28679778  0.91849064  0.94131472  1
  O  O372  1  0.78829508  0.25009887  0.19233618  1
  O  O373  1  0.78637937  0.25024476  0.44371057  1
  O  O374  1  0.78675018  0.25008126  0.69033617  1
  O  O375  1  0.78811094  0.25044227  0.94168820  1
  O  O376  1  0.78663189  0.58348260  0.19427466  1
  O  O377  1  0.78667556  0.58249872  0.44336356  1
  O  O378  1  0.78670113  0.58394643  0.69128131  1
  O  O379  1  0.78670483  0.58498696  0.94218827  1
  O  O380  1  0.78883619  0.91530918  0.19203340  1
  O  O381  1  0.78779261  0.91388527  0.44265771  1
  O  O382  1  0.78717386  0.91476144  0.69054782  1
  O  O383  1  0.78828040  0.91566661  0.94128833  1
  O  O384  1  0.22657194  0.25024789  0.05936921  1
  O  O385  1  0.22749673  0.24829534  0.30823320  1
  O  O386  1  0.22684567  0.24994133  0.55953220  1
  O  O387  1  0.22691368  0.24988946  0.80956965  1
  O  O388  1  0.22857828  0.58305599  0.05628077  1
  O  O389  1  0.22787952  0.58518571  0.30801400  1
  O  O390  1  0.22757498  0.58520982  0.55837987  1
  O  O391  1  0.22852963  0.58373096  0.80664088  1
  O  O392  1  0.22828589  0.91939667  0.05755995  1
  O  O393  1  0.22921859  0.91772807  0.30687036  1
  O  O394  1  0.22811567  0.91670626  0.55796936  1
  O  O395  1  0.22710915  0.91667990  0.80872781  1
  O  O396  1  0.72854424  0.25013953  0.05652263  1
  O  O397  1  0.72851248  0.25016742  0.30692250  1
  O  O398  1  0.72656817  0.24965988  0.55911137  1
  O  O399  1  0.72817796  0.25033425  0.80604530  1
  O  O400  1  0.72759519  0.58522245  0.05787308  1
  O  O401  1  0.72763996  0.58292143  0.31036251  1
  O  O402  1  0.72752216  0.58301590  0.55935826  1
  O  O403  1  0.72771468  0.58520812  0.80708619  1
  O  O404  1  0.72925100  0.91531646  0.05652067  1
  O  O405  1  0.72924025  0.91471476  0.30686989  1
  O  O406  1  0.72829801  0.91416161  0.55783465  1
  O  O407  1  0.72830345  0.91533563  0.80603191  1
  O  O408  1  0.27327117  0.08315391  0.19037973  1
  O  O409  1  0.27265533  0.08588202  0.44242734  1
  O  O410  1  0.27199501  0.08544167  0.69236925  1
  O  O411  1  0.27245978  0.08467006  0.94036638  1
  O  O412  1  0.27164679  0.41468762  0.19210162  1
  O  O413  1  0.27099938  0.41659404  0.44351842  1
  O  O414  1  0.27164694  0.41548910  0.69209834  1
  O  O415  1  0.27197270  0.41451691  0.94174558  1
  O  O416  1  0.27156249  0.75079681  0.19292080  1
  O  O417  1  0.27261603  0.74880973  0.44171347  1
  O  O418  1  0.27314767  0.75114441  0.69040204  1
  O  O419  1  0.27228788  0.75274797  0.94137331  1
  O  O420  1  0.77183829  0.08288794  0.19364206  1
  O  O421  1  0.77183056  0.08277895  0.44384864  1
  O  O422  1  0.77184203  0.08414579  0.69150274  1
  O  O423  1  0.77154577  0.08294567  0.94289469  1
  O  O424  1  0.77107090  0.41740035  0.19382247  1
  O  O425  1  0.77181025  0.41827013  0.44262017  1
  O  O426  1  0.77240113  0.41745584  0.69077849  1
  O  O427  1  0.77103799  0.41763349  0.94308058  1
  O  O428  1  0.77239032  0.74699030  0.19233429  1
  O  O429  1  0.77268004  0.74682025  0.44273041  1
  O  O430  1  0.77263513  0.74874965  0.69065408  1
  O  O431  1  0.77189297  0.74743656  0.94165796  1
  O  O432  1  0.02325195  0.08310611  0.18455220  1
  O  O433  1  0.02302150  0.08249031  0.43444012  1
  O  O434  1  0.02210712  0.08169043  0.68247660  1
  O  O435  1  0.02185852  0.08327793  0.93061175  1
  O  O436  1  0.02142363  0.41676567  0.18193507  1
  O  O437  1  0.02144965  0.41478878  0.43342813  1
  O  O438  1  0.02213522  0.41527608  0.68279559  1
  O  O439  1  0.02172760  0.41903483  0.93290981  1
  O  O440  1  0.02208387  0.75017712  0.18218501  1
  O  O441  1  0.02347344  0.74981616  0.43455917  1
  O  O442  1  0.02394893  0.74938708  0.68378932  1
  O  O443  1  0.02286833  0.74866889  0.93259447  1
  O  O444  1  0.52213775  0.08563060  0.18373294  1
  O  O445  1  0.52176407  0.08505349  0.43362016  1
  O  O446  1  0.52231056  0.08281572  0.68449274  1
  O  O447  1  0.52208031  0.08552874  0.93342678  1
  O  O448  1  0.52145136  0.41477317  0.18330695  1
  O  O449  1  0.52102599  0.41763719  0.43317885  1
  O  O450  1  0.52177766  0.41747724  0.68266536  1
  O  O451  1  0.52163940  0.41442821  0.93320639  1
  O  O452  1  0.52205053  0.75213007  0.18357081  1
  O  O453  1  0.52302926  0.75099164  0.43477442  1
  O  O454  1  0.52185809  0.74977842  0.68189651  1
  O  O455  1  0.52228345  0.74807278  0.93298023  1
  O  O456  1  0.47687904  0.25014211  0.06555841  1
  O  O457  1  0.47679363  0.25053891  0.31597698  1
  O  O458  1  0.47698754  0.24856626  0.56731994  1
  O  O459  1  0.47761530  0.24841817  0.81680348  1
  O  O460  1  0.47768014  0.58431282  0.06682891  1
  O  O461  1  0.47780223  0.58353104  0.31831195  1
  O  O462  1  0.47644038  0.58276147  0.56559566  1
  O  O463  1  0.47778652  0.58096582  0.81657629  1
  O  O464  1  0.47898985  0.91684489  0.06844138  1
  O  O465  1  0.47838156  0.91557253  0.31719781  1
  O  O466  1  0.47791591  0.91564837  0.56733926  1
  O  O467  1  0.47797513  0.91807578  0.81731944  1
  O  O468  1  0.97831375  0.25005689  0.06799856  1
  O  O469  1  0.97784052  0.24785860  0.31701471  1
  O  O470  1  0.97650940  0.24999332  0.56559289  1
  O  O471  1  0.97778462  0.25143600  0.81625238  1
  O  O472  1  0.97746387  0.58353997  0.06536583  1
  O  O473  1  0.97830250  0.58347554  0.31918752  1
  O  O474  1  0.97810450  0.58465848  0.56750163  1
  O  O475  1  0.97845454  0.58508122  0.81643638  1
  O  O476  1  0.97915344  0.91667786  0.06793049  1
  O  O477  1  0.97870510  0.91887943  0.31711293  1
  O  O478  1  0.97769157  0.91703443  0.56564770  1
  O  O479  1  0.97758442  0.91702851  0.81481545  1
  O  O480  1  0.07370808  0.31311884  0.07583523  1
  O  O481  1  0.07286739  0.31204092  0.32525646  1
  O  O482  1  0.07193278  0.31308581  0.57306824  1
  O  O483  1  0.07236905  0.31561091  0.82355214  1
  O  O484  1  0.07250436  0.64722483  0.07316545  1
  O  O485  1  0.07397993  0.64660374  0.32569442  1
  O  O486  1  0.07328959  0.64801267  0.57446661  1
  O  O487  1  0.07370486  0.64815351  0.82414221  1
  O  O488  1  0.07428533  0.98065548  0.07433968  1
  O  O489  1  0.07408601  0.98145650  0.32502010  1
  O  O490  1  0.07309270  0.98014716  0.57374879  1
  O  O491  1  0.07268723  0.98049376  0.82240383  1
  O  O492  1  0.57190982  0.31365949  0.07380456  1
  O  O493  1  0.57156923  0.31431639  0.32419747  1
  O  O494  1  0.57231406  0.31208422  0.57527862  1
  O  O495  1  0.57305298  0.31200774  0.82421010  1
  O  O496  1  0.57234929  0.64805127  0.07398555  1
  O  O497  1  0.57329741  0.64661626  0.32648044  1
  O  O498  1  0.57103786  0.64658429  0.57349258  1
  O  O499  1  0.57326926  0.64457804  0.82368202  1
  O  O500  1  0.57408017  0.98061792  0.07639656  1
  O  O501  1  0.57356699  0.97925383  0.32612233  1
  O  O502  1  0.57324072  0.97940553  0.57458496  1
  O  O503  1  0.57303789  0.98138768  0.82383011  1
  O  O504  1  0.42722668  0.02166200  0.17519974  1
  O  O505  1  0.42658864  0.02138163  0.42502851  1
  O  O506  1  0.42733094  0.01937112  0.67686780  1
  O  O507  1  0.42726965  0.02093588  0.92564645  1
  O  O508  1  0.42605680  0.35206641  0.17606924  1
  O  O509  1  0.42553763  0.35412645  0.42588351  1
  O  O510  1  0.42639710  0.35408584  0.67447007  1
  O  O511  1  0.42661617  0.35123545  0.92543724  1
  O  O512  1  0.42668748  0.68816223  0.17612726  1
  O  O513  1  0.42859463  0.68690837  0.42667112  1
  O  O514  1  0.42643808  0.68655137  0.67400840  1
  O  O515  1  0.42703575  0.68513591  0.92602351  1
  O  O516  1  0.92836346  0.01932183  0.17689816  1
  O  O517  1  0.92767899  0.01935031  0.42636935  1
  O  O518  1  0.92722769  0.01811870  0.67470612  1
  O  O519  1  0.92650196  0.01950893  0.92397764  1
  O  O520  1  0.92588465  0.35385298  0.17414033  1
  O  O521  1  0.92622686  0.35147112  0.42623711  1
  O  O522  1  0.92697293  0.35201954  0.67581595  1
  O  O523  1  0.92648374  0.35495703  0.92499580  1
  O  O524  1  0.92676668  0.68641636  0.17520787  1
  O  O525  1  0.92814130  0.68667091  0.42741233  1
  O  O526  1  0.92851015  0.68639956  0.67596460  1
  O  O527  1  0.92760330  0.68581664  0.92522077  1
  O  O528  1  0.17824137  0.01983367  0.19850961  1
  O  O529  1  0.17782676  0.02150575  0.45046879  1
  O  O530  1  0.17681803  0.02168480  0.69972996  1
  O  O531  1  0.17809638  0.02019793  0.94735931  1
  O  O532  1  0.17628034  0.35181471  0.19957897  1
  O  O533  1  0.17550956  0.35325366  0.45047273  1
  O  O534  1  0.17680928  0.35165478  0.69897264  1
  O  O535  1  0.17656529  0.35158964  0.94920257  1
  O  O536  1  0.17604963  0.68719667  0.19931182  1
  O  O537  1  0.17719239  0.68628317  0.44967477  1
  O  O538  1  0.17829799  0.68737359  0.69877871  1
  O  O539  1  0.17733854  0.68832560  0.94880191  1
  O  O540  1  0.67653111  0.01905410  0.20044519  1
  O  O541  1  0.67665361  0.01901243  0.45138576  1
  O  O542  1  0.67657676  0.02027319  0.69935764  1
  O  O543  1  0.67614756  0.01941234  0.94957962  1
  O  O544  1  0.67590197  0.35366680  0.20098274  1
  O  O545  1  0.67658668  0.35428114  0.45098915  1
  O  O546  1  0.67766076  0.35335150  0.69779512  1
  O  O547  1  0.67589482  0.35368162  0.94959695  1
  O  O548  1  0.67684616  0.68416846  0.19931724  1
  O  O549  1  0.67727684  0.68415162  0.45040664  1
  O  O550  1  0.67711401  0.68566426  0.69770303  1
  O  O551  1  0.67637733  0.68486512  0.94826921  1
  O  O552  1  0.32173008  0.31336936  0.05172631  1
  O  O553  1  0.32256742  0.31238076  0.30053818  1
  O  O554  1  0.32147634  0.31414080  0.55217419  1
  O  O555  1  0.32188589  0.31364233  0.80168345  1
  O  O556  1  0.32379591  0.64691480  0.04930844  1
  O  O557  1  0.32327223  0.64802617  0.30105097  1
  O  O558  1  0.32279799  0.64838233  0.55095189  1
  O  O559  1  0.32420581  0.64689927  0.79927322  1
  O  O560  1  0.32342857  0.98232468  0.04969324  1
  O  O561  1  0.32468133  0.98116920  0.30013287  1
  O  O562  1  0.32355411  0.98018530  0.55071852  1
  O  O563  1  0.32128059  0.98142407  0.80125620  1
  O  O564  1  0.82379445  0.31407507  0.04990727  1
  O  O565  1  0.82401616  0.31358312  0.30069714  1
  O  O566  1  0.82114011  0.31389596  0.55207718  1
  O  O567  1  0.82340594  0.31396757  0.79849387  1
  O  O568  1  0.82313686  0.64787343  0.05110128  1
  O  O569  1  0.82295848  0.64622114  0.30291871  1
  O  O570  1  0.82278689  0.64630334  0.55153281  1
  O  O571  1  0.82307641  0.64793933  0.79966802  1
  O  O572  1  0.82455069  0.97912233  0.04953231  1
  O  O573  1  0.82420041  0.97890560  0.30063240  1
  O  O574  1  0.82388163  0.97755106  0.55016603  1
  O  O575  1  0.82333166  0.97928681  0.79802855  1
  O  O576  1  0.42687415  0.14880792  0.17598691  1
  O  O577  1  0.42668523  0.14845224  0.42635997  1
  O  O578  1  0.42728315  0.14673906  0.67720549  1
  O  O579  1  0.42656607  0.14787797  0.92574310  1
  O  O580  1  0.42664302  0.47918978  0.17437894  1
  O  O581  1  0.42602947  0.48112324  0.42552188  1
  O  O582  1  0.42682725  0.48120646  0.67605479  1
  O  O583  1  0.42631313  0.47829319  0.92543380  1
  O  O584  1  0.42698689  0.81527436  0.17577838  1
  O  O585  1  0.42765157  0.81433597  0.42720822  1
  O  O586  1  0.42648206  0.81323277  0.67494115  1
  O  O587  1  0.42725393  0.81253631  0.92510273  1
  O  O588  1  0.92813980  0.14674534  0.17710717  1
  O  O589  1  0.92832934  0.14640783  0.42691076  1
  O  O590  1  0.92671245  0.14513095  0.67372003  1
  O  O591  1  0.92635933  0.14643585  0.92349920  1
  O  O592  1  0.92613559  0.48075024  0.17558559  1
  O  O593  1  0.92626870  0.47870438  0.42613710  1
  O  O594  1  0.92705913  0.47917699  0.67416392  1
  O  O595  1  0.92667631  0.48217678  0.92481117  1
  O  O596  1  0.92668458  0.81324795  0.17455897  1
  O  O597  1  0.92892450  0.81414180  0.42767942  1
  O  O598  1  0.92947178  0.81356371  0.67619633  1
  O  O599  1  0.92777169  0.81276938  0.92425683  1
  O  O600  1  0.07359408  0.18621094  0.07437218  1
  O  O601  1  0.07309599  0.18501934  0.32494149  1
  O  O602  1  0.07095676  0.18570778  0.57368211  1
  O  O603  1  0.07343378  0.18836992  0.82392659  1
  O  O604  1  0.07242217  0.51979125  0.07277397  1
  O  O605  1  0.07348656  0.51970463  0.32642966  1
  O  O606  1  0.07330608  0.52082689  0.57574474  1
  O  O607  1  0.07373732  0.52129150  0.82451290  1
  O  O608  1  0.07471080  0.85381524  0.07521180  1
  O  O609  1  0.07355188  0.85440548  0.32553754  1
  O  O610  1  0.07224798  0.85300622  0.57328533  1
  O  O611  1  0.07226684  0.85303373  0.82188186  1
  O  O612  1  0.57184795  0.18653573  0.07417665  1
  O  O613  1  0.57203887  0.18696628  0.32378359  1
  O  O614  1  0.57201167  0.18500596  0.57399784  1
  O  O615  1  0.57279623  0.18518707  0.82403416  1
  O  O616  1  0.57310482  0.52073062  0.07536351  1
  O  O617  1  0.57300526  0.51989201  0.32576330  1
  O  O618  1  0.57160568  0.51913795  0.57272938  1
  O  O619  1  0.57264560  0.51749077  0.82376612  1
  O  O620  1  0.57467726  0.85375558  0.07532980  1
  O  O621  1  0.57348180  0.85204141  0.32479749  1
  O  O622  1  0.57306234  0.85237129  0.57516286  1
  O  O623  1  0.57337374  0.85411997  0.82498386  1
  O  O624  1  0.32115831  0.18620530  0.05151018  1
  O  O625  1  0.32270939  0.18551132  0.30087523  1
  O  O626  1  0.32232948  0.18690480  0.55271427  1
  O  O627  1  0.32201496  0.18652771  0.80175538  1
  O  O628  1  0.32413157  0.51979488  0.04953108  1
  O  O629  1  0.32288536  0.52067703  0.30060966  1
  O  O630  1  0.32262472  0.52125345  0.54972885  1
  O  O631  1  0.32363906  0.51994887  0.79869873  1
  O  O632  1  0.32339573  0.85532299  0.04948563  1
  O  O633  1  0.32449474  0.85435206  0.29937805  1
  O  O634  1  0.32303061  0.85296127  0.55139638  1
  O  O635  1  0.32288210  0.85404647  0.80116863  1
  O  O636  1  0.82424521  0.18695374  0.04984753  1
  O  O637  1  0.82407256  0.18666155  0.30073221  1
  O  O638  1  0.82190133  0.18627733  0.55156451  1
  O  O639  1  0.82387053  0.18720094  0.79871330  1
  O  O640  1  0.82241034  0.52089930  0.05009469  1
  O  O641  1  0.82234921  0.51898529  0.30227123  1
  O  O642  1  0.82256173  0.51926399  0.55200622  1
  O  O643  1  0.82277603  0.52096200  0.79967631  1
  O  O644  1  0.82471758  0.85204613  0.04913997  1
  O  O645  1  0.82509948  0.85187079  0.30004086  1
  O  O646  1  0.82322154  0.85030334  0.55125198  1
  O  O647  1  0.82399035  0.85230176  0.79902766  1
  O  O648  1  0.17851471  0.14703133  0.19761500  1
  O  O649  1  0.17721721  0.14859785  0.44897862  1
  O  O650  1  0.17672160  0.14856781  0.69950592  1
  O  O651  1  0.17690054  0.14728826  0.94871313  1
  O  O652  1  0.17665700  0.47913228  0.19944162  1
  O  O653  1  0.17575092  0.48012264  0.45107033  1
  O  O654  1  0.17608392  0.47873206  0.70056635  1
  O  O655  1  0.17705509  0.47870327  0.94986019  1
  O  O656  1  0.17618145  0.81411629  0.20063726  1
  O  O657  1  0.17778983  0.81334053  0.45015362  1
  O  O658  1  0.17816203  0.81480667  0.69746877  1
  O  O659  1  0.17683157  0.81555607  0.94809084  1
  O  O660  1  0.67624001  0.14618775  0.20049051  1
  O  O661  1  0.67603202  0.14601816  0.45044923  1
  O  O662  1  0.67668764  0.14753878  0.69866603  1
  O  O663  1  0.67610711  0.14651226  0.94978228  1
  O  O664  1  0.67540928  0.48053574  0.20072344  1
  O  O665  1  0.67671770  0.48130303  0.45003903  1
  O  O666  1  0.67710618  0.48077893  0.69802976  1
  O  O667  1  0.67541882  0.48065200  0.94976783  1
  O  O668  1  0.67748064  0.81124223  0.20013581  1
  O  O669  1  0.67758861  0.81104677  0.45002293  1
  O  O670  1  0.67789810  0.81297486  0.69837654  1
  O  O671  1  0.67696071  0.81184515  0.94962703  1
