# generated using pymatgen
data_Na2MnFe(PO4)2
_symmetry_space_group_name_H-M   'P 1'
_cell_length_a   22.34510468
_cell_length_b   20.09909648
_cell_length_c   19.44799782
_cell_angle_alpha   90.04105937
_cell_angle_beta   89.93924975
_cell_angle_gamma   89.95683110
_symmetry_Int_Tables_number   1
_chemical_formula_structural   Na2MnFe(PO4)2
_chemical_formula_sum   'Na96 Mn48 Fe48 P96 O384'
_cell_volume   8734.40541728
_cell_formula_units_Z   48
loop_
 _symmetry_equiv_pos_site_id
 _symmetry_equiv_pos_as_xyz
  1  'x, y, z'
loop_
 _atom_site_type_symbol
 _atom_site_label
 _atom_site_symmetry_multiplicity
 _atom_site_fract_x
 _atom_site_fract_y
 _atom_site_fract_z
 _atom_site_occupancy
  Na  Na0  1  0.14043033  0.24956831  0.24283055  1
  Na  Na1  1  0.14035896  0.25162235  0.49351521  1
  Na  Na2  1  0.13983656  0.25009891  0.74446867  1
  Na  Na3  1  0.13992094  0.24959860  0.99294367  1
  Na  Na4  1  0.14041051  0.58363253  0.24350076  1
  Na  Na5  1  0.14016766  0.58353512  0.49102013  1
  Na  Na6  1  0.14015928  0.58219837  0.74283494  1
  Na  Na7  1  0.14043581  0.58250850  0.99386380  1
  Na  Na8  1  0.14117826  0.91631565  0.24272819  1
  Na  Na9  1  0.14061015  0.91736002  0.49325209  1
  Na  Na10  1  0.14001277  0.91810726  0.74456936  1
  Na  Na11  1  0.14020120  0.91810306  0.99436749  1
  Na  Na12  1  0.64105476  0.24892464  0.24463283  1
  Na  Na13  1  0.64122093  0.25009890  0.49278358  1
  Na  Na14  1  0.64035471  0.25110406  0.74445604  1
  Na  Na15  1  0.64017285  0.24915024  0.99440811  1
  Na  Na16  1  0.64082329  0.58202126  0.24466171  1
  Na  Na17  1  0.64033907  0.58273733  0.49373417  1
  Na  Na18  1  0.64062486  0.58407779  0.74235740  1
  Na  Na19  1  0.64072522  0.58260398  0.99369006  1
  Na  Na20  1  0.64160507  0.91670128  0.24367567  1
  Na  Na21  1  0.64070401  0.91729586  0.49387761  1
  Na  Na22  1  0.64029329  0.91585941  0.74320453  1
  Na  Na23  1  0.64105452  0.91553029  0.99449807  1
  Na  Na24  1  0.35890029  0.08384983  0.00661134  1
  Na  Na25  1  0.35914006  0.08347899  0.25562480  1
  Na  Na26  1  0.35956734  0.08418871  0.50680410  1
  Na  Na27  1  0.35900329  0.08465705  0.75669137  1
  Na  Na28  1  0.35901466  0.41597651  0.00595807  1
  Na  Na29  1  0.35885514  0.41687899  0.25670046  1
  Na  Na30  1  0.36005425  0.41735807  0.50599757  1
  Na  Na31  1  0.35969724  0.41614295  0.75546800  1
  Na  Na32  1  0.35887765  0.75058899  0.00615968  1
  Na  Na33  1  0.35902642  0.74926746  0.25611052  1
  Na  Na34  1  0.35921961  0.75113360  0.50593558  1
  Na  Na35  1  0.35925505  0.75163046  0.75569257  1
  Na  Na36  1  0.85945188  0.08339806  0.00900749  1
  Na  Na37  1  0.85996912  0.08386270  0.25628312  1
  Na  Na38  1  0.85987027  0.08236967  0.50556369  1
  Na  Na39  1  0.85949198  0.08381978  0.75698903  1
  Na  Na40  1  0.85989181  0.41555798  0.00680407  1
  Na  Na41  1  0.85919166  0.41502155  0.25672493  1
  Na  Na42  1  0.86050149  0.41728432  0.50727108  1
  Na  Na43  1  0.86043778  0.41792405  0.75693389  1
  Na  Na44  1  0.85876038  0.74967344  0.00690419  1
  Na  Na45  1  0.85971512  0.74878686  0.25627284  1
  Na  Na46  1  0.85960314  0.74851684  0.50676316  1
  Na  Na47  1  0.85952180  0.74965450  0.75499600  1
  Na  Na48  1  0.10970140  0.08460819  0.11687883  1
  Na  Na49  1  0.10964163  0.08287324  0.36855841  1
  Na  Na50  1  0.10953378  0.08414227  0.61943574  1
  Na  Na51  1  0.10983043  0.08429813  0.86924873  1
  Na  Na52  1  0.10953945  0.41526785  0.11814403  1
  Na  Na53  1  0.11015274  0.41616582  0.36796427  1
  Na  Na54  1  0.10966851  0.41719495  0.61781587  1
  Na  Na55  1  0.10961181  0.41601565  0.86917150  1
  Na  Na56  1  0.11005216  0.74942990  0.11844326  1
  Na  Na57  1  0.11014101  0.74921953  0.36769537  1
  Na  Na58  1  0.10932030  0.75001909  0.61713140  1
  Na  Na59  1  0.10919194  0.74950633  0.86967856  1
  Na  Na60  1  0.61055139  0.08307397  0.11872486  1
  Na  Na61  1  0.61074443  0.08276509  0.36864260  1
  Na  Na62  1  0.60934042  0.08490166  0.61909268  1
  Na  Na63  1  0.60962138  0.08323674  0.87008725  1
  Na  Na64  1  0.60994802  0.41476501  0.11911460  1
  Na  Na65  1  0.61070644  0.41639247  0.36961765  1
  Na  Na66  1  0.60999737  0.41869443  0.61821368  1
  Na  Na67  1  0.60963653  0.41568047  0.86849606  1
  Na  Na68  1  0.61063057  0.74917831  0.11820786  1
  Na  Na69  1  0.60993022  0.74927234  0.36975804  1
  Na  Na70  1  0.60959040  0.75086604  0.61827824  1
  Na  Na71  1  0.60998566  0.74875445  0.86816724  1
  Na  Na72  1  0.38882335  0.24927021  0.13120153  1
  Na  Na73  1  0.39009521  0.25073639  0.38183386  1
  Na  Na74  1  0.39061833  0.25227387  0.63105156  1
  Na  Na75  1  0.38927420  0.24963814  0.88147392  1
  Na  Na76  1  0.38993175  0.58333584  0.13161378  1
  Na  Na77  1  0.39000602  0.58260710  0.38221208  1
  Na  Na78  1  0.39024622  0.58470507  0.62931617  1
  Na  Na79  1  0.39033211  0.58293419  0.88009475  1
  Na  Na80  1  0.38959903  0.91652622  0.13173457  1
  Na  Na81  1  0.39010336  0.91598874  0.38134908  1
  Na  Na82  1  0.39030537  0.91915555  0.63119646  1
  Na  Na83  1  0.38993157  0.91715330  0.88112272  1
  Na  Na84  1  0.88955323  0.25012710  0.13183660  1
  Na  Na85  1  0.89027141  0.24922201  0.38198896  1
  Na  Na86  1  0.89063188  0.25169709  0.63091912  1
  Na  Na87  1  0.89029393  0.25099715  0.88322086  1
  Na  Na88  1  0.89017054  0.58243011  0.13100258  1
  Na  Na89  1  0.89064431  0.58210830  0.38233788  1
  Na  Na90  1  0.89024725  0.58245687  0.63145413  1
  Na  Na91  1  0.89029843  0.58205753  0.88065988  1
  Na  Na92  1  0.88998575  0.91717337  0.13287774  1
  Na  Na93  1  0.89054934  0.91588961  0.38112034  1
  Na  Na94  1  0.89039421  0.91667955  0.63041574  1
  Na  Na95  1  0.89007285  0.91726970  0.88225194  1
  Mn  Mn96  1  0.24867248  0.83486862  0.87585806  1
  Mn  Mn97  1  0.74954307  -0.00048518  0.62517613  1
  Mn  Mn98  1  0.50028485  0.83428571  0.50001627  1
  Mn  Mn99  1  -0.00032386  0.33231906  0.24963244  1
  Mn  Mn100  1  0.25000769  0.16745018  0.62524648  1
  Mn  Mn101  1  0.50030912  -0.00030844  0.24987522  1
  Mn  Mn102  1  0.00073922  0.00055176  0.25002481  1
  Mn  Mn103  1  0.00030781  0.83361172  0.74954868  1
  Mn  Mn104  1  0.24925851  0.83517113  0.62548478  1
  Mn  Mn105  1  0.25028261  0.49918761  0.87450185  1
  Mn  Mn106  1  0.24943512  0.16779836  0.37492972  1
  Mn  Mn107  1  0.49997141  0.49919011  -0.00014838  1
  Mn  Mn108  1  -0.00051502  0.49981721  0.24998238  1
  Mn  Mn109  1  0.50043284  0.66607352  0.25029369  1
  Mn  Mn110  1  0.00010122  0.16678072  0.50052687  1
  Mn  Mn111  1  0.49961470  0.66702209  0.74944511  1
  Mn  Mn112  1  -0.00049043  0.00108553  0.75072805  1
  Mn  Mn113  1  -0.00107222  0.83340019  0.00016476  1
  Mn  Mn114  1  0.74995217  0.66549013  0.37564475  1
  Mn  Mn115  1  -0.00124009  0.16839314  0.74978826  1
  Mn  Mn116  1  -0.00010217  0.66525540  0.74925722  1
  Mn  Mn117  1  0.49956649  0.83293157  -0.00014266  1
  Mn  Mn118  1  0.24912418  0.66736318  0.62392818  1
  Mn  Mn119  1  0.49974913  0.66590143  -0.00097496  1
  Mn  Mn120  1  0.75022164  -0.00036942  0.87554681  1
  Mn  Mn121  1  0.50025006  0.16728855  0.50011642  1
  Mn  Mn122  1  0.25036483  0.49939555  0.62374325  1
  Mn  Mn123  1  0.74995119  0.50026922  0.87565378  1
  Mn  Mn124  1  0.74976751  0.49881721  0.12472680  1
  Mn  Mn125  1  0.24941508  0.66702781  0.87492729  1
  Mn  Mn126  1  0.00074013  0.83211678  0.25056375  1
  Mn  Mn127  1  0.75056471  0.16708726  0.62512512  1
  Mn  Mn128  1  0.49993172  0.33278531  0.25006464  1
  Mn  Mn129  1  0.50049286  0.83275956  0.25068215  1
  Mn  Mn130  1  0.75072741  0.33458328  0.62445382  1
  Mn  Mn131  1  0.50017108  0.49932269  0.25058802  1
  Mn  Mn132  1  0.49992228  0.33388620  0.74982382  1
  Mn  Mn133  1  0.74989247  0.83329463  0.37480509  1
  Mn  Mn134  1  -0.00052058  0.66501837  -0.00103676  1
  Mn  Mn135  1  0.00011548  0.83317904  0.49941573  1
  Mn  Mn136  1  0.75029022  0.83211039  0.87502777  1
  Mn  Mn137  1  0.50024566  0.00010914  -0.00021919  1
  Mn  Mn138  1  0.24979492  0.00010242  0.37441165  1
  Mn  Mn139  1  0.49864411  0.33180270  -0.00101871  1
  Mn  Mn140  1  0.49975561  0.00110225  0.75063528  1
  Mn  Mn141  1  0.49991575  0.16622324  0.25104914  1
  Mn  Mn142  1  0.74975117  0.16743858  0.87631496  1
  Mn  Mn143  1  0.24977295  0.49966451  0.12508533  1
  Fe  Fe144  1  0.75029342  0.83270044  0.12539080  1
  Fe  Fe145  1  -0.00033183  0.00078489  0.00075479  1
  Fe  Fe146  1  0.75016382  0.16673704  0.12630123  1
  Fe  Fe147  1  0.00016064  0.49915116  0.00004569  1
  Fe  Fe148  1  0.49989962  0.83405224  0.74928861  1
  Fe  Fe149  1  0.00029280  0.66555246  0.24972999  1
  Fe  Fe150  1  0.24987995  0.66729655  0.37403723  1
  Fe  Fe151  1  -0.00037725  0.33333944  -0.00000093  1
  Fe  Fe152  1  0.00087018  0.49933980  0.74960467  1
  Fe  Fe153  1  -0.00008194  0.33449359  0.75079973  1
  Fe  Fe154  1  0.24952378  0.00097425  0.62515097  1
  Fe  Fe155  1  0.74983060  0.66636183  0.62469729  1
  Fe  Fe156  1  0.74986298  0.66662230  0.87429653  1
  Fe  Fe157  1  0.24932113  0.33298372  0.12506820  1
  Fe  Fe158  1  0.00030612  0.16688198  0.24955159  1
  Fe  Fe159  1  0.25063338  0.33363534  0.37439976  1
  Fe  Fe160  1  0.49989136  0.50046263  0.74891696  1
  Fe  Fe161  1  0.75050108  0.83308433  0.62457600  1
  Fe  Fe162  1  0.50112868  0.33418547  0.50104039  1
  Fe  Fe163  1  0.74998775  0.50011566  0.62551825  1
  Fe  Fe164  1  0.74941013  0.33251083  0.12625438  1
  Fe  Fe165  1  0.75091440  0.49938016  0.37510351  1
  Fe  Fe166  1  0.24981380  0.16690508  0.87518959  1
  Fe  Fe167  1  0.24994761  0.83323961  0.12494179  1
  Fe  Fe168  1  0.00047471  0.33366735  0.50040871  1
  Fe  Fe169  1  0.75035552  0.66569658  0.12510353  1
  Fe  Fe170  1  0.75013713  -0.00018729  0.12562207  1
  Fe  Fe171  1  0.49966394  0.16746681  0.74956379  1
  Fe  Fe172  1  0.25036517  0.83354183  0.37407456  1
  Fe  Fe173  1  0.24951612  0.33269038  0.87530988  1
  Fe  Fe174  1  0.50055077  0.50052032  0.49999229  1
  Fe  Fe175  1  -0.00056915  0.16752792  -0.00026681  1
  Fe  Fe176  1  0.50038618  0.00092376  0.50066943  1
  Fe  Fe177  1  0.75107268  -0.00004288  0.37442492  1
  Fe  Fe178  1  0.75009487  0.33365070  0.87558235  1
  Fe  Fe179  1  0.49992401  0.66735479  0.50050537  1
  Fe  Fe180  1  -0.00004435  0.66614746  0.49983100  1
  Fe  Fe181  1  0.25010883  0.00083106  0.87564250  1
  Fe  Fe182  1  0.75042040  0.16604728  0.37434277  1
  Fe  Fe183  1  0.25019885  0.66634642  0.12541585  1
  Fe  Fe184  1  0.24982283  0.49988693  0.37402344  1
  Fe  Fe185  1  0.00016133  0.00019411  0.49988818  1
  Fe  Fe186  1  0.75074315  0.33308742  0.37538044  1
  Fe  Fe187  1  0.00044303  0.49964782  0.50001021  1
  Fe  Fe188  1  0.49934839  0.16633516  0.00009111  1
  Fe  Fe189  1  0.24974026  0.00027746  0.12481203  1
  Fe  Fe190  1  0.24960532  0.16686415  0.12427414  1
  Fe  Fe191  1  0.24979481  0.33345892  0.62463109  1
  P  P192  1  0.04102598  0.25000104  0.10143239  1
  P  P193  1  0.04228068  0.24856760  0.35253299  1
  P  P194  1  0.04236549  0.25215366  0.60296426  1
  P  P195  1  0.04125773  0.25180559  0.85336004  1
  P  P196  1  0.04225590  0.58165689  0.10239761  1
  P  P197  1  0.04204596  0.58389455  0.35293913  1
  P  P198  1  0.04182622  0.58277178  0.60119135  1
  P  P199  1  0.04248418  0.58094876  0.85232116  1
  P  P200  1  0.04169814  0.91793991  0.10256422  1
  P  P201  1  0.04327746  0.91652039  0.35330746  1
  P  P202  1  0.04239621  0.91811456  0.60220144  1
  P  P203  1  0.04211103  0.91745384  0.85401434  1
  P  P204  1  0.54171198  0.24831108  0.10234594  1
  P  P205  1  0.54304182  0.25037042  0.35421010  1
  P  P206  1  0.54295367  0.25171051  0.60296337  1
  P  P207  1  0.54177800  0.24836068  0.85258412  1
  P  P208  1  0.54317600  0.58276982  0.10296117  1
  P  P209  1  0.54279100  0.58282094  0.35457103  1
  P  P210  1  0.54145158  0.58392441  0.60174900  1
  P  P211  1  0.54249603  0.58189555  0.85144221  1
  P  P212  1  0.54300130  0.91634518  0.10307011  1
  P  P213  1  0.54348368  0.91684562  0.35390937  1
  P  P214  1  0.54237787  0.91878500  0.60304282  1
  P  P215  1  0.54234547  0.91559015  0.85222746  1
  P  P216  1  0.45719011  0.08360305  0.14661627  1
  P  P217  1  0.45767762  0.08216732  0.39805403  1
  P  P218  1  0.45748154  0.08534092  0.64734257  1
  P  P219  1  0.45729049  0.08487130  0.89725828  1
  P  P220  1  0.45662475  0.41599683  0.14695626  1
  P  P221  1  0.45912623  0.41646914  0.39909151  1
  P  P222  1  0.45824639  0.41871476  0.64625686  1
  P  P223  1  0.45663427  0.41654465  0.89587347  1
  P  P224  1  0.45725145  0.74957717  0.14696599  1
  P  P225  1  0.45770970  0.74891486  0.39796626  1
  P  P226  1  0.45774272  0.75181656  0.64678414  1
  P  P227  1  0.45666425  0.75007661  0.89581830  1
  P  P228  1  0.95825321  0.08505911  0.14688151  1
  P  P229  1  0.95818877  0.08234573  0.39726974  1
  P  P230  1  0.95670835  0.08396467  0.64663909  1
  P  P231  1  0.95799862  0.08388192  0.89912148  1
  P  P232  1  0.95723296  0.41609873  0.14633155  1
  P  P233  1  0.95911282  0.41611153  0.39866735  1
  P  P234  1  0.95884054  0.41681852  0.64786627  1
  P  P235  1  0.95844493  0.41655952  0.89810042  1
  P  P236  1  0.95805360  0.74812572  0.14776355  1
  P  P237  1  0.95795445  0.74776285  0.39716959  1
  P  P238  1  0.95772850  0.74930152  0.64605851  1
  P  P239  1  0.95657422  0.74933768  0.89658445  1
  P  P240  1  0.20842741  0.08371573  0.22590061  1
  P  P241  1  0.20726091  0.08396299  0.47816107  1
  P  P242  1  0.20770885  0.08289112  0.72835711  1
  P  P243  1  0.20861287  0.08379902  0.97735630  1
  P  P244  1  0.20754462  0.41541673  0.22795006  1
  P  P245  1  0.20896512  0.41645862  0.47599403  1
  P  P246  1  0.20790367  0.41497892  0.72725004  1
  P  P247  1  0.20775495  0.41490723  0.97774530  1
  P  P248  1  0.20875321  0.74986959  0.22693283  1
  P  P249  1  0.20850272  0.75100586  0.47565014  1
  P  P250  1  0.20627825  0.75087826  0.72786954  1
  P  P251  1  0.20691374  0.75045755  0.97938700  1
  P  P252  1  0.70920265  0.08304276  0.22758043  1
  P  P253  1  0.70931252  0.08294111  0.47620036  1
  P  P254  1  0.70712647  0.08383767  0.72845023  1
  P  P255  1  0.70784970  0.08296348  0.97983190  1
  P  P256  1  0.70801262  0.41482533  0.22877650  1
  P  P257  1  0.70952964  0.41700809  0.47700383  1
  P  P258  1  0.70797899  0.41805371  0.72793210  1
  P  P259  1  0.70760094  0.41493349  0.97814329  1
  P  P260  1  0.70906339  0.74904354  0.22668688  1
  P  P261  1  0.70770326  0.74970253  0.47891170  1
  P  P262  1  0.70865645  0.74996836  0.72617583  1
  P  P263  1  0.70776147  0.74785410  0.97802972  1
  P  P264  1  0.29049479  0.25018847  0.02264832  1
  P  P265  1  0.29205721  0.25130335  0.27168103  1
  P  P266  1  0.29240534  0.25203894  0.52220356  1
  P  P267  1  0.29094185  0.25031039  0.77322979  1
  P  P268  1  0.29204223  0.58413412  0.02266773  1
  P  P269  1  0.29128746  0.58376769  0.27283610  1
  P  P270  1  0.29181324  0.58379484  0.51991834  1
  P  P271  1  0.29250771  0.58334808  0.77116797  1
  P  P272  1  0.29101758  0.91732447  0.02344462  1
  P  P273  1  0.29216658  0.91541039  0.27145818  1
  P  P274  1  0.29217070  0.91863574  0.52236253  1
  P  P275  1  0.29178953  0.91905987  0.77277106  1
  P  P276  1  0.79098631  0.25015343  0.02419404  1
  P  P277  1  0.79143805  0.24970972  0.27327005  1
  P  P278  1  0.79289948  0.25015594  0.52089924  1
  P  P279  1  0.79265660  0.25181809  0.77331599  1
  P  P280  1  0.79222832  0.58385333  0.02231736  1
  P  P281  1  0.79251568  0.58151948  0.27255413  1
  P  P282  1  0.79132124  0.58228638  0.52340345  1
  P  P283  1  0.79189358  0.58447413  0.77183429  1
  P  P284  1  0.79158789  0.91618053  0.02414629  1
  P  P285  1  0.79265049  0.91766897  0.27171059  1
  P  P286  1  0.79241085  0.91558266  0.52200756  1
  P  P287  1  0.79284851  0.91579101  0.77173333  1
  O  O288  1  0.03662725  0.24909961  0.18143557  1
  O  O289  1  0.03740027  0.24908179  0.43244982  1
  O  O290  1  0.03678589  0.25257947  0.68288414  1
  O  O291  1  0.03594762  0.25159861  0.93328076  1
  O  O292  1  0.03701039  0.58255481  0.18235934  1
  O  O293  1  0.03694110  0.58400919  0.43283792  1
  O  O294  1  0.03723574  0.58200517  0.68118796  1
  O  O295  1  0.03710427  0.58073140  0.93223563  1
  O  O296  1  0.03714479  0.91767304  0.18258758  1
  O  O297  1  0.03797688  0.91706075  0.43325179  1
  O  O298  1  0.03714527  0.91784983  0.68219861  1
  O  O299  1  0.03644564  0.91793981  0.93395561  1
  O  O300  1  0.53716406  0.24876312  0.18238571  1
  O  O301  1  0.53818392  0.25099485  0.43421452  1
  O  O302  1  0.53738437  0.25109210  0.68288722  1
  O  O303  1  0.53626503  0.24799091  0.93253449  1
  O  O304  1  0.53833486  0.58278886  0.18301829  1
  O  O305  1  0.53737626  0.58322962  0.43451535  1
  O  O306  1  0.53626996  0.58326959  0.68169971  1
  O  O307  1  0.53743719  0.58216800  0.93142292  1
  O  O308  1  0.53830378  0.91627477  0.18310506  1
  O  O309  1  0.53837994  0.91765385  0.43391304  1
  O  O310  1  0.53687390  0.91813026  0.68297372  1
  O  O311  1  0.53714377  0.91581784  0.93220506  1
  O  O312  1  0.46222392  0.08406045  0.06661345  1
  O  O313  1  0.46257274  0.08235232  0.31804853  1
  O  O314  1  0.46299386  0.08434943  0.56742011  1
  O  O315  1  0.46249791  0.08530939  0.81728940  1
  O  O316  1  0.46122847  0.41583484  0.06692913  1
  O  O317  1  0.46374438  0.41620414  0.31906346  1
  O  O318  1  0.46420663  0.41827661  0.56640004  1
  O  O319  1  0.46186379  0.41704092  0.81589285  1
  O  O320  1  0.46192788  0.74938226  0.06691835  1
  O  O321  1  0.46283688  0.74900304  0.31800149  1
  O  O322  1  0.46341803  0.75112732  0.56686543  1
  O  O323  1  0.46179515  0.75089485  0.81580695  1
  O  O324  1  0.96329502  0.08469346  0.06695981  1
  O  O325  1  0.96364397  0.08297683  0.31736299  1
  O  O326  1  0.96214210  0.08328531  0.56670783  1
  O  O327  1  0.96224841  0.08437485  0.81905482  1
  O  O328  1  0.96241342  0.41604121  0.06644337  1
  O  O329  1  0.96330147  0.41626329  0.31867499  1
  O  O330  1  0.96398018  0.41668715  0.56796700  1
  O  O331  1  0.96381436  0.41634288  0.81819281  1
  O  O332  1  0.96276956  0.74853862  0.06777322  1
  O  O333  1  0.96328664  0.74739493  0.31721428  1
  O  O334  1  0.96313393  0.74889751  0.56609098  1
  O  O335  1  0.96204836  0.74954078  0.81663641  1
  O  O336  1  0.21346106  0.08419120  0.05723366  1
  O  O337  1  0.21291786  0.08380982  0.30587792  1
  O  O338  1  0.21233950  0.08380621  0.55809716  1
  O  O339  1  0.21318906  0.08289161  0.80821721  1
  O  O340  1  0.21295861  0.41493992  0.05767708  1
  O  O341  1  0.21328874  0.41577039  0.30779045  1
  O  O342  1  0.21350544  0.41646730  0.55597377  1
  O  O343  1  0.21302858  0.41501290  0.80720294  1
  O  O344  1  0.21262142  0.75023984  0.05927374  1
  O  O345  1  0.21430146  0.74989556  0.30683219  1
  O  O346  1  0.21296693  0.75124380  0.55566970  1
  O  O347  1  0.21121497  0.75074747  0.80785672  1
  O  O348  1  0.71322879  0.08278428  0.05973332  1
  O  O349  1  0.71436398  0.08295197  0.30747682  1
  O  O350  1  0.71394625  0.08337437  0.55618425  1
  O  O351  1  0.71211376  0.08381459  0.80844754  1
  O  O352  1  0.71260162  0.41468624  0.05810926  1
  O  O353  1  0.71402906  0.41512664  0.30858533  1
  O  O354  1  0.71443446  0.41792921  0.55697778  1
  O  O355  1  0.71282261  0.41763651  0.80786399  1
  O  O356  1  0.71316203  0.74785202  0.05787173  1
  O  O357  1  0.71390763  0.74951314  0.30666520  1
  O  O358  1  0.71307456  0.74995009  0.55875262  1
  O  O359  1  0.71328028  0.74932403  0.80618154  1
  O  O360  1  0.28678622  0.25104637  0.19182589  1
  O  O361  1  0.28745424  0.25208472  0.44226600  1
  O  O362  1  0.28635595  0.25031457  0.69328601  1
  O  O363  1  0.28548795  0.24996061  0.94275564  1
  O  O364  1  0.28647821  0.58367600  0.19282514  1
  O  O365  1  0.28647646  0.58388382  0.44002059  1
  O  O366  1  0.28723802  0.58328361  0.69116343  1
  O  O367  1  0.28686378  0.58385523  0.94271071  1
  O  O368  1  0.28669356  0.91534710  0.19163861  1
  O  O369  1  0.28725823  0.91788567  0.44243003  1
  O  O370  1  0.28657363  0.91924777  0.69282809  1
  O  O371  1  0.28588480  0.91804782  0.94349864  1
  O  O372  1  0.78621439  0.24973918  0.19339447  1
  O  O373  1  0.78756992  0.25004123  0.44101867  1
  O  O374  1  0.78793718  0.25168520  0.69332518  1
  O  O375  1  0.78636815  0.25034057  0.94424777  1
  O  O376  1  0.78735883  0.58191552  0.19263830  1
  O  O377  1  0.78677240  0.58182322  0.44340817  1
  O  O378  1  0.78648416  0.58382748  0.69196769  1
  O  O379  1  0.78678639  0.58407825  0.94240326  1
  O  O380  1  0.78707767  0.91758697  0.19185238  1
  O  O381  1  0.78723806  0.91630883  0.44205778  1
  O  O382  1  0.78761658  0.91564088  0.69178242  1
  O  O383  1  0.78689735  0.91568931  0.94412607  1
  O  O384  1  0.22646993  0.25059899  0.05911651  1
  O  O385  1  0.22780632  0.25209343  0.30764322  1
  O  O386  1  0.22803505  0.25175406  0.55776276  1
  O  O387  1  0.22680641  0.25064621  0.80927714  1
  O  O388  1  0.22777468  0.58421548  0.05838452  1
  O  O389  1  0.22714033  0.58414795  0.30870677  1
  O  O390  1  0.22763179  0.58316526  0.55582947  1
  O  O391  1  0.22814879  0.58296332  0.80648560  1
  O  O392  1  0.22695837  0.91661900  0.05966831  1
  O  O393  1  0.22802077  0.91528518  0.30768106  1
  O  O394  1  0.22776449  0.91932713  0.55795910  1
  O  O395  1  0.22750690  0.91957358  0.80860053  1
  O  O396  1  0.72682608  0.25015261  0.06014469  1
  O  O397  1  0.72758004  0.25041021  0.30994106  1
  O  O398  1  0.72871400  0.25046606  0.55682193  1
  O  O399  1  0.72818052  0.25191874  0.80861822  1
  O  O400  1  0.72805771  0.58388143  0.05840649  1
  O  O401  1  0.72825062  0.58099820  0.30836748  1
  O  O402  1  0.72711218  0.58190278  0.55921863  1
  O  O403  1  0.72777489  0.58457877  0.80812522  1
  O  O404  1  0.72740150  0.91660937  0.05991163  1
  O  O405  1  0.72855519  0.91827550  0.30804091  1
  O  O406  1  0.72816975  0.91472485  0.55794539  1
  O  O407  1  0.72849370  0.91595946  0.80713554  1
  O  O408  1  0.27267217  0.08361384  0.19039946  1
  O  O409  1  0.27155212  0.08405605  0.44266557  1
  O  O410  1  0.27176690  0.08261957  0.69181984  1
  O  O411  1  0.27263789  0.08350312  0.94095909  1
  O  O412  1  0.27159500  0.41487308  0.19151313  1
  O  O413  1  0.27318644  0.41627267  0.44017804  1
  O  O414  1  0.27220331  0.41496879  0.69142549  1
  O  O415  1  0.27195912  0.41473183  0.94179462  1
  O  O416  1  0.27266859  0.74994130  0.19016129  1
  O  O417  1  0.27277740  0.75054783  0.43998572  1
  O  O418  1  0.27074130  0.75095289  0.69281994  1
  O  O419  1  0.27099718  0.75076844  0.94324701  1
  O  O420  1  0.77314452  0.08261971  0.19104733  1
  O  O421  1  0.77348736  0.08264027  0.44032276  1
  O  O422  1  0.77159647  0.08329377  0.69344211  1
  O  O423  1  0.77205826  0.08333050  0.94394843  1
  O  O424  1  0.77196867  0.41447275  0.19207326  1
  O  O425  1  0.77371954  0.41651964  0.44100114  1
  O  O426  1  0.77240033  0.41867477  0.69245778  1
  O  O427  1  0.77195830  0.41527958  0.94254612  1
  O  O428  1  0.77321128  0.74851287  0.19073915  1
  O  O429  1  0.77186226  0.74966407  0.44296963  1
  O  O430  1  0.77281683  0.75043116  0.69022151  1
  O  O431  1  0.77195992  0.74753722  0.94178884  1
  O  O432  1  0.02252484  0.08546207  0.18262389  1
  O  O433  1  0.02231723  0.08213600  0.43328151  1
  O  O434  1  0.02096172  0.08466286  0.68211115  1
  O  O435  1  0.02238105  0.08330329  0.93420498  1
  O  O436  1  0.02145754  0.41612215  0.18189314  1
  O  O437  1  0.02344408  0.41591300  0.43391607  1
  O  O438  1  0.02293786  0.41662116  0.68414054  1
  O  O439  1  0.02246361  0.41648804  0.93456319  1
  O  O440  1  0.02247779  0.74773024  0.18298581  1
  O  O441  1  0.02220018  0.74793933  0.43282682  1
  O  O442  1  0.02195758  0.74914587  0.68155400  1
  O  O443  1  0.02088123  0.74953589  0.93182798  1
  O  O444  1  0.52164981  0.08345489  0.18164885  1
  O  O445  1  0.52215543  0.08229417  0.43313325  1
  O  O446  1  0.52167873  0.08558966  0.68319845  1
  O  O447  1  0.52158933  0.08497924  0.93286273  1
  O  O448  1  0.52127764  0.41610439  0.18140794  1
  O  O449  1  0.52339585  0.41653302  0.43462707  1
  O  O450  1  0.52222306  0.41869073  0.68274521  1
  O  O451  1  0.52097709  0.41559833  0.93109592  1
  O  O452  1  0.52186326  0.74949852  0.18155977  1
  O  O453  1  0.52204760  0.74890967  0.43331359  1
  O  O454  1  0.52186781  0.75184693  0.68283474  1
  O  O455  1  0.52112177  0.74963990  0.93081746  1
  O  O456  1  0.47718294  0.24793149  0.06737266  1
  O  O457  1  0.47852729  0.25001181  0.31938992  1
  O  O458  1  0.47872240  0.25215254  0.56723966  1
  O  O459  1  0.47758304  0.24884880  0.81669625  1
  O  O460  1  0.47858607  0.58274875  0.06834974  1
  O  O461  1  0.47851881  0.58287334  0.31899369  1
  O  O462  1  0.47743160  0.58414762  0.56558359  1
  O  O463  1  0.47809525  0.58202501  0.81614655  1
  O  O464  1  0.47844224  0.91668214  0.06843184  1
  O  O465  1  0.47900670  0.91639251  0.31895889  1
  O  O466  1  0.47819759  0.91920410  0.56715512  1
  O  O467  1  0.47801553  0.91563218  0.81678597  1
  O  O468  1  0.97671411  0.25089178  0.06610367  1
  O  O469  1  0.97789166  0.24792018  0.31709565  1
  O  O470  1  0.97820759  0.25192752  0.56706731  1
  O  O471  1  0.97711827  0.25239384  0.81735245  1
  O  O472  1  0.97797678  0.58071081  0.06672967  1
  O  O473  1  0.97779573  0.58444482  0.31713940  1
  O  O474  1  0.97751223  0.58330339  0.56574405  1
  O  O475  1  0.97827756  0.58066350  0.81648133  1
  O  O476  1  0.97724276  0.91836200  0.06759020  1
  O  O477  1  0.97898616  0.91644876  0.31804808  1
  O  O478  1  0.97814722  0.91799908  0.56657516  1
  O  O479  1  0.97791233  0.91701677  0.81840781  1
  O  O480  1  0.07223788  0.31350011  0.07359683  1
  O  O481  1  0.07286270  0.31223049  0.32409622  1
  O  O482  1  0.07324361  0.31529906  0.57381044  1
  O  O483  1  0.07257319  0.31489980  0.82465770  1
  O  O484  1  0.07299806  0.64514661  0.07385809  1
  O  O485  1  0.07324462  0.64689453  0.32368695  1
  O  O486  1  0.07286893  0.64635011  0.57321626  1
  O  O487  1  0.07317359  0.64491426  0.82467885  1
  O  O488  1  0.07245900  0.98148477  0.07419272  1
  O  O489  1  0.07479939  0.97947812  0.32470744  1
  O  O490  1  0.07284235  0.98187341  0.57405021  1
  O  O491  1  0.07316371  0.98084025  0.82562588  1
  O  O492  1  0.57233920  0.31199660  0.07409125  1
  O  O493  1  0.57406651  0.31342454  0.32522053  1
  O  O494  1  0.57387150  0.31533024  0.57495198  1
  O  O495  1  0.57302595  0.31210590  0.82525310  1
  O  O496  1  0.57398643  0.64614371  0.07440080  1
  O  O497  1  0.57420822  0.64595866  0.32597968  1
  O  O498  1  0.57215233  0.64794767  0.57431166  1
  O  O499  1  0.57356708  0.64545020  0.82348784  1
  O  O500  1  0.57395762  0.97979611  0.07485491  1
  O  O501  1  0.57450122  0.97993864  0.32494123  1
  O  O502  1  0.57316799  0.98245526  0.57492244  1
  O  O503  1  0.57343573  0.97935069  0.82485692  1
  O  O504  1  0.42633656  0.01991653  0.17454337  1
  O  O505  1  0.42718393  0.01861823  0.42661485  1
  O  O506  1  0.42619799  0.02217789  0.67584228  1
  O  O507  1  0.42674323  0.02073696  0.92467107  1
  O  O508  1  0.42586603  0.35254340  0.17540485  1
  O  O509  1  0.42836968  0.35293497  0.42748928  1
  O  O510  1  0.42691707  0.35525830  0.67427494  1
  O  O511  1  0.42525679  0.35309070  0.92373485  1
  O  O512  1  0.42627934  0.68621417  0.17534013  1
  O  O513  1  0.42697634  0.68548604  0.42647666  1
  O  O514  1  0.42619898  0.68850797  0.67458057  1
  O  O515  1  0.42579834  0.68627843  0.92354311  1
  O  O516  1  0.92724953  0.02156572  0.17519463  1
  O  O517  1  0.92764948  0.01852260  0.42538182  1
  O  O518  1  0.92566258  0.02077709  0.67534322  1
  O  O519  1  0.92687484  0.02048763  0.92731988  1
  O  O520  1  0.92620408  0.35275504  0.17506170  1
  O  O521  1  0.92826727  0.35255042  0.42682046  1
  O  O522  1  0.92763596  0.35355485  0.67654744  1
  O  O523  1  0.92734622  0.35319571  0.92675342  1
  O  O524  1  0.92731430  0.68459309  0.17606166  1
  O  O525  1  0.92689928  0.68472590  0.42632816  1
  O  O526  1  0.92631793  0.68611273  0.67433451  1
  O  O527  1  0.92581728  0.68558951  0.92433510  1
  O  O528  1  0.17766490  0.01999644  0.19774548  1
  O  O529  1  0.17604698  0.02087076  0.44944301  1
  O  O530  1  0.17661774  0.01973296  0.69939004  1
  O  O531  1  0.17744801  0.02029340  0.94930963  1
  O  O532  1  0.17617511  0.35227648  0.19937054  1
  O  O533  1  0.17776318  0.35314538  0.44769217  1
  O  O534  1  0.17714478  0.35160674  0.69848330  1
  O  O535  1  0.17673274  0.35168441  0.94904731  1
  O  O536  1  0.17790642  0.68611224  0.19875921  1
  O  O537  1  0.17749488  0.68742729  0.44759725  1
  O  O538  1  0.17538309  0.68743845  0.69942513  1
  O  O539  1  0.17573253  0.68710860  0.95089988  1
  O  O540  1  0.67761343  0.01996280  0.19908859  1
  O  O541  1  0.67846116  0.01926236  0.44832525  1
  O  O542  1  0.67580463  0.02058727  0.70021562  1
  O  O543  1  0.67682130  0.01957161  0.95121290  1
  O  O544  1  0.67676977  0.35146985  0.20041591  1
  O  O545  1  0.67862481  0.35314434  0.44952069  1
  O  O546  1  0.67725196  0.35445981  0.69955444  1
  O  O547  1  0.67701897  0.35157684  0.94906942  1
  O  O548  1  0.67788718  0.68545580  0.19908931  1
  O  O549  1  0.67669633  0.68611191  0.45071383  1
  O  O550  1  0.67819551  0.68622857  0.69741454  1
  O  O551  1  0.67669184  0.68478680  0.94877961  1
  O  O552  1  0.32190081  0.31341261  0.05101626  1
  O  O553  1  0.32346022  0.31433058  0.30059323  1
  O  O554  1  0.32296814  0.31544535  0.55115385  1
  O  O555  1  0.32235917  0.31350370  0.80151188  1
  O  O556  1  0.32275931  0.64764913  0.05109970  1
  O  O557  1  0.32273689  0.64693428  0.30107949  1
  O  O558  1  0.32257555  0.64736126  0.54846784  1
  O  O559  1  0.32328773  0.64696788  0.79917203  1
  O  O560  1  0.32145820  0.98113540  0.05200354  1
  O  O561  1  0.32322331  0.97910798  0.29936126  1
  O  O562  1  0.32290263  0.98215183  0.55085062  1
  O  O563  1  0.32317735  0.98199978  0.80165181  1
  O  O564  1  0.82202726  0.31352175  0.05266907  1
  O  O565  1  0.82323854  0.31275635  0.30158744  1
  O  O566  1  0.82415057  0.31352040  0.54929171  1
  O  O567  1  0.82307506  0.31545261  0.80198149  1
  O  O568  1  0.82330614  0.64695140  0.05122334  1
  O  O569  1  0.82335619  0.64504881  0.30091931  1
  O  O570  1  0.82123658  0.64659958  0.55148469  1
  O  O571  1  0.82264849  0.64809368  0.80014673  1
  O  O572  1  0.82279296  0.97966418  0.05192088  1
  O  O573  1  0.82395410  0.98081619  0.30045782  1
  O  O574  1  0.82312628  0.97922096  0.55026933  1
  O  O575  1  0.82382091  0.97937758  0.79998406  1
  O  O576  1  0.42596853  0.14672429  0.17553478  1
  O  O577  1  0.42652856  0.14585448  0.42578816  1
  O  O578  1  0.42682867  0.14931895  0.67509268  1
  O  O579  1  0.42609218  0.14791194  0.92634717  1
  O  O580  1  0.42577456  0.47952250  0.17546306  1
  O  O581  1  0.42842898  0.48041677  0.42688477  1
  O  O582  1  0.42719825  0.48226685  0.67447497  1
  O  O583  1  0.42582325  0.47994433  0.92459525  1
  O  O584  1  0.42652096  0.81320865  0.17526936  1
  O  O585  1  0.42666783  0.81266477  0.42565325  1
  O  O586  1  0.42722127  0.81573709  0.67485491  1
  O  O587  1  0.42545319  0.81319745  0.92477511  1
  O  O588  1  0.92738517  0.14850723  0.17579981  1
  O  O589  1  0.92680273  0.14568874  0.42538144  1
  O  O590  1  0.92550025  0.14766680  0.67440473  1
  O  O591  1  0.92780772  0.14795340  0.92762356  1
  O  O592  1  0.92594770  0.47936683  0.17494869  1
  O  O593  1  0.92879513  0.48003636  0.42728374  1
  O  O594  1  0.92818925  0.48060142  0.67641629  1
  O  O595  1  0.92754871  0.48027454  0.92632395  1
  O  O596  1  0.92737462  0.81195523  0.17583810  1
  O  O597  1  0.92690629  0.81175040  0.42447405  1
  O  O598  1  0.92689459  0.81312316  0.67385049  1
  O  O599  1  0.92521821  0.81256807  0.92503904  1
  O  O600  1  0.07132209  0.18633765  0.07209355  1
  O  O601  1  0.07323678  0.18515706  0.32379877  1
  O  O602  1  0.07355660  0.18833298  0.57559974  1
  O  O603  1  0.07204541  0.18797119  0.82521135  1
  O  O604  1  0.07330684  0.51802782  0.07441103  1
  O  O605  1  0.07274100  0.51994519  0.32498297  1
  O  O606  1  0.07226543  0.51904855  0.57211388  1
  O  O607  1  0.07375724  0.51783632  0.82348892  1
  O  O608  1  0.07244174  0.85410280  0.07478679  1
  O  O609  1  0.07405254  0.85266476  0.32534221  1
  O  O610  1  0.07367364  0.85453950  0.57439498  1
  O  O611  1  0.07343079  0.85390494  0.82611590  1
  O  O612  1  0.57251010  0.18479925  0.07387231  1
  O  O613  1  0.57388398  0.18656364  0.32624518  1
  O  O614  1  0.57413263  0.18824788  0.57471279  1
  O  O615  1  0.57266357  0.18507823  0.82366605  1
  O  O616  1  0.57413873  0.51916409  0.07486627  1
  O  O617  1  0.57379846  0.51924260  0.32623731  1
  O  O618  1  0.57258542  0.52054592  0.57310600  1
  O  O619  1  0.57304542  0.51822073  0.82305025  1
  O  O620  1  0.57384732  0.85280950  0.07478779  1
  O  O621  1  0.57450041  0.85303156  0.32617217  1
  O  O622  1  0.57360814  0.85533347  0.57495414  1
  O  O623  1  0.57303149  0.85202964  0.82365541  1
  O  O624  1  0.32088048  0.18625698  0.05125790  1
  O  O625  1  0.32264608  0.18744531  0.29995276  1
  O  O626  1  0.32354681  0.18846398  0.55015115  1
  O  O627  1  0.32107582  0.18624436  0.80178237  1
  O  O628  1  0.32311967  0.52043204  0.05030832  1
  O  O629  1  0.32145798  0.51957362  0.30106649  1
  O  O630  1  0.32349159  0.52063130  0.54812319  1
  O  O631  1  0.32376092  0.51994326  0.79917203  1
  O  O632  1  0.32241878  0.85378450  0.05100825  1
  O  O633  1  0.32315994  0.85212723  0.30044050  1
  O  O634  1  0.32298917  0.85503024  0.55072633  1
  O  O635  1  0.32224318  0.85495277  0.80046032  1
  O  O636  1  0.82148084  0.18626082  0.05261872  1
  O  O637  1  0.82168498  0.18554163  0.30149484  1
  O  O638  1  0.82396423  0.18674927  0.54935843  1
  O  O639  1  0.82361067  0.18818321  0.80130645  1
  O  O640  1  0.82309418  0.51988914  0.04971073  1
  O  O641  1  0.82345345  0.51796420  0.30090815  1
  O  O642  1  0.82292076  0.51932879  0.55206055  1
  O  O643  1  0.82323220  0.52116851  0.80032176  1
  O  O644  1  0.82185905  0.85219627  0.05255703  1
  O  O645  1  0.82350097  0.85379932  0.29949018  1
  O  O646  1  0.82349413  0.85206272  0.55004617  1
  O  O647  1  0.82405066  0.85254706  0.80016793  1
  O  O648  1  0.17780032  0.14743921  0.19752561  1
  O  O649  1  0.17634705  0.14768592  0.45017379  1
  O  O650  1  0.17662312  0.14665466  0.70059621  1
  O  O651  1  0.17810092  0.14751135  0.94840908  1
  O  O652  1  0.17655515  0.47918043  0.20007952  1
  O  O653  1  0.17865452  0.48043982  0.44748668  1
  O  O654  1  0.17697917  0.47867008  0.69920633  1
  O  O655  1  0.17695069  0.47878039  0.95004722  1
  O  O656  1  0.17750374  0.81336167  0.19881631  1
  O  O657  1  0.17813385  0.81490078  0.44741703  1
  O  O658  1  0.17532146  0.81447567  0.69990539  1
  O  O659  1  0.17548407  0.81388455  0.95139788  1
  O  O660  1  0.67880352  0.14717038  0.19945210  1
  O  O661  1  0.67878262  0.14674285  0.44777390  1
  O  O662  1  0.67661840  0.14757595  0.70021009  1
  O  O663  1  0.67642043  0.14628669  0.95164424  1
  O  O664  1  0.67681570  0.47833441  0.20067019  1
  O  O665  1  0.67872799  0.48043810  0.44821997  1
  O  O666  1  0.67704068  0.48144561  0.69928194  1
  O  O667  1  0.67648452  0.47864570  0.95051323  1
  O  O668  1  0.67886228  0.81314237  0.19847915  1
  O  O669  1  0.67628191  0.81281541  0.45027517  1
  O  O670  1  0.67764908  0.81361692  0.69828623  1
  O  O671  1  0.67688065  0.81169630  0.95007977  1
