# generated using pymatgen
data_Na2MnFe(PO4)2
_symmetry_space_group_name_H-M   'P 1'
_cell_length_a   22.34259790
_cell_length_b   20.09410732
_cell_length_c   19.45052620
_cell_angle_alpha   90.05376596
_cell_angle_beta   89.96708777
_cell_angle_gamma   90.00327794
_symmetry_Int_Tables_number   1
_chemical_formula_structural   Na2MnFe(PO4)2
_chemical_formula_sum   'Na96 Mn48 Fe48 P96 O384'
_cell_volume   8732.39713389
_cell_formula_units_Z   48
loop_
 _symmetry_equiv_pos_site_id
 _symmetry_equiv_pos_as_xyz
  1  'x, y, z'
loop_
 _atom_site_type_symbol
 _atom_site_label
 _atom_site_symmetry_multiplicity
 _atom_site_fract_x
 _atom_site_fract_y
 _atom_site_fract_z
 _atom_site_occupancy
  Na  Na0  1  0.13982229  0.25051024  0.24469044  1
  Na  Na1  1  0.14025771  0.25011845  0.49465825  1
  Na  Na2  1  0.14044388  0.24941130  0.74420826  1
  Na  Na3  1  0.13963632  0.24854900  0.99362907  1
  Na  Na4  1  0.14014996  0.58327135  0.24337058  1
  Na  Na5  1  0.13980786  0.58292186  0.49390556  1
  Na  Na6  1  0.13982490  0.58268955  0.74291461  1
  Na  Na7  1  0.14004974  0.58303961  0.99292629  1
  Na  Na8  1  0.14007882  0.91500920  0.24404228  1
  Na  Na9  1  0.13973407  0.91678762  0.49394799  1
  Na  Na10  1  0.14052969  0.91572913  0.74339547  1
  Na  Na11  1  0.14109348  0.91450698  0.99339596  1
  Na  Na12  1  0.64077073  0.25044770  0.24364278  1
  Na  Na13  1  0.64054503  0.25048391  0.49377735  1
  Na  Na14  1  0.64022771  0.25054171  0.74280238  1
  Na  Na15  1  0.64017259  0.25127086  0.99302826  1
  Na  Na16  1  0.64098384  0.58326713  0.24341831  1
  Na  Na17  1  0.64107546  0.58267758  0.49331697  1
  Na  Na18  1  0.64111606  0.58336865  0.74275111  1
  Na  Na19  1  0.64077889  0.58496565  0.99458059  1
  Na  Na20  1  0.64068859  0.91615440  0.24401728  1
  Na  Na21  1  0.64007258  0.91590712  0.49280900  1
  Na  Na22  1  0.64084356  0.91651179  0.74282899  1
  Na  Na23  1  0.64119891  0.91843944  0.99414498  1
  Na  Na24  1  0.35946319  0.08234774  0.00546122  1
  Na  Na25  1  0.35934771  0.08399865  0.25649202  1
  Na  Na26  1  0.35968389  0.08428757  0.50805113  1
  Na  Na27  1  0.35956848  0.08369898  0.75605145  1
  Na  Na28  1  0.35940322  0.41629358  0.00486875  1
  Na  Na29  1  0.35968800  0.41687704  0.25515166  1
  Na  Na30  1  0.35928048  0.41619254  0.50625316  1
  Na  Na31  1  0.35957635  0.41597549  0.75597920  1
  Na  Na32  1  0.35976349  0.74940861  0.00594762  1
  Na  Na33  1  0.36030685  0.75055439  0.25555694  1
  Na  Na34  1  0.36001076  0.75137975  0.50634164  1
  Na  Na35  1  0.35915592  0.75041839  0.75628078  1
  Na  Na36  1  0.85938283  0.08520624  0.00645110  1
  Na  Na37  1  0.85919162  0.08367140  0.25668837  1
  Na  Na38  1  0.85934938  0.08339894  0.50724507  1
  Na  Na39  1  0.85935436  0.08328186  0.75607295  1
  Na  Na40  1  0.85964126  0.41821632  0.00839853  1
  Na  Na41  1  0.85925691  0.41686233  0.25768003  1
  Na  Na42  1  0.85891417  0.41710323  0.50655471  1
  Na  Na43  1  0.85957892  0.41678131  0.75596363  1
  Na  Na44  1  0.85975575  0.75078254  0.00621205  1
  Na  Na45  1  0.86017527  0.74878240  0.25752612  1
  Na  Na46  1  0.86001557  0.74837494  0.50769789  1
  Na  Na47  1  0.86014499  0.74978457  0.75560566  1
  Na  Na48  1  0.10929464  0.08302377  0.11888260  1
  Na  Na49  1  0.10921030  0.08208823  0.36990381  1
  Na  Na50  1  0.10964741  0.08217827  0.61827142  1
  Na  Na51  1  0.10935829  0.08251592  0.86831365  1
  Na  Na52  1  0.10895524  0.41564529  0.11935083  1
  Na  Na53  1  0.10937073  0.41661096  0.36924951  1
  Na  Na54  1  0.10938804  0.41735338  0.61873780  1
  Na  Na55  1  0.10909019  0.41722469  0.86857263  1
  Na  Na56  1  0.11022501  0.74917658  0.11792461  1
  Na  Na57  1  0.10926099  0.74861838  0.36929403  1
  Na  Na58  1  0.10933636  0.74898922  0.61843410  1
  Na  Na59  1  0.11019181  0.74864500  0.86704634  1
  Na  Na60  1  0.60977308  0.08429888  0.11846055  1
  Na  Na61  1  0.61002372  0.08307367  0.36952929  1
  Na  Na62  1  0.60942787  0.08379118  0.61806288  1
  Na  Na63  1  0.60988566  0.08579015  0.86867704  1
  Na  Na64  1  0.61013700  0.41699206  0.11780202  1
  Na  Na65  1  0.61036118  0.41735622  0.36755444  1
  Na  Na66  1  0.61023083  0.41532227  0.61771413  1
  Na  Na67  1  0.60988921  0.41582692  0.86878667  1
  Na  Na68  1  0.61053199  0.75014699  0.11952284  1
  Na  Na69  1  0.60994811  0.75038673  0.36907023  1
  Na  Na70  1  0.61033576  0.75093612  0.61774738  1
  Na  Na71  1  0.61064694  0.75021848  0.86884557  1
  Na  Na72  1  0.39023766  0.25012886  0.12953179  1
  Na  Na73  1  0.39012077  0.24974702  0.38219163  1
  Na  Na74  1  0.38983843  0.24965987  0.63164698  1
  Na  Na75  1  0.39032634  0.25029517  0.88004375  1
  Na  Na76  1  0.39046593  0.58516397  0.13045942  1
  Na  Na77  1  0.39052773  0.58524188  0.38029405  1
  Na  Na78  1  0.39053913  0.58332325  0.63123075  1
  Na  Na79  1  0.39067930  0.58288467  0.88071444  1
  Na  Na80  1  0.39033597  0.91577147  0.13084674  1
  Na  Na81  1  0.39100125  0.91736117  0.38146049  1
  Na  Na82  1  0.39040804  0.91830491  0.63151080  1
  Na  Na83  1  0.39010346  0.91683334  0.88207470  1
  Na  Na84  1  0.89017525  0.25065917  0.13239119  1
  Na  Na85  1  0.88945594  0.25049019  0.38247194  1
  Na  Na86  1  0.88933879  0.25073854  0.63191371  1
  Na  Na87  1  0.88984383  0.25066682  0.88191460  1
  Na  Na88  1  0.89002344  0.58273570  0.13289669  1
  Na  Na89  1  0.89007208  0.58339328  0.38247572  1
  Na  Na90  1  0.89000896  0.58405782  0.63149919  1
  Na  Na91  1  0.89010190  0.58356708  0.88065154  1
  Na  Na92  1  0.89042690  0.91675229  0.13123315  1
  Na  Na93  1  0.89098182  0.91478662  0.38198564  1
  Na  Na94  1  0.89021488  0.91489976  0.63121943  1
  Na  Na95  1  0.89022070  0.91633056  0.88102286  1
  Mn  Mn96  1  0.75000508  0.00099264  0.87414998  1
  Mn  Mn97  1  0.50098254  0.83275089  0.00088150  1
  Mn  Mn98  1  -0.00085676  0.16659537  0.25087752  1
  Mn  Mn99  1  0.25055123  0.49973486  0.37456296  1
  Mn  Mn100  1  0.50017562  0.83400459  0.75026094  1
  Mn  Mn101  1  0.49986934  0.16681224  0.24979714  1
  Mn  Mn102  1  0.24997213  0.66693945  0.37454955  1
  Mn  Mn103  1  0.50060987  0.66791576  0.50019017  1
  Mn  Mn104  1  0.24952253  -0.00152902  0.12541566  1
  Mn  Mn105  1  0.75081611  0.83358949  0.12538549  1
  Mn  Mn106  1  0.24996657  0.49999892  0.62496694  1
  Mn  Mn107  1  0.50044602  0.50041706  -0.00058062  1
  Mn  Mn108  1  0.24986122  0.33300463  0.12478376  1
  Mn  Mn109  1  0.24966622  0.16571164  0.87442717  1
  Mn  Mn110  1  -0.00037291  -0.00138088  0.24978235  1
  Mn  Mn111  1  0.50061852  0.00110780  0.00053174  1
  Mn  Mn112  1  0.75084924  0.00018435  0.37542543  1
  Mn  Mn113  1  -0.00009050  0.16622912  0.50026535  1
  Mn  Mn114  1  0.75081048  0.83190076  0.37442440  1
  Mn  Mn115  1  0.49939297  0.50145864  0.24838165  1
  Mn  Mn116  1  0.74976869  0.16768753  0.12558863  1
  Mn  Mn117  1  -0.00004350  0.33469966  0.75135962  1
  Mn  Mn118  1  -0.00080258  -0.00114520  0.74966281  1
  Mn  Mn119  1  0.24976243  0.83335690  0.62566472  1
  Mn  Mn120  1  0.24992507  0.83323515  0.37503276  1
  Mn  Mn121  1  -0.00026363  0.33437013  0.50095954  1
  Mn  Mn122  1  0.00021153  0.66586462  0.25038132  1
  Mn  Mn123  1  0.24981489  0.16615169  0.12484747  1
  Mn  Mn124  1  -0.00063256  0.16660689  0.74988734  1
  Mn  Mn125  1  0.50063536  0.66677005  0.74945634  1
  Mn  Mn126  1  0.24930713  0.50037250  0.12441749  1
  Mn  Mn127  1  0.50080408  0.00135277  0.75047974  1
  Mn  Mn128  1  0.24988041  0.49970915  0.87412252  1
  Mn  Mn129  1  0.00019671  0.83262728  -0.00040901  1
  Mn  Mn130  1  0.74983387  0.33353608  0.87514496  1
  Mn  Mn131  1  -0.00060893  0.33360110  0.00049997  1
  Mn  Mn132  1  0.24927010  0.16758317  0.37629333  1
  Mn  Mn133  1  0.24999028  0.00031428  0.37507013  1
  Mn  Mn134  1  0.75084171  0.66791112  0.87443221  1
  Mn  Mn135  1  0.49955312  -0.00003924  0.25003597  1
  Mn  Mn136  1  0.49950882  0.33293496  0.49911869  1
  Mn  Mn137  1  0.50001723  0.50033397  0.49939261  1
  Mn  Mn138  1  0.74965813  -0.00006245  0.62500851  1
  Mn  Mn139  1  0.00063415  0.00010047  0.00042685  1
  Mn  Mn140  1  0.74987729  0.50038641  0.87532621  1
  Mn  Mn141  1  0.50119192  0.49880473  0.75069576  1
  Mn  Mn142  1  -0.00064633  0.66559818  -0.00036777  1
  Mn  Mn143  1  0.50013131  0.33350939  0.24936994  1
  Fe  Fe144  1  0.24998189  0.83266280  0.87455078  1
  Fe  Fe145  1  0.49990996  0.33264679  0.74913185  1
  Fe  Fe146  1  -0.00000228  0.49949755  0.25080768  1
  Fe  Fe147  1  0.00005325  0.66593440  0.50024293  1
  Fe  Fe148  1  0.74985232  0.16715029  0.37535428  1
  Fe  Fe149  1  0.24985391  -0.00032377  0.62555856  1
  Fe  Fe150  1  0.25073917  0.83229659  0.12363356  1
  Fe  Fe151  1  -0.00025836  0.49993559  0.00029594  1
  Fe  Fe152  1  -0.00036947  0.33329764  0.25057381  1
  Fe  Fe153  1  0.75048105  0.66661132  0.12585935  1
  Fe  Fe154  1  0.75003159  0.66553193  0.37610651  1
  Fe  Fe155  1  0.00040364  0.83211908  0.25072924  1
  Fe  Fe156  1  0.49956248  0.83413537  0.49971943  1
  Fe  Fe157  1  0.24935799  0.33323221  0.62531871  1
  Fe  Fe158  1  0.25009590  0.33334991  0.37546561  1
  Fe  Fe159  1  0.75018893  0.33394509  0.12567119  1
  Fe  Fe160  1  -0.00063701  0.50073729  0.74965981  1
  Fe  Fe161  1  -0.00066520  -0.00153821  0.49986487  1
  Fe  Fe162  1  0.74988330  0.49970805  0.37517821  1
  Fe  Fe163  1  0.75008795  0.83405310  0.87485249  1
  Fe  Fe164  1  0.24962795  -0.00075410  0.87498649  1
  Fe  Fe165  1  -0.00001304  0.66627896  0.74933648  1
  Fe  Fe166  1  0.75017608  0.83274107  0.62460575  1
  Fe  Fe167  1  0.74964708  0.33358528  0.37545907  1
  Fe  Fe168  1  0.24961137  0.16672699  0.62574381  1
  Fe  Fe169  1  0.74974274  0.66627967  0.62506213  1
  Fe  Fe170  1  0.75012585  0.33334838  0.62448354  1
  Fe  Fe171  1  0.50011245  0.00040005  0.50015426  1
  Fe  Fe172  1  0.50076739  0.66801001  0.25048454  1
  Fe  Fe173  1  0.24994938  0.66669228  0.62494536  1
  Fe  Fe174  1  0.24946782  0.33277505  0.87451604  1
  Fe  Fe175  1  0.50050319  0.66718944  0.00024918  1
  Fe  Fe176  1  0.50029607  0.16668348  0.50040534  1
  Fe  Fe177  1  0.49995063  0.33305622  -0.00124669  1
  Fe  Fe178  1  0.75016716  0.50052693  0.12621006  1
  Fe  Fe179  1  -0.00007051  0.83203722  0.50040546  1
  Fe  Fe180  1  0.25031708  0.66691506  0.12361741  1
  Fe  Fe181  1  0.75012653  0.16754383  0.87507894  1
  Fe  Fe182  1  0.74997517  0.49936429  0.62396226  1
  Fe  Fe183  1  0.50098117  0.83371346  0.25038373  1
  Fe  Fe184  1  0.25045560  0.66628919  0.87457034  1
  Fe  Fe185  1  0.49975003  0.16727391  0.74959519  1
  Fe  Fe186  1  0.00030735  0.83262630  0.74942219  1
  Fe  Fe187  1  -0.00038665  0.16678425  0.00051671  1
  Fe  Fe188  1  0.49971472  0.16760280  -0.00110294  1
  Fe  Fe189  1  0.74999383  0.16717780  0.62505751  1
  Fe  Fe190  1  0.75027985  0.00083564  0.12488434  1
  Fe  Fe191  1  -0.00069314  0.50026154  0.50005801  1
  P  P192  1  0.04168546  0.24921499  0.10316275  1
  P  P193  1  0.04156479  0.25121170  0.35306033  1
  P  P194  1  0.04237172  0.25029564  0.60368504  1
  P  P195  1  0.04227631  0.24982357  0.85399909  1
  P  P196  1  0.04194602  0.58140201  0.10280150  1
  P  P197  1  0.04209073  0.58169860  0.35325312  1
  P  P198  1  0.04081007  0.58296721  0.60222449  1
  P  P199  1  0.04117118  0.58290834  0.85140240  1
  P  P200  1  0.04317204  0.91562035  0.10345266  1
  P  P201  1  0.04193727  0.91439292  0.35345465  1
  P  P202  1  0.04099541  0.91518664  0.60173402  1
  P  P203  1  0.04228397  0.91494028  0.85188623  1
  P  P204  1  0.54168577  0.25019703  0.10067500  1
  P  P205  1  0.54280410  0.24967488  0.35327073  1
  P  P206  1  0.54182979  0.24900527  0.60273933  1
  P  P207  1  0.54157719  0.25031839  0.85149413  1
  P  P208  1  0.54234294  0.58549102  0.10272472  1
  P  P209  1  0.54255227  0.58506412  0.35188077  1
  P  P210  1  0.54337802  0.58321619  0.60288028  1
  P  P211  1  0.54365448  0.58371451  0.85346361  1
  P  P212  1  0.54342834  0.91669197  0.10385622  1
  P  P213  1  0.54245068  0.91614682  0.35339843  1
  P  P214  1  0.54152255  0.91709272  0.60143724  1
  P  P215  1  0.54346634  0.91742289  0.85337828  1
  P  P216  1  0.45682788  0.08380668  0.14634760  1
  P  P217  1  0.45841276  0.08361911  0.39893646  1
  P  P218  1  0.45807491  0.08476837  0.64695364  1
  P  P219  1  0.45786591  0.08531928  0.89699710  1
  P  P220  1  0.45746524  0.41658482  0.14526011  1
  P  P221  1  0.45690684  0.41728234  0.39605319  1
  P  P222  1  0.45784974  0.41529030  0.64730407  1
  P  P223  1  0.45811207  0.41508041  0.89659212  1
  P  P224  1  0.45930788  0.75033743  0.14851174  1
  P  P225  1  0.45809337  0.75186393  0.39689567  1
  P  P226  1  0.45733775  0.75110899  0.64649392  1
  P  P227  1  0.45820275  0.74899224  0.89778399  1
  P  P228  1  0.95696727  0.08347020  0.14687517  1
  P  P229  1  0.95747131  0.08135981  0.39806418  1
  P  P230  1  0.95703088  0.08219272  0.64623084  1
  P  P231  1  0.95761025  0.08422920  0.89793319  1
  P  P232  1  0.95818115  0.41672262  0.14906336  1
  P  P233  1  0.95748316  0.41806219  0.39740275  1
  P  P234  1  0.95759214  0.41867234  0.64754209  1
  P  P235  1  0.95710076  0.41869678  0.89783911  1
  P  P236  1  0.95794722  0.75032981  0.14806416  1
  P  P237  1  0.95868576  0.74917443  0.39871128  1
  P  P238  1  0.95906413  0.74966914  0.64747606  1
  P  P239  1  0.95755658  0.74928279  0.89567667  1
  P  P240  1  0.20659157  0.08323775  0.22838978  1
  P  P241  1  0.20723259  0.08331914  0.47976043  1
  P  P242  1  0.20839508  0.08246172  0.72705292  1
  P  P243  1  0.20716105  0.08107337  0.97722277  1
  P  P244  1  0.20711993  0.41646269  0.22835466  1
  P  P245  1  0.20784212  0.41540814  0.47788613  1
  P  P246  1  0.20748809  0.41528548  0.72768127  1
  P  P247  1  0.20736701  0.41533587  0.97675338  1
  P  P248  1  0.20869116  0.74988688  0.22560017  1
  P  P249  1  0.20715894  0.74985057  0.47867041  1
  P  P250  1  0.20771463  0.74830781  0.72802201  1
  P  P251  1  0.20886066  0.74917781  0.97639191  1
  P  P252  1  0.70777414  0.08273465  0.22789223  1
  P  P253  1  0.70833634  0.08510979  0.47801086  1
  P  P254  1  0.70777128  0.08511422  0.72745321  1
  P  P255  1  0.70794365  0.08544868  0.97753000  1
  P  P256  1  0.70864120  0.41679478  0.22750291  1
  P  P257  1  0.70860539  0.41673698  0.47703863  1
  P  P258  1  0.70878195  0.41658467  0.72585956  1
  P  P259  1  0.70758270  0.41732099  0.97930236  1
  P  P260  1  0.70867680  0.74829109  0.22818751  1
  P  P261  1  0.70841108  0.74825994  0.47823331  1
  P  P262  1  0.70877653  0.75023366  0.72654768  1
  P  P263  1  0.70859116  0.75186556  0.97767611  1
  P  P264  1  0.29218488  0.24954362  0.02080448  1
  P  P265  1  0.29239343  0.25115348  0.27307915  1
  P  P266  1  0.29094905  0.25050011  0.52383704  1
  P  P267  1  0.29155490  0.25083598  0.77158277  1
  P  P268  1  0.29203020  0.58450252  0.02136342  1
  P  P269  1  0.29273561  0.58396547  0.27066324  1
  P  P270  1  0.29244026  0.58454932  0.52249274  1
  P  P271  1  0.29232823  0.58449209  0.77173558  1
  P  P272  1  0.29237816  0.91485566  0.02135382  1
  P  P273  1  0.29310268  0.91612504  0.27154548  1
  P  P274  1  0.29217549  0.91787050  0.52314099  1
  P  P275  1  0.29134405  0.91684139  0.77325721  1
  P  P276  1  0.79232199  0.25198067  0.02302124  1
  P  P277  1  0.79113554  0.25055776  0.27383689  1
  P  P278  1  0.79106560  0.25010857  0.52273026  1
  P  P279  1  0.79203232  0.24909119  0.77196947  1
  P  P280  1  0.79162357  0.58393475  0.02428496  1
  P  P281  1  0.79126549  0.58300996  0.27363217  1
  P  P282  1  0.79105892  0.58313422  0.52303308  1
  P  P283  1  0.79230636  0.58319125  0.77085752  1
  P  P284  1  0.79242991  0.91858502  0.02222862  1
  P  P285  1  0.79328473  0.91680719  0.27164959  1
  P  P286  1  0.79202765  0.91521534  0.52267692  1
  P  P287  1  0.79210476  0.91528362  0.77179090  1
  O  O288  1  0.03641864  0.24991281  0.18312570  1
  O  O289  1  0.03656788  0.25117590  0.43303459  1
  O  O290  1  0.03738727  0.25045622  0.68364235  1
  O  O291  1  0.03692046  0.24928702  0.93397076  1
  O  O292  1  0.03700670  0.58141858  0.18275711  1
  O  O293  1  0.03693185  0.58204928  0.43311303  1
  O  O294  1  0.03581256  0.58328295  0.68209398  1
  O  O295  1  0.03644271  0.58282291  0.93135921  1
  O  O296  1  0.03805877  0.91507705  0.18341292  1
  O  O297  1  0.03605857  0.91472103  0.43331197  1
  O  O298  1  0.03613712  0.91504077  0.68169514  1
  O  O299  1  0.03759212  0.91555747  0.93184103  1
  O  O300  1  0.53678874  0.25025707  0.18066564  1
  O  O301  1  0.53775955  0.24924966  0.43323296  1
  O  O302  1  0.53646045  0.24945624  0.68261799  1
  O  O303  1  0.53634538  0.25049383  0.93140588  1
  O  O304  1  0.53684910  0.58593246  0.18263895  1
  O  O305  1  0.53752282  0.58466464  0.43185154  1
  O  O306  1  0.53863850  0.58280671  0.68286947  1
  O  O307  1  0.53829494  0.58416014  0.93343023  1
  O  O308  1  0.53805655  0.91631511  0.18380361  1
  O  O309  1  0.53689327  0.91657778  0.43328788  1
  O  O310  1  0.53718062  0.91756528  0.68147297  1
  O  O311  1  0.53858397  0.91728554  0.93333098  1
  O  O312  1  0.46199709  0.08445220  0.06640582  1
  O  O313  1  0.46271254  0.08323188  0.31890028  1
  O  O314  1  0.46340751  0.08430222  0.56708812  1
  O  O315  1  0.46319912  0.08537430  0.81704961  1
  O  O316  1  0.46291713  0.41592906  0.06531734  1
  O  O317  1  0.46186446  0.41733387  0.31606080  1
  O  O318  1  0.46253511  0.41573513  0.56727467  1
  O  O319  1  0.46358537  0.41478088  0.81664245  1
  O  O320  1  0.46447732  0.74960238  0.06855905  1
  O  O321  1  0.46376720  0.75150793  0.31703708  1
  O  O322  1  0.46232728  0.75179434  0.56651780  1
  O  O323  1  0.46312290  0.74945334  0.81783437  1
  O  O324  1  0.96246979  0.08429206  0.06693546  1
  O  O325  1  0.96242056  0.08154359  0.31807751  1
  O  O326  1  0.96234990  0.08146860  0.56631552  1
  O  O327  1  0.96243572  0.08376865  0.81789839  1
  O  O328  1  0.96290914  0.41684497  0.06908460  1
  O  O329  1  0.96299443  0.41747731  0.31755183  1
  O  O330  1  0.96275184  0.41872009  0.56761924  1
  O  O331  1  0.96225182  0.41880839  0.81788762  1
  O  O332  1  0.96272793  0.74978115  0.06808066  1
  O  O333  1  0.96356026  0.74923661  0.31874900  1
  O  O334  1  0.96389402  0.74955695  0.56757314  1
  O  O335  1  0.96280171  0.74915935  0.81577482  1
  O  O336  1  0.21228909  0.08131078  0.05717174  1
  O  O337  1  0.21172230  0.08371886  0.30839459  1
  O  O338  1  0.21247051  0.08315581  0.55967907  1
  O  O339  1  0.21336250  0.08200572  0.80702711  1
  O  O340  1  0.21252840  0.41595255  0.05668903  1
  O  O341  1  0.21249689  0.41625602  0.30829209  1
  O  O342  1  0.21306304  0.41547437  0.55785954  1
  O  O343  1  0.21283576  0.41543992  0.80759030  1
  O  O344  1  0.21399708  0.74939032  0.05632136  1
  O  O345  1  0.21344474  0.75001537  0.30559914  1
  O  O346  1  0.21211677  0.74939814  0.55861044  1
  O  O347  1  0.21320997  0.74843609  0.80785492  1
  O  O348  1  0.71310969  0.08485208  0.05744348  1
  O  O349  1  0.71305223  0.08322672  0.30781661  1
  O  O350  1  0.71377778  0.08525007  0.55793207  1
  O  O351  1  0.71298857  0.08522541  0.80739137  1
  O  O352  1  0.71270417  0.41698190  0.05917409  1
  O  O353  1  0.71334925  0.41693297  0.30740039  1
  O  O354  1  0.71359624  0.41675945  0.55689578  1
  O  O355  1  0.71329226  0.41663713  0.80585506  1
  O  O356  1  0.71382740  0.75133019  0.05752845  1
  O  O357  1  0.71392988  0.74774994  0.30808485  1
  O  O358  1  0.71375275  0.74865660  0.55813162  1
  O  O359  1  0.71368396  0.75124728  0.80651633  1
  O  O360  1  0.28754331  0.25034289  0.19308529  1
  O  O361  1  0.28621590  0.25072314  0.44383999  1
  O  O362  1  0.28577032  0.25079757  0.69175993  1
  O  O363  1  0.28682712  0.24971729  0.94088274  1
  O  O364  1  0.28737156  0.58451991  0.19070428  1
  O  O365  1  0.28739675  0.58398667  0.44249698  1
  O  O366  1  0.28701458  0.58444688  0.69179590  1
  O  O367  1  0.28686558  0.58452318  0.94140139  1
  O  O368  1  0.28827718  0.91551627  0.19156903  1
  O  O369  1  0.28729679  0.91750311  0.44319898  1
  O  O370  1  0.28621448  0.91709248  0.69330221  1
  O  O371  1  0.28682207  0.91522793  0.94151309  1
  O  O372  1  0.78614826  0.25124547  0.19390159  1
  O  O373  1  0.78597747  0.25011661  0.44285972  1
  O  O374  1  0.78677894  0.24910053  0.69210229  1
  O  O375  1  0.78734028  0.25139388  0.94308911  1
  O  O376  1  0.78640232  0.58308014  0.19374841  1
  O  O377  1  0.78608641  0.58305946  0.44315804  1
  O  O378  1  0.78676997  0.58303054  0.69104354  1
  O  O379  1  0.78714277  0.58363893  0.94430067  1
  O  O380  1  0.78803732  0.91738700  0.19172704  1
  O  O381  1  0.78749799  0.91531298  0.44270806  1
  O  O382  1  0.78663191  0.91505475  0.69185997  1
  O  O383  1  0.78692076  0.91821342  0.94229539  1
  O  O384  1  0.22788251  0.24935111  0.05633058  1
  O  O385  1  0.22791497  0.25174435  0.30836526  1
  O  O386  1  0.22680216  0.25047542  0.55974790  1
  O  O387  1  0.22755755  0.25080375  0.80816126  1
  O  O388  1  0.22773684  0.58486026  0.05708751  1
  O  O389  1  0.22844849  0.58333610  0.30618149  1
  O  O390  1  0.22803496  0.58459015  0.55791832  1
  O  O391  1  0.22805666  0.58440683  0.80748030  1
  O  O392  1  0.22829057  0.91399697  0.05775913  1
  O  O393  1  0.22857631  0.91655965  0.30653890  1
  O  O394  1  0.22776135  0.91789757  0.55849451  1
  O  O395  1  0.22717417  0.91696951  0.80921601  1
  O  O396  1  0.72796621  0.25252229  0.05859589  1
  O  O397  1  0.72697489  0.24981998  0.30978254  1
  O  O398  1  0.72708695  0.25005871  0.55917522  1
  O  O399  1  0.72783964  0.24894569  0.80809126  1
  O  O400  1  0.72739422  0.58435867  0.05996764  1
  O  O401  1  0.72716162  0.58349542  0.30984109  1
  O  O402  1  0.72706189  0.58350098  0.55941776  1
  O  O403  1  0.72825347  0.58383697  0.80707144  1
  O  O404  1  0.72836084  0.91839197  0.05851665  1
  O  O405  1  0.72899933  0.91643620  0.30714366  1
  O  O406  1  0.72759806  0.91552895  0.55776126  1
  O  O407  1  0.72794108  0.91569973  0.80780682  1
  O  O408  1  0.27105221  0.08278364  0.19333368  1
  O  O409  1  0.27148628  0.08368965  0.44401413  1
  O  O410  1  0.27252655  0.08235933  0.69106032  1
  O  O411  1  0.27151189  0.08102752  0.94166241  1
  O  O412  1  0.27139005  0.41692435  0.19280743  1
  O  O413  1  0.27212254  0.41514456  0.44207595  1
  O  O414  1  0.27172142  0.41534708  0.69182795  1
  O  O415  1  0.27165741  0.41513911  0.94106544  1
  O  O416  1  0.27297803  0.75007185  0.18984203  1
  O  O417  1  0.27161465  0.75003763  0.44359379  1
  O  O418  1  0.27185738  0.74849833  0.69180818  1
  O  O419  1  0.27291672  0.74908686  0.94008830  1
  O  O420  1  0.77200363  0.08283841  0.19199322  1
  O  O421  1  0.77250265  0.08534582  0.44198448  1
  O  O422  1  0.77202668  0.08452758  0.69175821  1
  O  O423  1  0.77213339  0.08548167  0.94150825  1
  O  O424  1  0.77280154  0.41627325  0.19140264  1
  O  O425  1  0.77262137  0.41668369  0.44076808  1
  O  O426  1  0.77301741  0.41656303  0.69025278  1
  O  O427  1  0.77183312  0.41708322  0.94355966  1
  O  O428  1  0.77289994  0.74855862  0.19231622  1
  O  O429  1  0.77262159  0.74768637  0.44221962  1
  O  O430  1  0.77292686  0.74935894  0.69055851  1
  O  O431  1  0.77279750  0.75245869  0.94166410  1
  O  O432  1  0.02119926  0.08325782  0.18238242  1
  O  O433  1  0.02178257  0.08146477  0.43338306  1
  O  O434  1  0.02130389  0.08231264  0.68163601  1
  O  O435  1  0.02201122  0.08466601  0.93318193  1
  O  O436  1  0.02238306  0.41656972  0.18486803  1
  O  O437  1  0.02162197  0.41870539  0.43353275  1
  O  O438  1  0.02183256  0.41879621  0.68332370  1
  O  O439  1  0.02144867  0.41825553  0.93335410  1
  O  O440  1  0.02236276  0.75047536  0.18335276  1
  O  O441  1  0.02281181  0.74943156  0.43462093  1
  O  O442  1  0.02305778  0.75010008  0.68375231  1
  O  O443  1  0.02182810  0.74881176  0.93126031  1
  O  O444  1  0.52126977  0.08336707  0.18143810  1
  O  O445  1  0.52276206  0.08431267  0.43424071  1
  O  O446  1  0.52223872  0.08555648  0.68302459  1
  O  O447  1  0.52209671  0.08572651  0.93285417  1
  O  O448  1  0.52170865  0.41715353  0.18086561  1
  O  O449  1  0.52143693  0.41684252  0.43085671  1
  O  O450  1  0.52234305  0.41470236  0.68235248  1
  O  O451  1  0.52226097  0.41544284  0.93248486  1
  O  O452  1  0.52343306  0.75067455  0.18467113  1
  O  O453  1  0.52221062  0.75253014  0.43313993  1
  O  O454  1  0.52187038  0.75094513  0.68135624  1
  O  O455  1  0.52265193  0.74854969  0.93298658  1
  O  O456  1  0.47743828  0.24989936  0.06496042  1
  O  O457  1  0.47832924  0.25016388  0.31831375  1
  O  O458  1  0.47765591  0.24846786  0.56670405  1
  O  O459  1  0.47747861  0.25027234  0.81515381  1
  O  O460  1  0.47822954  0.58526299  0.06659600  1
  O  O461  1  0.47820468  0.58558861  0.31650677  1
  O  O462  1  0.47883905  0.58379033  0.56816940  1
  O  O463  1  0.47930528  0.58313303  0.81816895  1
  O  O464  1  0.47915373  0.91679161  0.06840600  1
  O  O465  1  0.47838111  0.91531804  0.31709326  1
  O  O466  1  0.47720421  0.91656074  0.56611487  1
  O  O467  1  0.47890831  0.91769553  0.81865383  1
  O  O468  1  0.97743391  0.24894543  0.06741874  1
  O  O469  1  0.97717962  0.25129129  0.31780519  1
  O  O470  1  0.97796380  0.25014959  0.56867121  1
  O  O471  1  0.97794260  0.25045311  0.81867877  1
  O  O472  1  0.97754463  0.58135953  0.06733573  1
  O  O473  1  0.97788886  0.58165160  0.31731027  1
  O  O474  1  0.97678869  0.58267377  0.56585232  1
  O  O475  1  0.97698179  0.58281826  0.81559204  1
  O  O476  1  0.97879591  0.91617988  0.06826427  1
  O  O477  1  0.97792028  0.91391292  0.31694960  1
  O  O478  1  0.97685257  0.91474741  0.56579870  1
  O  O479  1  0.97782843  0.91417384  0.81674310  1
  O  O480  1  0.07288564  0.31265643  0.07498596  1
  O  O481  1  0.07220854  0.31471409  0.32442029  1
  O  O482  1  0.07329990  0.31383068  0.57560987  1
  O  O483  1  0.07338972  0.31352654  0.82635161  1
  O  O484  1  0.07272803  0.64518175  0.07473674  1
  O  O485  1  0.07324352  0.64525205  0.32492684  1
  O  O486  1  0.07136260  0.64673139  0.57347929  1
  O  O487  1  0.07155482  0.64671067  0.82263390  1
  O  O488  1  0.07427575  0.97923521  0.07555176  1
  O  O489  1  0.07308022  0.97799361  0.32550425  1
  O  O490  1  0.07105618  0.97937237  0.57348198  1
  O  O491  1  0.07269341  0.97881223  0.82366354  1
  O  O492  1  0.57225249  0.31402754  0.07256650  1
  O  O493  1  0.57387333  0.31319199  0.32508598  1
  O  O494  1  0.57279117  0.31258825  0.57440846  1
  O  O495  1  0.57261416  0.31380988  0.82293679  1
  O  O496  1  0.57330551  0.64876263  0.07399030  1
  O  O497  1  0.57352509  0.64864974  0.32395705  1
  O  O498  1  0.57449983  0.64671194  0.57504082  1
  O  O499  1  0.57469488  0.64695114  0.82479383  1
  O  O500  1  0.57436397  0.98034884  0.07591198  1
  O  O501  1  0.57323474  0.97993738  0.32527263  1
  O  O502  1  0.57173725  0.98109125  0.57293636  1
  O  O503  1  0.57452126  0.98088222  0.82523068  1
  O  O504  1  0.42575561  0.02025300  0.17439192  1
  O  O505  1  0.42843381  0.01953392  0.42749192  1
  O  O506  1  0.42737727  0.02101885  0.67530458  1
  O  O507  1  0.42719853  0.02138439  0.92471992  1
  O  O508  1  0.42632556  0.35338131  0.17392143  1
  O  O509  1  0.42569017  0.35396620  0.42429657  1
  O  O510  1  0.42695853  0.35177188  0.67553271  1
  O  O511  1  0.42722213  0.35171483  0.92512944  1
  O  O512  1  0.42829996  0.68692620  0.17701499  1
  O  O513  1  0.42720030  0.68812111  0.42497359  1
  O  O514  1  0.42660724  0.68726943  0.67425423  1
  O  O515  1  0.42735769  0.68549784  0.92610698  1
  O  O516  1  0.92602415  0.01967369  0.17438262  1
  O  O517  1  0.92693623  0.01766221  0.42644188  1
  O  O518  1  0.92569238  0.01906464  0.67492821  1
  O  O519  1  0.92688254  0.02034162  0.92565133  1
  O  O520  1  0.92761313  0.35283068  0.17735709  1
  O  O521  1  0.92654807  0.35446643  0.42578885  1
  O  O522  1  0.92680963  0.35480809  0.67531859  1
  O  O523  1  0.92586084  0.35511356  0.92564438  1
  O  O524  1  0.92707422  0.68667194  0.17617949  1
  O  O525  1  0.92851280  0.68506051  0.42706804  1
  O  O526  1  0.92865749  0.68576330  0.67601627  1
  O  O527  1  0.92604464  0.68617217  0.92442881  1
  O  O528  1  0.17539372  0.01971719  0.20063340  1
  O  O529  1  0.17620028  0.01994242  0.45103543  1
  O  O530  1  0.17698323  0.01922248  0.69859467  1
  O  O531  1  0.17646778  0.01747522  0.94881886  1
  O  O532  1  0.17608581  0.35303364  0.19999263  1
  O  O533  1  0.17680958  0.35208340  0.44929279  1
  O  O534  1  0.17639762  0.35201919  0.69916380  1
  O  O535  1  0.17662899  0.35165954  0.94870443  1
  O  O536  1  0.17807774  0.68596451  0.19759338  1
  O  O537  1  0.17602390  0.68666143  0.44981301  1
  O  O538  1  0.17699773  0.68485104  0.69909045  1
  O  O539  1  0.17761431  0.68567060  0.94818658  1
  O  O540  1  0.67742496  0.01897017  0.19925463  1
  O  O541  1  0.67759561  0.02100202  0.45068856  1
  O  O542  1  0.67647130  0.02133841  0.69988890  1
  O  O543  1  0.67647572  0.02221491  0.94925933  1
  O  O544  1  0.67723745  0.35350925  0.19902485  1
  O  O545  1  0.67760361  0.35313950  0.44858025  1
  O  O546  1  0.67813077  0.35275936  0.69763750  1
  O  O547  1  0.67621531  0.35424331  0.95022290  1
  O  O548  1  0.67787973  0.68502636  0.19904677  1
  O  O549  1  0.67716292  0.68496176  0.44969609  1
  O  O550  1  0.67749748  0.68654025  0.69904259  1
  O  O551  1  0.67781239  0.68819841  0.94930707  1
  O  O552  1  0.32338135  0.31289591  0.04908984  1
  O  O553  1  0.32320924  0.31476421  0.30125897  1
  O  O554  1  0.32224299  0.31387241  0.55204419  1
  O  O555  1  0.32240050  0.31427651  0.80033902  1
  O  O556  1  0.32321801  0.64768655  0.05017546  1
  O  O557  1  0.32371483  0.64733533  0.29929221  1
  O  O558  1  0.32307142  0.64822604  0.55068241  1
  O  O559  1  0.32342186  0.64766141  0.80052394  1
  O  O560  1  0.32320130  0.97854564  0.04961995  1
  O  O561  1  0.32412755  0.97975176  0.29966843  1
  O  O562  1  0.32284906  0.98144705  0.55164182  1
  O  O563  1  0.32271580  0.98012252  0.80157399  1
  O  O564  1  0.82328132  0.31540980  0.05158967  1
  O  O565  1  0.82160921  0.31418756  0.30282158  1
  O  O566  1  0.82172736  0.31400369  0.55121588  1
  O  O567  1  0.82313784  0.31281633  0.79989991  1
  O  O568  1  0.82277375  0.64756109  0.05216257  1
  O  O569  1  0.82274048  0.64620822  0.30228133  1
  O  O570  1  0.82249723  0.64637307  0.55154855  1
  O  O571  1  0.82382807  0.64651154  0.79911840  1
  O  O572  1  0.82271593  0.98253650  0.05054673  1
  O  O573  1  0.82445569  0.97998125  0.30039731  1
  O  O574  1  0.82319389  0.97874382  0.55057349  1
  O  O575  1  0.82334544  0.97909621  0.79917618  1
  O  O576  1  0.42583484  0.14709350  0.17526482  1
  O  O577  1  0.42717424  0.14702732  0.42711875  1
  O  O578  1  0.42670160  0.14792777  0.67563509  1
  O  O579  1  0.42664638  0.14860724  0.92539517  1
  O  O580  1  0.42628755  0.48036766  0.17276289  1
  O  O581  1  0.42625309  0.48098944  0.42428128  1
  O  O582  1  0.42718596  0.47899876  0.67561502  1
  O  O583  1  0.42684179  0.47884283  0.92403814  1
  O  O584  1  0.42863231  0.81433166  0.17621671  1
  O  O585  1  0.42675608  0.81507380  0.42556235  1
  O  O586  1  0.42615870  0.81423950  0.67551559  1
  O  O587  1  0.42749520  0.81276158  0.92591412  1
  O  O588  1  0.92550787  0.14650937  0.17573616  1
  O  O589  1  0.92629884  0.14508316  0.42561415  1
  O  O590  1  0.92606148  0.14598529  0.67395462  1
  O  O591  1  0.92680409  0.14778462  0.92632698  1
  O  O592  1  0.92725756  0.48023233  0.17757159  1
  O  O593  1  0.92623626  0.48136519  0.42594965  1
  O  O594  1  0.92652937  0.48194290  0.67616666  1
  O  O595  1  0.92656462  0.48216517  0.92688886  1
  O  O596  1  0.92727939  0.81387962  0.17650950  1
  O  O597  1  0.92713259  0.81227173  0.42714323  1
  O  O598  1  0.92774871  0.81299754  0.67600327  1
  O  O599  1  0.92666783  0.81281414  0.92423445  1
  O  O600  1  0.07239556  0.18553485  0.07474373  1
  O  O601  1  0.07266689  0.18742696  0.32558999  1
  O  O602  1  0.07341247  0.18678000  0.57562065  1
  O  O603  1  0.07339380  0.18658833  0.82525235  1
  O  O604  1  0.07277172  0.51807263  0.07385851  1
  O  O605  1  0.07300816  0.51835734  0.32440759  1
  O  O606  1  0.07206073  0.51956471  0.57385571  1
  O  O607  1  0.07238115  0.51951969  0.82301788  1
  O  O608  1  0.07412250  0.85232912  0.07459278  1
  O  O609  1  0.07300079  0.85088492  0.32497131  1
  O  O610  1  0.07256828  0.85197817  0.57349980  1
  O  O611  1  0.07331446  0.85156060  0.82346597  1
  O  O612  1  0.57261849  0.18656105  0.07250710  1
  O  O613  1  0.57368634  0.18629482  0.32454635  1
  O  O614  1  0.57298873  0.18566375  0.57419485  1
  O  O615  1  0.57238915  0.18665223  0.82305885  1
  O  O616  1  0.57343904  0.52160186  0.07547651  1
  O  O617  1  0.57329603  0.52136113  0.32365100  1
  O  O618  1  0.57395719  0.51962178  0.57424079  1
  O  O619  1  0.57485696  0.52001894  0.82571485  1
  O  O620  1  0.57482242  0.85345138  0.07553996  1
  O  O621  1  0.57390073  0.85293095  0.32487675  1
  O  O622  1  0.57264110  0.85362565  0.57329713  1
  O  O623  1  0.57423348  0.85388220  0.82486025  1
  O  O624  1  0.32314472  0.18594353  0.04891045  1
  O  O625  1  0.32311908  0.18754091  0.30149172  1
  O  O626  1  0.32120821  0.18646168  0.55220242  1
  O  O627  1  0.32288653  0.18719504  0.79910930  1
  O  O628  1  0.32273700  0.52052845  0.04887722  1
  O  O629  1  0.32404056  0.52051620  0.29855054  1
  O  O630  1  0.32354775  0.52094946  0.55035884  1
  O  O631  1  0.32334246  0.52062365  0.79926965  1
  O  O632  1  0.32367004  0.85152592  0.04977799  1
  O  O633  1  0.32392915  0.85283206  0.30038557  1
  O  O634  1  0.32318363  0.85435075  0.55119179  1
  O  O635  1  0.32169006  0.85275345  0.80128713  1
  O  O636  1  0.82320697  0.18844321  0.05129071  1
  O  O637  1  0.82231225  0.18687363  0.30148113  1
  O  O638  1  0.82236332  0.18681372  0.55119976  1
  O  O639  1  0.82292140  0.18580852  0.80101872  1
  O  O640  1  0.82183173  0.52013858  0.05318527  1
  O  O641  1  0.82153638  0.51907131  0.30225559  1
  O  O642  1  0.82144683  0.51914604  0.55140074  1
  O  O643  1  0.82318863  0.51976782  0.79952829  1
  O  O644  1  0.82415641  0.85530707  0.04994003  1
  O  O645  1  0.82430320  0.85306193  0.29929877  1
  O  O646  1  0.82235299  0.85142315  0.55114626  1
  O  O647  1  0.82286098  0.85198665  0.80066135  1
  O  O648  1  0.17585740  0.14680926  0.20004674  1
  O  O649  1  0.17583668  0.14668143  0.45155311  1
  O  O650  1  0.17810818  0.14666581  0.69924902  1
  O  O651  1  0.17611896  0.14464154  0.94933424  1
  O  O652  1  0.17588916  0.47985665  0.20015910  1
  O  O653  1  0.17711034  0.47932395  0.45021912  1
  O  O654  1  0.17654015  0.47909914  0.69995413  1
  O  O655  1  0.17637502  0.47900518  0.94889899  1
  O  O656  1  0.17786257  0.81341823  0.19732742  1
  O  O657  1  0.17634695  0.81352461  0.45058845  1
  O  O658  1  0.17640091  0.81189809  0.70026981  1
  O  O659  1  0.17821353  0.81288095  0.94770268  1
  O  O660  1  0.67630405  0.14611645  0.19995373  1
  O  O661  1  0.67713486  0.14817490  0.44923881  1
  O  O662  1  0.67709389  0.14840333  0.69851980  1
  O  O663  1  0.67757371  0.14935879  0.94937861  1
  O  O664  1  0.67843379  0.48077580  0.19879602  1
  O  O665  1  0.67773368  0.48028339  0.44838348  1
  O  O666  1  0.67795029  0.48015485  0.69753666  1
  O  O667  1  0.67665538  0.48092835  0.95108025  1
  O  O668  1  0.67757848  0.81208271  0.20089774  1
  O  O669  1  0.67753738  0.81187220  0.44988340  1
  O  O670  1  0.67833195  0.81384546  0.69745418  1
  O  O671  1  0.67765236  0.81538692  0.94938490  1
