# generated using pymatgen
data_Na2MnFe(PO4)2
_symmetry_space_group_name_H-M   'P 1'
_cell_length_a   22.34203877
_cell_length_b   20.09436802
_cell_length_c   19.44968763
_cell_angle_alpha   90.01536214
_cell_angle_beta   90.03098445
_cell_angle_gamma   90.04400872
_symmetry_Int_Tables_number   1
_chemical_formula_structural   Na2MnFe(PO4)2
_chemical_formula_sum   'Na96 Mn48 Fe48 P96 O384'
_cell_volume   8731.91654873
_cell_formula_units_Z   48
loop_
 _symmetry_equiv_pos_site_id
 _symmetry_equiv_pos_as_xyz
  1  'x, y, z'
loop_
 _atom_site_type_symbol
 _atom_site_label
 _atom_site_symmetry_multiplicity
 _atom_site_fract_x
 _atom_site_fract_y
 _atom_site_fract_z
 _atom_site_occupancy
  Na  Na0  1  0.14002259  0.25046304  0.24421184  1
  Na  Na1  1  0.14017892  0.25035558  0.49431105  1
  Na  Na2  1  0.14001693  0.25252127  0.74376137  1
  Na  Na3  1  0.14005959  0.25095012  0.99344915  1
  Na  Na4  1  0.13977887  0.58378985  0.24445035  1
  Na  Na5  1  0.14009858  0.58344694  0.49346537  1
  Na  Na6  1  0.14046331  0.58422021  0.74183717  1
  Na  Na7  1  0.13989945  0.58318359  0.99245978  1
  Na  Na8  1  0.14039996  0.91603226  0.24546552  1
  Na  Na9  1  0.14024522  0.91503925  0.49404151  1
  Na  Na10  1  0.14004977  0.91568780  0.74220630  1
  Na  Na11  1  0.13992742  0.91714172  0.99349975  1
  Na  Na12  1  0.64060106  0.24870859  0.24290617  1
  Na  Na13  1  0.64017591  0.24828238  0.49384275  1
  Na  Na14  1  0.63948522  0.24940977  0.74492359  1
  Na  Na15  1  0.64027933  0.25058453  0.99270194  1
  Na  Na16  1  0.64054984  0.58248852  0.24308493  1
  Na  Na17  1  0.64031111  0.58345525  0.49478026  1
  Na  Na18  1  0.64049651  0.58278184  0.74475248  1
  Na  Na19  1  0.64066203  0.58327626  0.99336937  1
  Na  Na20  1  0.64049787  0.91755632  0.24227282  1
  Na  Na21  1  0.64049872  0.91692692  0.49345501  1
  Na  Na22  1  0.64050182  0.91470114  0.74492663  1
  Na  Na23  1  0.63988734  0.91765417  0.99381842  1
  Na  Na24  1  0.35971821  0.08387489  0.00608360  1
  Na  Na25  1  0.35928468  0.08305534  0.25553008  1
  Na  Na26  1  0.35966156  0.08290731  0.50659312  1
  Na  Na27  1  0.35930876  0.08458642  0.75634499  1
  Na  Na28  1  0.36038828  0.41751887  0.00555057  1
  Na  Na29  1  0.36005740  0.41789646  0.25586653  1
  Na  Na30  1  0.35932894  0.41583607  0.50630303  1
  Na  Na31  1  0.35952905  0.41711193  0.75709965  1
  Na  Na32  1  0.35944216  0.75225239  0.00523626  1
  Na  Na33  1  0.35988096  0.75049527  0.25630030  1
  Na  Na34  1  0.35953141  0.74881789  0.50648281  1
  Na  Na35  1  0.35999014  0.74953691  0.75651508  1
  Na  Na36  1  0.85913229  0.08414734  0.00730051  1
  Na  Na37  1  0.85913657  0.08306152  0.25519229  1
  Na  Na38  1  0.85947688  0.08291255  0.50525199  1
  Na  Na39  1  0.85964818  0.08313727  0.75712236  1
  Na  Na40  1  0.86001891  0.41626539  0.00644450  1
  Na  Na41  1  0.86046569  0.41499388  0.25700635  1
  Na  Na42  1  0.86030479  0.41694604  0.50730699  1
  Na  Na43  1  0.86000701  0.41578216  0.75775752  1
  Na  Na44  1  0.85991209  0.75082308  0.00579872  1
  Na  Na45  1  0.85969655  0.75047641  0.25687202  1
  Na  Na46  1  0.86034623  0.74991955  0.50697420  1
  Na  Na47  1  0.86064391  0.74861592  0.75631960  1
  Na  Na48  1  0.10972775  0.08289660  0.11875380  1
  Na  Na49  1  0.10941690  0.08344768  0.36955283  1
  Na  Na50  1  0.10911616  0.08405356  0.61814629  1
  Na  Na51  1  0.10891425  0.08431388  0.86878000  1
  Na  Na52  1  0.10931330  0.41600870  0.11908182  1
  Na  Na53  1  0.10921323  0.41726629  0.36943526  1
  Na  Na54  1  0.10949027  0.41849330  0.61873612  1
  Na  Na55  1  0.10967159  0.41835487  0.86713878  1
  Na  Na56  1  0.10939713  0.74827485  0.11939138  1
  Na  Na57  1  0.10996100  0.74908488  0.36952720  1
  Na  Na58  1  0.10993944  0.74991507  0.61715181  1
  Na  Na59  1  0.10945354  0.74988129  0.86638633  1
  Na  Na60  1  0.60954586  0.08372637  0.11669693  1
  Na  Na61  1  0.61001031  0.08309275  0.36791587  1
  Na  Na62  1  0.60946528  0.08338922  0.61948732  1
  Na  Na63  1  0.60943777  0.08402318  0.86937374  1
  Na  Na64  1  0.60969666  0.41623347  0.11760802  1
  Na  Na65  1  0.60959706  0.41613158  0.36892051  1
  Na  Na66  1  0.60941544  0.41486868  0.62038377  1
  Na  Na67  1  0.61008493  0.41626559  0.86850071  1
  Na  Na68  1  0.60950154  0.75147969  0.11830942  1
  Na  Na69  1  0.60961129  0.74930199  0.36842600  1
  Na  Na70  1  0.61002930  0.74914938  0.62019439  1
  Na  Na71  1  0.60961980  0.75085174  0.86907325  1
  Na  Na72  1  0.39055248  0.25122482  0.13016210  1
  Na  Na73  1  0.39017357  0.25010081  0.38126922  1
  Na  Na74  1  0.39042908  0.24924652  0.63137898  1
  Na  Na75  1  0.39063812  0.25094287  0.88162360  1
  Na  Na76  1  0.39062792  0.58388373  0.13035404  1
  Na  Na77  1  0.39048258  0.58307848  0.38120483  1
  Na  Na78  1  0.38980866  0.58325481  0.63266187  1
  Na  Na79  1  0.39045474  0.58394431  0.88093128  1
  Na  Na80  1  0.38969787  0.91736999  0.13047992  1
  Na  Na81  1  0.39052664  0.91599307  0.38105847  1
  Na  Na82  1  0.39064007  0.91628556  0.63173898  1
  Na  Na83  1  0.39018078  0.91717775  0.88131073  1
  Na  Na84  1  0.88977382  0.24997158  0.13162484  1
  Na  Na85  1  0.89033696  0.25019793  0.38110317  1
  Na  Na86  1  0.89050083  0.25124758  0.63178908  1
  Na  Na87  1  0.88989853  0.25125519  0.88276284  1
  Na  Na88  1  0.89122930  0.58149441  0.13125735  1
  Na  Na89  1  0.89101897  0.58301816  0.38184932  1
  Na  Na90  1  0.89092797  0.58352119  0.63197759  1
  Na  Na91  1  0.89088339  0.58274463  0.88005295  1
  Na  Na92  1  0.88988093  0.91571244  0.13206034  1
  Na  Na93  1  0.89022601  0.91613498  0.38190053  1
  Na  Na94  1  0.89066808  0.91586400  0.63093944  1
  Na  Na95  1  0.89060647  0.91611703  0.88187969  1
  Mn  Mn96  1  0.75032833  0.49941055  0.37511794  1
  Mn  Mn97  1  0.75017394  -0.00036980  0.87578427  1
  Mn  Mn98  1  0.24944076  0.16668077  0.37500446  1
  Mn  Mn99  1  0.75006600  0.33259228  0.62571479  1
  Mn  Mn100  1  0.75015116  0.66655109  0.87572598  1
  Mn  Mn101  1  0.24958574  -0.00111699  0.37648025  1
  Mn  Mn102  1  0.00063252  0.83164199  0.25101379  1
  Mn  Mn103  1  0.50064480  0.00046889  0.50050293  1
  Mn  Mn104  1  0.24973333  0.33419856  0.12466154  1
  Mn  Mn105  1  0.00002365  0.00020717  0.00011674  1
  Mn  Mn106  1  0.75020376  0.66681311  0.37455840  1
  Mn  Mn107  1  0.24915557  0.16786826  0.87560837  1
  Mn  Mn108  1  -0.00054073  -0.00029621  0.74949354  1
  Mn  Mn109  1  -0.00081442  0.16823239  0.74924612  1
  Mn  Mn110  1  0.24978693  0.66772120  0.12400480  1
  Mn  Mn111  1  0.24998905  0.50048600  0.37520988  1
  Mn  Mn112  1  0.24966341  0.50083290  0.12477487  1
  Mn  Mn113  1  -0.00026994  0.16786466  0.50024006  1
  Mn  Mn114  1  0.49985645  0.66757472  0.00074715  1
  Mn  Mn115  1  0.24971091  0.66720916  0.87392191  1
  Mn  Mn116  1  -0.00045111  0.16721594  0.25068176  1
  Mn  Mn117  1  0.24873348  0.83443880  0.12556455  1
  Mn  Mn118  1  0.74946333  0.49988736  0.62594791  1
  Mn  Mn119  1  0.00004282  0.83216568  0.00001578  1
  Mn  Mn120  1  0.49992422  0.49918407  0.50114884  1
  Mn  Mn121  1  0.49932596  -0.00024914  0.24891106  1
  Mn  Mn122  1  0.74972241  0.33173809  0.37549525  1
  Mn  Mn123  1  0.49971068  0.33189536  0.49957783  1
  Mn  Mn124  1  0.74975607  -0.00053072  0.62556743  1
  Mn  Mn125  1  0.50056053  0.33416141  0.24983692  1
  Mn  Mn126  1  0.75082499  0.83203444  0.62440512  1
  Mn  Mn127  1  0.74946298  0.83425968  0.37536948  1
  Mn  Mn128  1  0.24907269  0.00001689  0.87433322  1
  Mn  Mn129  1  0.50007229  0.49969293  0.75066244  1
  Mn  Mn130  1  0.00010318  -0.00057968  0.25017950  1
  Mn  Mn131  1  -0.00021132  0.66485089  -0.00105808  1
  Mn  Mn132  1  -0.00008967  0.33373766  0.00035303  1
  Mn  Mn133  1  0.75075549  0.66756397  0.12411972  1
  Mn  Mn134  1  0.50002254  0.66618379  0.50006724  1
  Mn  Mn135  1  0.74999774  0.16599916  0.62535516  1
  Mn  Mn136  1  0.25014669  0.16666116  0.12484638  1
  Mn  Mn137  1  0.50029371  0.83283756  0.50052124  1
  Mn  Mn138  1  0.49985433  0.16692377  0.24871579  1
  Mn  Mn139  1  0.75079149  0.49879924  0.12452261  1
  Mn  Mn140  1  0.50004559  0.66649097  0.24919542  1
  Mn  Mn141  1  0.25016031  0.33363789  0.62522653  1
  Mn  Mn142  1  0.24999528  -0.00031701  0.62524130  1
  Mn  Mn143  1  0.49994236  0.00034075  0.75023214  1
  Fe  Fe144  1  0.75006050  0.83427510  0.12541997  1
  Fe  Fe145  1  0.74992025  0.33266791  0.87569357  1
  Fe  Fe146  1  -0.00018825  0.16735538  0.00004186  1
  Fe  Fe147  1  0.74968087  0.16680561  0.87625513  1
  Fe  Fe148  1  0.25032523  0.50076144  0.87406094  1
  Fe  Fe149  1  0.50004558  0.49997587  0.24964146  1
  Fe  Fe150  1  -0.00043393  0.50038179  0.50011676  1
  Fe  Fe151  1  0.75019804  0.00038514  0.37370008  1
  Fe  Fe152  1  0.75052257  0.49930979  0.87515183  1
  Fe  Fe153  1  -0.00046816  0.66558459  0.25064998  1
  Fe  Fe154  1  0.50057253  0.66709228  0.75139970  1
  Fe  Fe155  1  0.74966412  0.16681964  0.12485882  1
  Fe  Fe156  1  0.50003906  0.83371228  0.24921396  1
  Fe  Fe157  1  0.24992221  0.33331894  0.37549558  1
  Fe  Fe158  1  0.75040539  0.83329995  0.87537472  1
  Fe  Fe159  1  0.00009574  0.50060827  0.74891247  1
  Fe  Fe160  1  0.25025230  0.66673543  0.62450887  1
  Fe  Fe161  1  0.49938464  0.16679233  0.75032115  1
  Fe  Fe162  1  -0.00010996  0.33468969  0.50060539  1
  Fe  Fe163  1  0.50040104  0.83362878  0.75067872  1
  Fe  Fe164  1  0.25064488  0.83255476  0.37492532  1
  Fe  Fe165  1  0.50079129  0.50050864  -0.00042827  1
  Fe  Fe166  1  0.24965521  0.83367066  0.87444981  1
  Fe  Fe167  1  0.49964748  0.16729682  -0.00083805  1
  Fe  Fe168  1  0.75029749  0.16552465  0.37363497  1
  Fe  Fe169  1  0.49961919  0.33275073  0.75039905  1
  Fe  Fe170  1  0.25021368  0.33451789  0.87412379  1
  Fe  Fe171  1  0.25065348  0.83255243  0.62430288  1
  Fe  Fe172  1  0.24978846  0.16720887  0.62543465  1
  Fe  Fe173  1  -0.00040512  -0.00024448  0.50032134  1
  Fe  Fe174  1  0.49960251  0.83397892  -0.00070716  1
  Fe  Fe175  1  0.25003653  0.50009686  0.62455469  1
  Fe  Fe176  1  0.49994933  0.33398042  -0.00023836  1
  Fe  Fe177  1  0.00052218  0.33354566  0.25030176  1
  Fe  Fe178  1  0.00031836  0.66657861  0.74869601  1
  Fe  Fe179  1  0.00053835  0.49947302  -0.00011553  1
  Fe  Fe180  1  0.00022120  0.83308611  0.74919219  1
  Fe  Fe181  1  0.00017483  0.49947409  0.25083334  1
  Fe  Fe182  1  0.00004003  0.83269456  0.50002398  1
  Fe  Fe183  1  0.00019731  0.66646315  0.49992474  1
  Fe  Fe184  1  -0.00011835  0.33467040  0.75070364  1
  Fe  Fe185  1  0.49946342  0.00025177  -0.00087945  1
  Fe  Fe186  1  0.75011687  0.00052918  0.12459777  1
  Fe  Fe187  1  0.75020311  0.66598835  0.62577331  1
  Fe  Fe188  1  0.24959982  -0.00013262  0.12533911  1
  Fe  Fe189  1  0.74976386  0.33272566  0.12486063  1
  Fe  Fe190  1  0.50013613  0.16623613  0.50003113  1
  Fe  Fe191  1  0.25044048  0.66655703  0.37537530  1
  P  P192  1  0.04208848  0.24928954  0.10286923  1
  P  P193  1  0.04201524  0.25218111  0.35344110  1
  P  P194  1  0.04196918  0.25289091  0.60308684  1
  P  P195  1  0.04180948  0.25177656  0.85277979  1
  P  P196  1  0.04238882  0.58103093  0.10288385  1
  P  P197  1  0.04142799  0.58307053  0.35267003  1
  P  P198  1  0.04109687  0.58369150  0.60183343  1
  P  P199  1  0.04179671  0.58343209  0.85040892  1
  P  P200  1  0.04268378  0.91571717  0.10330403  1
  P  P201  1  0.04230641  0.91608902  0.35471140  1
  P  P202  1  0.04115148  0.91595814  0.60180617  1
  P  P203  1  0.04209089  0.91561093  0.85180866  1
  P  P204  1  0.54148281  0.25032736  0.10063106  1
  P  P205  1  0.54290262  0.24938002  0.35279422  1
  P  P206  1  0.54208612  0.24810096  0.60329214  1
  P  P207  1  0.54076905  0.24995663  0.85251827  1
  P  P208  1  0.54259275  0.58232239  0.10255482  1
  P  P209  1  0.54255618  0.58187290  0.35212286  1
  P  P210  1  0.54248210  0.58334893  0.60453776  1
  P  P211  1  0.54233511  0.58439373  0.85347131  1
  P  P212  1  0.54058244  0.91681461  0.10110797  1
  P  P213  1  0.54249993  0.91563649  0.35172705  1
  P  P214  1  0.54319618  0.91632476  0.60398056  1
  P  P215  1  0.54174392  0.91610898  0.85338756  1
  P  P216  1  0.45718304  0.08369778  0.14496418  1
  P  P217  1  0.45758890  0.08412921  0.39741976  1
  P  P218  1  0.45756143  0.08472420  0.64756857  1
  P  P219  1  0.45833056  0.08419168  0.89768915  1
  P  P220  1  0.45818845  0.41830269  0.14638734  1
  P  P221  1  0.45713002  0.41665300  0.39672888  1
  P  P222  1  0.45744449  0.41473772  0.64825650  1
  P  P223  1  0.45924720  0.41697616  0.89794877  1
  P  P224  1  0.45761894  0.75187162  0.14680490  1
  P  P225  1  0.45735723  0.74995621  0.39644487  1
  P  P226  1  0.45901016  0.74979396  0.64938515  1
  P  P227  1  0.45803891  0.75143739  0.89687265  1
  P  P228  1  0.95745515  0.08365512  0.14659771  1
  P  P229  1  0.95809009  0.08253815  0.39801135  1
  P  P230  1  0.95707881  0.08337432  0.64624558  1
  P  P231  1  0.95739070  0.08507133  0.89772904  1
  P  P232  1  0.95870492  0.41649637  0.14869743  1
  P  P233  1  0.95856643  0.41703036  0.39819070  1
  P  P234  1  0.95849618  0.41695081  0.64807887  1
  P  P235  1  0.95826311  0.41817437  0.89697548  1
  P  P236  1  0.95771923  0.74735208  0.14799887  1
  P  P237  1  0.95851746  0.74903165  0.39845754  1
  P  P238  1  0.95915863  0.74999319  0.64701594  1
  P  P239  1  0.95765399  0.74922680  0.89546538  1
  P  P240  1  0.20745549  0.08197594  0.22771896  1
  P  P241  1  0.20698711  0.08341651  0.47923281  1
  P  P242  1  0.20719194  0.08502755  0.72734929  1
  P  P243  1  0.20674048  0.08318712  0.97853537  1
  P  P244  1  0.20721418  0.41713600  0.22858231  1
  P  P245  1  0.20790991  0.41584456  0.47787955  1
  P  P246  1  0.20809787  0.41869194  0.72769048  1
  P  P247  1  0.20848158  0.41752405  0.97561445  1
  P  P248  1  0.20728927  0.74990165  0.22910448  1
  P  P249  1  0.20919770  0.74959298  0.47729310  1
  P  P250  1  0.20880690  0.75017272  0.72602044  1
  P  P251  1  0.20693224  0.75170719  0.97649391  1
  P  P252  1  0.70820219  0.08330650  0.22623214  1
  P  P253  1  0.70853268  0.08293169  0.47584871  1
  P  P254  1  0.70719477  0.08304312  0.72931077  1
  P  P255  1  0.70782318  0.08471909  0.97850804  1
  P  P256  1  0.70793129  0.41461106  0.22722363  1
  P  P257  1  0.70706379  0.41616261  0.47848334  1
  P  P258  1  0.70749932  0.41586984  0.72986924  1
  P  P259  1  0.70907820  0.41620205  0.97689517  1
  P  P260  1  0.70786644  0.75141596  0.22705523  1
  P  P261  1  0.70721472  0.74946570  0.47846153  1
  P  P262  1  0.70852516  0.74838267  0.72822307  1
  P  P263  1  0.70784550  0.75212160  0.97806619  1
  P  P264  1  0.29256545  0.25113538  0.02119864  1
  P  P265  1  0.29213613  0.25136668  0.27267151  1
  P  P266  1  0.29220444  0.24896110  0.52257113  1
  P  P267  1  0.29201439  0.25150359  0.77237421  1
  P  P268  1  0.29258353  0.58386869  0.02063986  1
  P  P269  1  0.29248807  0.58493183  0.27256675  1
  P  P270  1  0.29145486  0.58332651  0.52313478  1
  P  P271  1  0.29216311  0.58254868  0.77126136  1
  P  P272  1  0.29151470  0.91806280  0.02214569  1
  P  P273  1  0.29225486  0.91590489  0.27272712  1
  P  P274  1  0.29258855  0.91473306  0.52248275  1
  P  P275  1  0.29195554  0.91519028  0.77180787  1
  P  P276  1  0.79114348  0.25006904  0.02297543  1
  P  P277  1  0.79207568  0.24805493  0.27150022  1
  P  P278  1  0.79295681  0.24906531  0.52184978  1
  P  P279  1  0.79138905  0.24921662  0.77442349  1
  P  P280  1  0.79306517  0.58290086  0.02124924  1
  P  P281  1  0.79331006  0.58288803  0.27164304  1
  P  P282  1  0.79261393  0.58421989  0.52320502  1
  P  P283  1  0.79219695  0.58200725  0.77279293  1
  P  P284  1  0.79140481  0.91664007  0.02325935  1
  P  P285  1  0.79213163  0.91803771  0.27155215  1
  P  P286  1  0.79289701  0.91716817  0.52140851  1
  P  P287  1  0.79273438  0.91496979  0.77297609  1
  O  O288  1  0.03716442  0.24992627  0.18283069  1
  O  O289  1  0.03662273  0.25241364  0.43335336  1
  O  O290  1  0.03641244  0.25299473  0.68300810  1
  O  O291  1  0.03662076  0.25084183  0.93275475  1
  O  O292  1  0.03688033  0.58109614  0.18266819  1
  O  O293  1  0.03622725  0.58354647  0.43252509  1
  O  O294  1  0.03612958  0.58371162  0.68167244  1
  O  O295  1  0.03740816  0.58271371  0.93035716  1
  O  O296  1  0.03770746  0.91562851  0.18329780  1
  O  O297  1  0.03666745  0.91630305  0.43460962  1
  O  O298  1  0.03600600  0.91547716  0.68180027  1
  O  O299  1  0.03715246  0.91578000  0.93179415  1
  O  O300  1  0.53695636  0.25080573  0.18060002  1
  O  O301  1  0.53788574  0.24863044  0.43275334  1
  O  O302  1  0.53650581  0.24833558  0.68316664  1
  O  O303  1  0.53544280  0.25018197  0.93237832  1
  O  O304  1  0.53730251  0.58206250  0.18249095  1
  O  O305  1  0.53736525  0.58224696  0.43213593  1
  O  O306  1  0.53727799  0.58412890  0.68450350  1
  O  O307  1  0.53706212  0.58397007  0.93339122  1
  O  O308  1  0.53582099  0.91667611  0.18108798  1
  O  O309  1  0.53781901  0.91609008  0.43174569  1
  O  O310  1  0.53785737  0.91614613  0.68391837  1
  O  O311  1  0.53605396  0.91629352  0.93323189  1
  O  O312  1  0.46252569  0.08386156  0.06507598  1
  O  O313  1  0.46226473  0.08362287  0.31738278  1
  O  O314  1  0.46298230  0.08466105  0.56763844  1
  O  O315  1  0.46317479  0.08422786  0.81770321  1
  O  O316  1  0.46369752  0.41826104  0.06649467  1
  O  O317  1  0.46221903  0.41725744  0.31675734  1
  O  O318  1  0.46241707  0.41479459  0.56830816  1
  O  O319  1  0.46389238  0.41593136  0.81800049  1
  O  O320  1  0.46286163  0.75199031  0.06684857  1
  O  O321  1  0.46233700  0.75026208  0.31649094  1
  O  O322  1  0.46389773  0.74951576  0.56937155  1
  O  O323  1  0.46395815  0.75091652  0.81705190  1
  O  O324  1  0.96279340  0.08431190  0.06664890  1
  O  O325  1  0.96313240  0.08262226  0.31804681  1
  O  O326  1  0.96266991  0.08293152  0.56636917  1
  O  O327  1  0.96210722  0.08503205  0.81772284  1
  O  O328  1  0.96372700  0.41661410  0.06875259  1
  O  O329  1  0.96380065  0.41732623  0.31833640  1
  O  O330  1  0.96307474  0.41680372  0.56818034  1
  O  O331  1  0.96332527  0.41774336  0.81714534  1
  O  O332  1  0.96271305  0.74754152  0.06801648  1
  O  O333  1  0.96352086  0.74842598  0.31851655  1
  O  O334  1  0.96436376  0.74986672  0.56710636  1
  O  O335  1  0.96311368  0.74971819  0.81555929  1
  O  O336  1  0.21217996  0.08254754  0.05848325  1
  O  O337  1  0.21262024  0.08226251  0.30772479  1
  O  O338  1  0.21234509  0.08410397  0.55916390  1
  O  O339  1  0.21215523  0.08465075  0.80735360  1
  O  O340  1  0.21321865  0.41765859  0.05564310  1
  O  O341  1  0.21235818  0.41665157  0.30851866  1
  O  O342  1  0.21335993  0.41642951  0.55779116  1
  O  O343  1  0.21356335  0.41865088  0.80755219  1
  O  O344  1  0.21176827  0.75145071  0.05648477  1
  O  O345  1  0.21291981  0.74950731  0.30898880  1
  O  O346  1  0.21456000  0.74968599  0.55720420  1
  O  O347  1  0.21318312  0.75038059  0.80600191  1
  O  O348  1  0.71325767  0.08491165  0.05834556  1
  O  O349  1  0.71325227  0.08297840  0.30615226  1
  O  O350  1  0.71357584  0.08284550  0.55583943  1
  O  O351  1  0.71232180  0.08356048  0.80924556  1
  O  O352  1  0.71387447  0.41532326  0.05686646  1
  O  O353  1  0.71287809  0.41484154  0.30719860  1
  O  O354  1  0.71198212  0.41622471  0.55850336  1
  O  O355  1  0.71292384  0.41607471  0.80979155  1
  O  O356  1  0.71321603  0.75237287  0.05798191  1
  O  O357  1  0.71271462  0.75114981  0.30705858  1
  O  O358  1  0.71259963  0.74870959  0.55841828  1
  O  O359  1  0.71362664  0.74915667  0.80815421  1
  O  O360  1  0.28695198  0.25098809  0.19267305  1
  O  O361  1  0.28699996  0.24962939  0.44263692  1
  O  O362  1  0.28686020  0.25067627  0.69241659  1
  O  O363  1  0.28726172  0.25183999  0.94126205  1
  O  O364  1  0.28741589  0.58471301  0.19258601  1
  O  O365  1  0.28649863  0.58419654  0.44317094  1
  O  O366  1  0.28709375  0.58229023  0.69136387  1
  O  O367  1  0.28741646  0.58343353  0.94065330  1
  O  O368  1  0.28666485  0.91705829  0.19279657  1
  O  O369  1  0.28728136  0.91453369  0.44255782  1
  O  O370  1  0.28699780  0.91499233  0.69183395  1
  O  O371  1  0.28635606  0.91725039  0.94219732  1
  O  O372  1  0.78646170  0.24852046  0.19162505  1
  O  O373  1  0.78809697  0.24872744  0.44189171  1
  O  O374  1  0.78697450  0.24946303  0.69441176  1
  O  O375  1  0.78594245  0.25006659  0.94306349  1
  O  O376  1  0.78843398  0.58286753  0.19166249  1
  O  O377  1  0.78775076  0.58391375  0.44320520  1
  O  O378  1  0.78691158  0.58266360  0.69286653  1
  O  O379  1  0.78742278  0.58241788  0.94134940  1
  O  O380  1  0.78692773  0.91758256  0.19163439  1
  O  O381  1  0.78776235  0.91782334  0.44144116  1
  O  O382  1  0.78776485  0.91524537  0.69300307  1
  O  O383  1  0.78661826  0.91621487  0.94324688  1
  O  O384  1  0.22824561  0.25051439  0.05652361  1
  O  O385  1  0.22779867  0.25168411  0.30820672  1
  O  O386  1  0.22794132  0.24884845  0.55831618  1
  O  O387  1  0.22769984  0.25231014  0.80792867  1
  O  O388  1  0.22815721  0.58394207  0.05577036  1
  O  O389  1  0.22817447  0.58506146  0.30811163  1
  O  O390  1  0.22728934  0.58295166  0.55904415  1
  O  O391  1  0.22792863  0.58240586  0.80707578  1
  O  O392  1  0.22726836  0.91879796  0.05797950  1
  O  O393  1  0.22811688  0.91477712  0.30875436  1
  O  O394  1  0.22829960  0.91485582  0.55813060  1
  O  O395  1  0.22754601  0.91515903  0.80717074  1
  O  O396  1  0.72703812  0.25033743  0.05921476  1
  O  O397  1  0.72797278  0.24742499  0.30773851  1
  O  O398  1  0.72846391  0.24929339  0.55687095  1
  O  O399  1  0.72702909  0.24862212  0.80973840  1
  O  O400  1  0.72885964  0.58303125  0.05684575  1
  O  O401  1  0.72875858  0.58276830  0.30639795  1
  O  O402  1  0.72816396  0.58459209  0.55844145  1
  O  O403  1  0.72808367  0.58158967  0.80876831  1
  O  O404  1  0.72722538  0.91635050  0.05903261  1
  O  O405  1  0.72790845  0.91846420  0.30750347  1
  O  O406  1  0.72856806  0.91609235  0.55673579  1
  O  O407  1  0.72834715  0.91502170  0.80834018  1
  O  O408  1  0.27173054  0.08183744  0.19206018  1
  O  O409  1  0.27124589  0.08332752  0.44377978  1
  O  O410  1  0.27160602  0.08483206  0.69211750  1
  O  O411  1  0.27099938  0.08349982  0.94302465  1
  O  O412  1  0.27157089  0.41746154  0.19328886  1
  O  O413  1  0.27203190  0.41565862  0.44184014  1
  O  O414  1  0.27223402  0.41872003  0.69162130  1
  O  O415  1  0.27282527  0.41730304  0.94010311  1
  O  O416  1  0.27140252  0.75060857  0.19312665  1
  O  O417  1  0.27315502  0.74947412  0.44071775  1
  O  O418  1  0.27315356  0.75026939  0.69064031  1
  O  O419  1  0.27139827  0.75175077  0.94131650  1
  O  O420  1  0.77229560  0.08385262  0.19009663  1
  O  O421  1  0.77267091  0.08289237  0.43970725  1
  O  O422  1  0.77160692  0.08289709  0.69417398  1
  O  O423  1  0.77191845  0.08481949  0.94232099  1
  O  O424  1  0.77236872  0.41408767  0.19200709  1
  O  O425  1  0.77157925  0.41585534  0.44364733  1
  O  O426  1  0.77169575  0.41618190  0.69408383  1
  O  O427  1  0.77323560  0.41661562  0.94110126  1
  O  O428  1  0.77232904  0.75178800  0.19193100  1
  O  O429  1  0.77159148  0.75029605  0.44323585  1
  O  O430  1  0.77274702  0.74786896  0.69235164  1
  O  O431  1  0.77211973  0.75162904  0.94238593  1
  O  O432  1  0.02167488  0.08367938  0.18225019  1
  O  O433  1  0.02223921  0.08295702  0.43376542  1
  O  O434  1  0.02129198  0.08387987  0.68191446  1
  O  O435  1  0.02180187  0.08502424  0.93300170  1
  O  O436  1  0.02283929  0.41652681  0.18484592  1
  O  O437  1  0.02256526  0.41683475  0.43472115  1
  O  O438  1  0.02268163  0.41643501  0.68406553  1
  O  O439  1  0.02248668  0.41798219  0.93297861  1
  O  O440  1  0.02206636  0.74705068  0.18354839  1
  O  O441  1  0.02272476  0.74957225  0.43445914  1
  O  O442  1  0.02321739  0.75034100  0.68337753  1
  O  O443  1  0.02184177  0.74898630  0.93136114  1
  O  O444  1  0.52146288  0.08333441  0.18064575  1
  O  O445  1  0.52210982  0.08467381  0.43263018  1
  O  O446  1  0.52176941  0.08472752  0.68345225  1
  O  O447  1  0.52240768  0.08455603  0.93373654  1
  O  O448  1  0.52236826  0.41871070  0.18261383  1
  O  O449  1  0.52149035  0.41617568  0.43204274  1
  O  O450  1  0.52176992  0.41477087  0.68378722  1
  O  O451  1  0.52340842  0.41740765  0.93379965  1
  O  O452  1  0.52187735  0.75162420  0.18264518  1
  O  O453  1  0.52179756  0.74960494  0.43160820  1
  O  O454  1  0.52320509  0.74998583  0.68525861  1
  O  O455  1  0.52203413  0.75167423  0.93338864  1
  O  O456  1  0.47719369  0.24988658  0.06513573  1
  O  O457  1  0.47850633  0.25016488  0.31758247  1
  O  O458  1  0.47795896  0.24753644  0.56689789  1
  O  O459  1  0.47679664  0.24997035  0.81588902  1
  O  O460  1  0.47833320  0.58231328  0.06678422  1
  O  O461  1  0.47819868  0.58182582  0.31654732  1
  O  O462  1  0.47810789  0.58307190  0.56914939  1
  O  O463  1  0.47816191  0.58459861  0.81753874  1
  O  O464  1  0.47647512  0.91662201  0.06513574  1
  O  O465  1  0.47799226  0.91510484  0.31653312  1
  O  O466  1  0.47886367  0.91683942  0.56855126  1
  O  O467  1  0.47774670  0.91584359  0.81689740  1
  O  O468  1  0.97775229  0.24920145  0.06729344  1
  O  O469  1  0.97782837  0.25210155  0.31744283  1
  O  O470  1  0.97776986  0.25272046  0.56714477  1
  O  O471  1  0.97749629  0.25241708  0.81710369  1
  O  O472  1  0.97822101  0.58066148  0.06651071  1
  O  O473  1  0.97743742  0.58264065  0.31607350  1
  O  O474  1  0.97707808  0.58410101  0.56552282  1
  O  O475  1  0.97755609  0.58419157  0.81472305  1
  O  O476  1  0.97823538  0.91591191  0.06823555  1
  O  O477  1  0.97822076  0.91570907  0.31861656  1
  O  O478  1  0.97711573  0.91556199  0.56562102  1
  O  O479  1  0.97768840  0.91505101  0.81649075  1
  O  O480  1  0.07341801  0.31269247  0.07464649  1
  O  O481  1  0.07290744  0.31542349  0.32447713  1
  O  O482  1  0.07306354  0.31610908  0.57446007  1
  O  O483  1  0.07270210  0.31550449  0.82486764  1
  O  O484  1  0.07335056  0.64466481  0.07454505  1
  O  O485  1  0.07203719  0.64680144  0.32397584  1
  O  O486  1  0.07266504  0.64693376  0.57348256  1
  O  O487  1  0.07303563  0.64694341  0.82223767  1
  O  O488  1  0.07371550  0.97919785  0.07514411  1
  O  O489  1  0.07353636  0.97947064  0.32629171  1
  O  O490  1  0.07139591  0.98030666  0.57424783  1
  O  O491  1  0.07273665  0.97960994  0.82410775  1
  O  O492  1  0.57182539  0.31424402  0.07208496  1
  O  O493  1  0.57418128  0.31297067  0.32503399  1
  O  O494  1  0.57302556  0.31187514  0.57532435  1
  O  O495  1  0.57171118  0.31360208  0.82408576  1
  O  O496  1  0.57347047  0.64639491  0.07532387  1
  O  O497  1  0.57369708  0.64543129  0.32410380  1
  O  O498  1  0.57374623  0.64636841  0.57556158  1
  O  O499  1  0.57311521  0.64813343  0.82538335  1
  O  O500  1  0.57087052  0.98090320  0.07274663  1
  O  O501  1  0.57305326  0.97947056  0.32349693  1
  O  O502  1  0.57440497  0.97986080  0.57588250  1
  O  O503  1  0.57300284  0.97977688  0.82574707  1
  O  O504  1  0.42581940  0.02046446  0.17354047  1
  O  O505  1  0.42700038  0.02032175  0.42567602  1
  O  O506  1  0.42646464  0.02091868  0.67518349  1
  O  O507  1  0.42815038  0.01994388  0.92578897  1
  O  O508  1  0.42730824  0.35444970  0.17432962  1
  O  O509  1  0.42602913  0.35300682  0.42459033  1
  O  O510  1  0.42678094  0.35116906  0.67671326  1
  O  O511  1  0.42853098  0.35346997  0.92698103  1
  O  O512  1  0.42653941  0.68798928  0.17421435  1
  O  O513  1  0.42635908  0.68634953  0.42471222  1
  O  O514  1  0.42822620  0.68608408  0.67753947  1
  O  O515  1  0.42667336  0.68800369  0.92500980  1
  O  O516  1  0.92656070  0.01979056  0.17419102  1
  O  O517  1  0.92767208  0.01874452  0.42640213  1
  O  O518  1  0.92599609  0.02002115  0.67478154  1
  O  O519  1  0.92634279  0.02125450  0.92528764  1
  O  O520  1  0.92822172  0.35247080  0.17681233  1
  O  O521  1  0.92717425  0.35365118  0.42639078  1
  O  O522  1  0.92696637  0.35394681  0.67705104  1
  O  O523  1  0.92679433  0.35492849  0.92553162  1
  O  O524  1  0.92690150  0.68386224  0.17643170  1
  O  O525  1  0.92773590  0.68549651  0.42706821  1
  O  O526  1  0.92857222  0.68616287  0.67552320  1
  O  O527  1  0.92639666  0.68574514  0.92355235  1
  O  O528  1  0.17667997  0.01831457  0.19959318  1
  O  O529  1  0.17613068  0.01947449  0.45170046  1
  O  O530  1  0.17600521  0.02139010  0.69955422  1
  O  O531  1  0.17535882  0.02017975  0.94958939  1
  O  O532  1  0.17601768  0.35394804  0.19974591  1
  O  O533  1  0.17729098  0.35208598  0.44964831  1
  O  O534  1  0.17682559  0.35507130  0.69987189  1
  O  O535  1  0.17756543  0.35379509  0.94763413  1
  O  O536  1  0.17638409  0.68650143  0.20015463  1
  O  O537  1  0.17810417  0.68587379  0.44926265  1
  O  O538  1  0.17864598  0.68603242  0.69755418  1
  O  O539  1  0.17590070  0.68809315  0.94841652  1
  O  O540  1  0.67781468  0.01947965  0.19723904  1
  O  O541  1  0.67761942  0.01927772  0.44768686  1
  O  O542  1  0.67632655  0.01925981  0.70129205  1
  O  O543  1  0.67671060  0.02096804  0.95079185  1
  O  O544  1  0.67685162  0.35123236  0.19873059  1
  O  O545  1  0.67584425  0.35275973  0.45037090  1
  O  O546  1  0.67651818  0.35227559  0.70152638  1
  O  O547  1  0.67843979  0.35252869  0.94804250  1
  O  O548  1  0.67705622  0.68765123  0.19906251  1
  O  O549  1  0.67625276  0.68618194  0.44956332  1
  O  O550  1  0.67780763  0.68457496  0.70014228  1
  O  O551  1  0.67653396  0.68833741  0.95070506  1
  O  O552  1  0.32370767  0.31441998  0.04978867  1
  O  O553  1  0.32294906  0.31493216  0.30099034  1
  O  O554  1  0.32355901  0.31239222  0.55067735  1
  O  O555  1  0.32292714  0.31521302  0.80043734  1
  O  O556  1  0.32339363  0.64773714  0.04848507  1
  O  O557  1  0.32336604  0.64834858  0.30111390  1
  O  O558  1  0.32220049  0.64683351  0.55216655  1
  O  O559  1  0.32313979  0.64634001  0.79918275  1
  O  O560  1  0.32249757  0.98161766  0.05038026  1
  O  O561  1  0.32320864  0.97941132  0.30122799  1
  O  O562  1  0.32354765  0.97859254  0.55021478  1
  O  O563  1  0.32276750  0.97921515  0.79940964  1
  O  O564  1  0.82232875  0.31362348  0.05135885  1
  O  O565  1  0.82311142  0.31162100  0.29982906  1
  O  O566  1  0.82386138  0.31267681  0.55027115  1
  O  O567  1  0.82147405  0.31333321  0.80293974  1
  O  O568  1  0.82413112  0.64669821  0.04877675  1
  O  O569  1  0.82411111  0.64651097  0.29988623  1
  O  O570  1  0.82339281  0.64771736  0.55182581  1
  O  O571  1  0.82346439  0.64546169  0.80077809  1
  O  O572  1  0.82146271  0.98103731  0.05115343  1
  O  O573  1  0.82310386  0.98156907  0.29999655  1
  O  O574  1  0.82353529  0.98057629  0.55034157  1
  O  O575  1  0.82380103  0.97855611  0.80105517  1
  O  O576  1  0.42621452  0.14718202  0.17344779  1
  O  O577  1  0.42672535  0.14755475  0.42579779  1
  O  O578  1  0.42652666  0.14787525  0.67642986  1
  O  O579  1  0.42681743  0.14738038  0.92582315  1
  O  O580  1  0.42697360  0.48145547  0.17522449  1
  O  O581  1  0.42607447  0.47983965  0.42559946  1
  O  O582  1  0.42647280  0.47843048  0.67598746  1
  O  O583  1  0.42839551  0.48088905  0.92543667  1
  O  O584  1  0.42692932  0.81523987  0.17554730  1
  O  O585  1  0.42645632  0.81319696  0.42533615  1
  O  O586  1  0.42823453  0.81366922  0.67707306  1
  O  O587  1  0.42692164  0.81490096  0.92509069  1
  O  O588  1  0.92604879  0.14671022  0.17525866  1
  O  O589  1  0.92663726  0.14611440  0.42530827  1
  O  O590  1  0.92578030  0.14692122  0.67395338  1
  O  O591  1  0.92697065  0.14864890  0.92652294  1
  O  O592  1  0.92752043  0.47973943  0.17715744  1
  O  O593  1  0.92805769  0.48079424  0.42706588  1
  O  O594  1  0.92845214  0.48114687  0.67651823  1
  O  O595  1  0.92782228  0.48179127  0.92575198  1
  O  O596  1  0.92696172  0.81112835  0.17590403  1
  O  O597  1  0.92750245  0.81274013  0.42625700  1
  O  O598  1  0.92776994  0.81329684  0.67534650  1
  O  O599  1  0.92647406  0.81243486  0.92437822  1
  O  O600  1  0.07255621  0.18564504  0.07424251  1
  O  O601  1  0.07304246  0.18831399  0.32602144  1
  O  O602  1  0.07295768  0.18902685  0.57560234  1
  O  O603  1  0.07287657  0.18843069  0.82426325  1
  O  O604  1  0.07337430  0.51778929  0.07374076  1
  O  O605  1  0.07271290  0.51958177  0.32464761  1
  O  O606  1  0.07137391  0.51975762  0.57320948  1
  O  O607  1  0.07199078  0.51972516  0.82126981  1
  O  O608  1  0.07354470  0.85211573  0.07527363  1
  O  O609  1  0.07367165  0.85264822  0.32671163  1
  O  O610  1  0.07268913  0.85280745  0.57343089  1
  O  O611  1  0.07311728  0.85239095  0.82306698  1
  O  O612  1  0.57252639  0.18681714  0.07267429  1
  O  O613  1  0.57369497  0.18612663  0.32375196  1
  O  O614  1  0.57326670  0.18489276  0.57447586  1
  O  O615  1  0.57173669  0.18633646  0.82433999  1
  O  O616  1  0.57370265  0.51927624  0.07348199  1
  O  O617  1  0.57322117  0.51827458  0.32383286  1
  O  O618  1  0.57333862  0.51943061  0.57702384  1
  O  O619  1  0.57355111  0.52095702  0.82549407  1
  O  O620  1  0.57197060  0.85354636  0.07292042  1
  O  O621  1  0.57332780  0.85222024  0.32315939  1
  O  O622  1  0.57414327  0.85293020  0.57561310  1
  O  O623  1  0.57285076  0.85275083  0.82482978  1
  O  O624  1  0.32362967  0.18752233  0.04903702  1
  O  O625  1  0.32302171  0.18753937  0.30026655  1
  O  O626  1  0.32266273  0.18526089  0.55108432  1
  O  O627  1  0.32289106  0.18805549  0.80079336  1
  O  O628  1  0.32380900  0.52078074  0.04940293  1
  O  O629  1  0.32340005  0.52125878  0.30046616  1
  O  O630  1  0.32239351  0.51946485  0.55061253  1
  O  O631  1  0.32328642  0.51948404  0.80051548  1
  O  O632  1  0.32235709  0.85450845  0.05049635  1
  O  O633  1  0.32336993  0.85227720  0.30039818  1
  O  O634  1  0.32365461  0.85150160  0.55114565  1
  O  O635  1  0.32274610  0.85200372  0.80096189  1
  O  O636  1  0.82194476  0.18647316  0.05133893  1
  O  O637  1  0.82321665  0.18469209  0.29996311  1
  O  O638  1  0.82390368  0.18576584  0.55053866  1
  O  O639  1  0.82267549  0.18594663  0.80265344  1
  O  O640  1  0.82438798  0.51971989  0.04966954  1
  O  O641  1  0.82418174  0.51938813  0.29998174  1
  O  O642  1  0.82337183  0.52047606  0.55116669  1
  O  O643  1  0.82300337  0.51831192  0.80089063  1
  O  O644  1  0.82299096  0.85364390  0.05188497  1
  O  O645  1  0.82314417  0.85455061  0.30003859  1
  O  O646  1  0.82438281  0.85371917  0.54912491  1
  O  O647  1  0.82324165  0.85132179  0.80138002  1
  O  O648  1  0.17653484  0.14575374  0.20003495  1
  O  O649  1  0.17551601  0.14636183  0.45043105  1
  O  O650  1  0.17681063  0.14885232  0.69919658  1
  O  O651  1  0.17570106  0.14694783  0.95094543  1
  O  O652  1  0.17634601  0.48082332  0.20057298  1
  O  O653  1  0.17662401  0.47934564  0.45011312  1
  O  O654  1  0.17717143  0.48193434  0.69858852  1
  O  O655  1  0.17795201  0.48129614  0.94731484  1
  O  O656  1  0.17561599  0.81318212  0.20117553  1
  O  O657  1  0.17834211  0.81319134  0.44893725  1
  O  O658  1  0.17757627  0.81330367  0.69730202  1
  O  O659  1  0.17650094  0.81533974  0.94797375  1
  O  O660  1  0.67674571  0.14660519  0.19802351  1
  O  O661  1  0.67796401  0.14672662  0.44774233  1
  O  O662  1  0.67604615  0.14614780  0.70039484  1
  O  O663  1  0.67679142  0.14797920  0.94963248  1
  O  O664  1  0.67733386  0.47839265  0.19913630  1
  O  O665  1  0.67641942  0.47984364  0.45024546  1
  O  O666  1  0.67597259  0.47902658  0.70147724  1
  O  O667  1  0.67808306  0.47994381  0.94922996  1
  O  O668  1  0.67709361  0.81496047  0.19873735  1
  O  O669  1  0.67585538  0.81299609  0.45077859  1
  O  O670  1  0.67745353  0.81179160  0.69994712  1
  O  O671  1  0.67727098  0.81545666  0.94896321  1
