# generated using pymatgen
data_Na2MnFe(PO4)2
_symmetry_space_group_name_H-M   'P 1'
_cell_length_a   22.34224536
_cell_length_b   20.09447273
_cell_length_c   19.45103301
_cell_angle_alpha   90.00265671
_cell_angle_beta   89.97294012
_cell_angle_gamma   89.99930237
_symmetry_Int_Tables_number   1
_chemical_formula_structural   Na2MnFe(PO4)2
_chemical_formula_sum   'Na96 Mn48 Fe48 P96 O384'
_cell_volume   8732.64999284
_cell_formula_units_Z   48
loop_
 _symmetry_equiv_pos_site_id
 _symmetry_equiv_pos_as_xyz
  1  'x, y, z'
loop_
 _atom_site_type_symbol
 _atom_site_label
 _atom_site_symmetry_multiplicity
 _atom_site_fract_x
 _atom_site_fract_y
 _atom_site_fract_z
 _atom_site_occupancy
  Na  Na0  1  0.14057034  0.25039057  0.24290275  1
  Na  Na1  1  0.14008024  0.25126198  0.49281914  1
  Na  Na2  1  0.13988518  0.24973044  0.74275658  1
  Na  Na3  1  0.14047421  0.24961193  0.99383173  1
  Na  Na4  1  0.14030311  0.58337936  0.24276915  1
  Na  Na5  1  0.14064142  0.58502564  0.49301917  1
  Na  Na6  1  0.14033413  0.58408273  0.74344450  1
  Na  Na7  1  0.14012275  0.58305673  0.99424881  1
  Na  Na8  1  0.14062094  0.91729696  0.24450730  1
  Na  Na9  1  0.14018272  0.91829243  0.49372695  1
  Na  Na10  1  0.14043317  0.91659726  0.74275759  1
  Na  Na11  1  0.14023515  0.91708650  0.99410775  1
  Na  Na12  1  0.64113230  0.25055392  0.24400683  1
  Na  Na13  1  0.64086257  0.24887620  0.49368201  1
  Na  Na14  1  0.64012066  0.24858105  0.74339870  1
  Na  Na15  1  0.64068988  0.24934110  0.99444698  1
  Na  Na16  1  0.64047676  0.58181076  0.24398388  1
  Na  Na17  1  0.64044113  0.58306973  0.49324581  1
  Na  Na18  1  0.64004793  0.58472052  0.74321312  1
  Na  Na19  1  0.64042830  0.58289275  0.99338671  1
  Na  Na20  1  0.64068463  0.91690260  0.24468980  1
  Na  Na21  1  0.64043446  0.91560223  0.49471994  1
  Na  Na22  1  0.64085676  0.91586823  0.74371208  1
  Na  Na23  1  0.63999598  0.91585447  0.99279982  1
  Na  Na24  1  0.35921293  0.08177110  0.00768978  1
  Na  Na25  1  0.35972754  0.08215632  0.25612084  1
  Na  Na26  1  0.35955897  0.08348386  0.50570475  1
  Na  Na27  1  0.35944011  0.08223051  0.75712171  1
  Na  Na28  1  0.35962917  0.41604455  0.00710300  1
  Na  Na29  1  0.35960666  0.41623836  0.25531611  1
  Na  Na30  1  0.35955103  0.41842638  0.50548004  1
  Na  Na31  1  0.35965213  0.41743540  0.75599185  1
  Na  Na32  1  0.35892135  0.75056203  0.00541643  1
  Na  Na33  1  0.35905719  0.74941533  0.25609855  1
  Na  Na34  1  0.35934572  0.75127393  0.50747015  1
  Na  Na35  1  0.35965831  0.75119577  0.75612037  1
  Na  Na36  1  0.85935938  0.08333315  0.00472932  1
  Na  Na37  1  0.85976429  0.08432909  0.25744989  1
  Na  Na38  1  0.86004121  0.08216025  0.50820963  1
  Na  Na39  1  0.86018983  0.08234889  0.75587496  1
  Na  Na40  1  0.85985585  0.41668730  0.00724754  1
  Na  Na41  1  0.85979172  0.41742999  0.25693108  1
  Na  Na42  1  0.86004788  0.41639690  0.50661311  1
  Na  Na43  1  0.85976327  0.41668245  0.75615591  1
  Na  Na44  1  0.85908155  0.74903872  0.00567060  1
  Na  Na45  1  0.85942134  0.74966819  0.25719273  1
  Na  Na46  1  0.85905465  0.75052193  0.50672022  1
  Na  Na47  1  0.85934313  0.75098222  0.75570950  1
  Na  Na48  1  0.10996275  0.08436157  0.11804686  1
  Na  Na49  1  0.10979094  0.08522882  0.36883939  1
  Na  Na50  1  0.10956749  0.08367223  0.61792174  1
  Na  Na51  1  0.10980730  0.08411527  0.86797745  1
  Na  Na52  1  0.11000412  0.41654826  0.11809331  1
  Na  Na53  1  0.10982143  0.41850738  0.36813926  1
  Na  Na54  1  0.10902189  0.41574101  0.61822295  1
  Na  Na55  1  0.10935971  0.41573529  0.87026980  1
  Na  Na56  1  0.10934219  0.74949164  0.11906014  1
  Na  Na57  1  0.10959864  0.75170498  0.36945309  1
  Na  Na58  1  0.11012714  0.75091703  0.61730352  1
  Na  Na59  1  0.10956282  0.75120722  0.86809360  1
  Na  Na60  1  0.60982607  0.08273385  0.11973000  1
  Na  Na61  1  0.61009249  0.08240115  0.36932317  1
  Na  Na62  1  0.61022533  0.08322143  0.61922658  1
  Na  Na63  1  0.60949400  0.08129078  0.86827030  1
  Na  Na64  1  0.61063897  0.41647012  0.11894489  1
  Na  Na65  1  0.61044401  0.41572413  0.36750298  1
  Na  Na66  1  0.60927412  0.41780143  0.61860962  1
  Na  Na67  1  0.60932041  0.41681921  0.86933810  1
  Na  Na68  1  0.60925929  0.74943881  0.11844567  1
  Na  Na69  1  0.60961171  0.74823888  0.36905618  1
  Na  Na70  1  0.61044821  0.74973110  0.61917633  1
  Na  Na71  1  0.60980486  0.74878767  0.86716342  1
  Na  Na72  1  0.39018098  0.24927293  0.13259676  1
  Na  Na73  1  0.39030105  0.24902654  0.37967878  1
  Na  Na74  1  0.39046392  0.25064157  0.63090559  1
  Na  Na75  1  0.39073284  0.24891736  0.88178241  1
  Na  Na76  1  0.39017828  0.58242365  0.13068090  1
  Na  Na77  1  0.38989839  0.58249445  0.38071417  1
  Na  Na78  1  0.39053035  0.58513241  0.63117746  1
  Na  Na79  1  0.39024032  0.58330259  0.88008677  1
  Na  Na80  1  0.38961864  0.91726548  0.13159367  1
  Na  Na81  1  0.39006404  0.91578237  0.38146667  1
  Na  Na82  1  0.38967336  0.91653976  0.63307046  1
  Na  Na83  1  0.38940094  0.91591191  0.88165837  1
  Na  Na84  1  0.89041770  0.25142566  0.13120567  1
  Na  Na85  1  0.89096841  0.25140911  0.38228676  1
  Na  Na86  1  0.89076708  0.24886739  0.63082871  1
  Na  Na87  1  0.89066156  0.25068942  0.88014426  1
  Na  Na88  1  0.89014892  0.58194026  0.13197630  1
  Na  Na89  1  0.89014815  0.58395069  0.38237562  1
  Na  Na90  1  0.89039196  0.58248773  0.63069441  1
  Na  Na91  1  0.89032154  0.58274214  0.88145645  1
  Na  Na92  1  0.88994072  0.91637516  0.13097219  1
  Na  Na93  1  0.89051450  0.91845318  0.38328696  1
  Na  Na94  1  0.89001216  0.91774188  0.63175163  1
  Na  Na95  1  0.88966755  0.91752165  0.88064125  1
  Mn  Mn96  1  0.24962421  0.50013538  0.87458360  1
  Mn  Mn97  1  0.24988715  0.66811299  0.87484790  1
  Mn  Mn98  1  0.49939275  0.83317780  0.24975130  1
  Mn  Mn99  1  -0.00057357  0.66570984  -0.00040325  1
  Mn  Mn100  1  -0.00023168  0.16863731  0.24982874  1
  Mn  Mn101  1  0.24981512  0.66755406  0.37439798  1
  Mn  Mn102  1  0.25075331  0.16626769  0.62466944  1
  Mn  Mn103  1  -0.00084892  0.16808205  -0.00093313  1
  Mn  Mn104  1  0.50015483  0.33288449  0.24945732  1
  Mn  Mn105  1  -0.00018532  0.00080916  -0.00037236  1
  Mn  Mn106  1  0.74984109  0.33317215  0.87484480  1
  Mn  Mn107  1  0.25044350  0.16554013  0.87483282  1
  Mn  Mn108  1  0.75052417  0.16626743  0.37537722  1
  Mn  Mn109  1  0.50020156  0.16643396  0.49992474  1
  Mn  Mn110  1  -0.00005061  0.50030984  0.25063450  1
  Mn  Mn111  1  0.25014116  0.33408838  0.62368009  1
  Mn  Mn112  1  0.49936649  -0.00021751  0.50088699  1
  Mn  Mn113  1  0.74988919  0.83296259  0.12512038  1
  Mn  Mn114  1  0.49947102  0.83340282  -0.00021593  1
  Mn  Mn115  1  0.00034127  0.49841515  0.75052409  1
  Mn  Mn116  1  0.49992715  0.50069926  0.49942788  1
  Mn  Mn117  1  0.49954598  0.66545355  -0.00110948  1
  Mn  Mn118  1  0.49940831  0.66508902  0.24896050  1
  Mn  Mn119  1  0.74945665  0.50077125  0.87516276  1
  Mn  Mn120  1  0.75007197  0.16727663  0.12604607  1
  Mn  Mn121  1  -0.00025743  0.83332181  0.00012715  1
  Mn  Mn122  1  0.74965610  0.50084447  0.62511655  1
  Mn  Mn123  1  0.24964744  0.66716237  0.12485233  1
  Mn  Mn124  1  0.74915932  0.66572853  0.12547755  1
  Mn  Mn125  1  0.00023180  0.83339579  0.25063318  1
  Mn  Mn126  1  0.50022825  0.16524557  0.00095968  1
  Mn  Mn127  1  0.50019629  0.33341208  0.00036891  1
  Mn  Mn128  1  -0.00058167  0.83458787  0.74910977  1
  Mn  Mn129  1  0.25010487  0.33350299  0.37395683  1
  Mn  Mn130  1  0.74940417  0.33276524  0.62494162  1
  Mn  Mn131  1  0.25023249  0.00025763  0.37481265  1
  Mn  Mn132  1  0.49968451  -0.00050787  0.75034678  1
  Mn  Mn133  1  0.00035669  0.66627994  0.74961782  1
  Mn  Mn134  1  0.75038633  0.16558843  0.87462805  1
  Mn  Mn135  1  0.75043938  -0.00017175  0.12477409  1
  Mn  Mn136  1  0.24933465  0.50177889  0.62511382  1
  Mn  Mn137  1  -0.00020845  0.00117282  0.25068397  1
  Mn  Mn138  1  0.75014634  0.83321608  0.37585156  1
  Mn  Mn139  1  0.25013219  0.33270116  0.87541562  1
  Mn  Mn140  1  0.00009984  0.66704371  0.50030177  1
  Mn  Mn141  1  0.49995053  0.33351421  0.75040601  1
  Mn  Mn142  1  0.50041640  0.33323911  0.49986331  1
  Mn  Mn143  1  0.50031439  0.83223613  0.50033777  1
  Fe  Fe144  1  0.75044196  0.49985564  0.12539958  1
  Fe  Fe145  1  0.00022967  0.33343452  -0.00022524  1
  Fe  Fe146  1  0.75048671  0.66671973  0.87472913  1
  Fe  Fe147  1  0.00021186  0.16760636  0.50050282  1
  Fe  Fe148  1  0.50013752  0.49983499  -0.00092564  1
  Fe  Fe149  1  0.00075400  0.50026196  0.49991474  1
  Fe  Fe150  1  0.25004090  0.50049956  0.37412799  1
  Fe  Fe151  1  0.00029569  0.33374124  0.50035185  1
  Fe  Fe152  1  0.50007255  0.49937186  0.24978826  1
  Fe  Fe153  1  0.25026893  0.49966620  0.12447583  1
  Fe  Fe154  1  0.50000644  0.66667523  0.50046627  1
  Fe  Fe155  1  0.74960174  -0.00065527  0.87460643  1
  Fe  Fe156  1  0.75053205  0.33360493  0.37493864  1
  Fe  Fe157  1  0.75021347  0.49961928  0.37499775  1
  Fe  Fe158  1  0.25008467  0.83400810  0.37571839  1
  Fe  Fe159  1  0.24971589  -0.00061581  0.12546182  1
  Fe  Fe160  1  0.25008873  0.33250612  0.12528805  1
  Fe  Fe161  1  0.50053081  -0.00050585  0.25044990  1
  Fe  Fe162  1  0.24934871  0.83360502  0.12508190  1
  Fe  Fe163  1  0.75047579  0.66688364  0.62474678  1
  Fe  Fe164  1  0.24995229  0.83448832  0.62551424  1
  Fe  Fe165  1  0.24920336  -0.00058598  0.87567075  1
  Fe  Fe166  1  0.50012816  0.83286135  0.75047860  1
  Fe  Fe167  1  0.00044100  0.33457160  0.25061702  1
  Fe  Fe168  1  0.50006902  0.16623504  0.75071263  1
  Fe  Fe169  1  0.75059702  0.16546900  0.62463912  1
  Fe  Fe170  1  0.74952637  0.66629689  0.37545878  1
  Fe  Fe171  1  0.00038962  0.16721767  0.74921755  1
  Fe  Fe172  1  -0.00061467  0.83433902  0.49987553  1
  Fe  Fe173  1  0.74976911  0.83291360  0.87425700  1
  Fe  Fe174  1  0.50005506  0.66652936  0.74995935  1
  Fe  Fe175  1  0.00046877  0.00086920  0.74930578  1
  Fe  Fe176  1  0.75029308  -0.00045557  0.37606845  1
  Fe  Fe177  1  0.75012800  0.83317284  0.62531457  1
  Fe  Fe178  1  0.49986702  0.50019785  0.74929132  1
  Fe  Fe179  1  0.25002826  0.16653190  0.37413868  1
  Fe  Fe180  1  0.24994402  -0.00002869  0.62521790  1
  Fe  Fe181  1  0.24895997  0.83412997  0.87500396  1
  Fe  Fe182  1  0.75064610  0.33381302  0.12511802  1
  Fe  Fe183  1  0.75009670  -0.00090287  0.62557485  1
  Fe  Fe184  1  0.24985946  0.16583204  0.12472134  1
  Fe  Fe185  1  0.00009805  0.00127668  0.50029760  1
  Fe  Fe186  1  0.49990408  -0.00048199  0.00045495  1
  Fe  Fe187  1  0.50064093  0.16571140  0.25018043  1
  Fe  Fe188  1  0.00003022  0.49932100  0.00064729  1
  Fe  Fe189  1  -0.00049069  0.66701962  0.25062781  1
  Fe  Fe190  1  -0.00055761  0.33310245  0.74970532  1
  Fe  Fe191  1  0.25013337  0.66824791  0.62440940  1
  P  P192  1  0.04231459  0.25191799  0.10239706  1
  P  P193  1  0.04234170  0.25263918  0.35325357  1
  P  P194  1  0.04159779  0.25028163  0.60219021  1
  P  P195  1  0.04166493  0.25069183  0.85127760  1
  P  P196  1  0.04186063  0.58205435  0.10295328  1
  P  P197  1  0.04235470  0.58522917  0.35285357  1
  P  P198  1  0.04266650  0.58189054  0.60241789  1
  P  P199  1  0.04284730  0.58230714  0.85356865  1
  P  P200  1  0.04253422  0.91699576  0.10328012  1
  P  P201  1  0.04241233  0.91768048  0.35450303  1
  P  P202  1  0.04085603  0.91760674  0.60153487  1
  P  P203  1  0.04221158  0.91851637  0.85170731  1
  P  P204  1  0.54274886  0.24930983  0.10385468  1
  P  P205  1  0.54288048  0.24825421  0.35206674  1
  P  P206  1  0.54308924  0.24986833  0.60380258  1
  P  P207  1  0.54247254  0.24837195  0.85287332  1
  P  P208  1  0.54231638  0.58117811  0.10205446  1
  P  P209  1  0.54223905  0.58179080  0.35231667  1
  P  P210  1  0.54226085  0.58491489  0.60299759  1
  P  P211  1  0.54138392  0.58243631  0.85121547  1
  P  P212  1  0.54204674  0.91790476  0.10302471  1
  P  P213  1  0.54217651  0.91675534  0.35275891  1
  P  P214  1  0.54224049  0.91596550  0.60411529  1
  P  P215  1  0.54219940  0.91501639  0.85280255  1
  P  P216  1  0.45876250  0.08245588  0.14863402  1
  P  P217  1  0.45753217  0.08271885  0.39610143  1
  P  P218  1  0.45740837  0.08455851  0.64827936  1
  P  P219  1  0.45745832  0.08147583  0.89799508  1
  P  P220  1  0.45806871  0.41791936  0.14686560  1
  P  P221  1  0.45750561  0.41640791  0.39610777  1
  P  P222  1  0.45747891  0.41818114  0.64731153  1
  P  P223  1  0.45751111  0.41778420  0.89705638  1
  P  P224  1  0.45659891  0.74957524  0.14643166  1
  P  P225  1  0.45746611  0.74798616  0.39768649  1
  P  P226  1  0.45895955  0.74994360  0.64852420  1
  P  P227  1  0.45718353  0.74962651  0.89579450  1
  P  P228  1  0.95678938  0.08439859  0.14699899  1
  P  P229  1  0.95876112  0.08500256  0.39912047  1
  P  P230  1  0.95921489  0.08382240  0.64744834  1
  P  P231  1  0.95756689  0.08411180  0.89520089  1
  P  P232  1  0.95833770  0.41570694  0.14744908  1
  P  P233  1  0.95898240  0.41723697  0.39865484  1
  P  P234  1  0.95767645  0.41467187  0.64673488  1
  P  P235  1  0.95799542  0.41611943  0.89845583  1
  P  P236  1  0.95726756  0.74860308  0.14793492  1
  P  P237  1  0.95753099  0.75147548  0.39781350  1
  P  P238  1  0.95768265  0.75039119  0.64600397  1
  P  P239  1  0.95701945  0.75021171  0.89654607  1
  P  P240  1  0.20841655  0.08338602  0.22668089  1
  P  P241  1  0.20804270  0.08474919  0.47726407  1
  P  P242  1  0.20772118  0.08153571  0.72761250  1
  P  P243  1  0.20777578  0.08201319  0.97826604  1
  P  P244  1  0.20894664  0.41681144  0.22637915  1
  P  P245  1  0.20789434  0.41868343  0.47648553  1
  P  P246  1  0.20684633  0.41679135  0.72766378  1
  P  P247  1  0.20792210  0.41638497  0.97917499  1
  P  P248  1  0.20753402  0.75164405  0.22780788  1
  P  P249  1  0.20796343  0.75212605  0.47814403  1
  P  P250  1  0.20823835  0.75099466  0.72644829  1
  P  P251  1  0.20712424  0.75216353  0.97773725  1
  P  P252  1  0.70783496  0.08298083  0.22907531  1
  P  P253  1  0.70841743  0.08137221  0.47869652  1
  P  P254  1  0.70894525  0.08222437  0.72681778  1
  P  P255  1  0.70745622  0.08170932  0.97723088  1
  P  P256  1  0.70929250  0.41674426  0.22747222  1
  P  P257  1  0.70870431  0.41636305  0.47649754  1
  P  P258  1  0.70679933  0.41701932  0.72796265  1
  P  P259  1  0.70760977  0.41664424  0.97904472  1
  P  P260  1  0.70695822  0.74949386  0.22887364  1
  P  P261  1  0.70785344  0.74846084  0.47841508  1
  P  P262  1  0.70926172  0.74986397  0.72715597  1
  P  P263  1  0.70798920  0.74946976  0.97602453  1
  P  P264  1  0.29174648  0.24901974  0.02371740  1
  P  P265  1  0.29179130  0.24812129  0.27106671  1
  P  P266  1  0.29303841  0.25007876  0.52060520  1
  P  P267  1  0.29306781  0.24948581  0.77178482  1
  P  P268  1  0.29200051  0.58277024  0.02242247  1
  P  P269  1  0.29181529  0.58213916  0.27155495  1
  P  P270  1  0.29211306  0.58573687  0.52201244  1
  P  P271  1  0.29232329  0.58485407  0.77125740  1
  P  P272  1  0.29080794  0.91640817  0.02308108  1
  P  P273  1  0.29201716  0.91516575  0.27229488  1
  P  P274  1  0.29159901  0.91729592  0.52365971  1
  P  P275  1  0.29108684  0.91678997  0.77322997  1
  P  P276  1  0.79238764  0.25085645  0.02283567  1
  P  P277  1  0.79266181  0.25181888  0.27272199  1
  P  P278  1  0.79209354  0.24860560  0.52233048  1
  P  P279  1  0.79239190  0.24907074  0.77103720  1
  P  P280  1  0.79218283  0.58239991  0.02260844  1
  P  P281  1  0.79134515  0.58300391  0.27369522  1
  P  P282  1  0.79201765  0.58457087  0.52177322  1
  P  P283  1  0.79239232  0.58520736  0.77209860  1
  P  P284  1  0.79232974  0.91583899  0.02073161  1
  P  P285  1  0.79286264  0.91772280  0.27348230  1
  P  P286  1  0.79131666  0.91652132  0.52368554  1
  P  P287  1  0.79121015  0.91657939  0.77252320  1
  O  O288  1  0.03749075  0.25191711  0.18235970  1
  O  O289  1  0.03706249  0.25250290  0.43310457  1
  O  O290  1  0.03645566  0.24993825  0.68207394  1
  O  O291  1  0.03637171  0.25104875  0.93122429  1
  O  O292  1  0.03668937  0.58281746  0.18288750  1
  O  O293  1  0.03753120  0.58458095  0.43278342  1
  O  O294  1  0.03758142  0.58186399  0.68237762  1
  O  O295  1  0.03744987  0.58190885  0.93351738  1
  O  O296  1  0.03753575  0.91695986  0.18326282  1
  O  O297  1  0.03690395  0.91769138  0.43441951  1
  O  O298  1  0.03596074  0.91826772  0.68150153  1
  O  O299  1  0.03733159  0.91803195  0.93166243  1
  O  O300  1  0.53754867  0.24889411  0.18379006  1
  O  O301  1  0.53798756  0.24879113  0.43207353  1
  O  O302  1  0.53790888  0.24968870  0.68377726  1
  O  O303  1  0.53724551  0.24848610  0.93284871  1
  O  O304  1  0.53712526  0.58113331  0.18200252  1
  O  O305  1  0.53741087  0.58274368  0.43223558  1
  O  O306  1  0.53697194  0.58446414  0.68284603  1
  O  O307  1  0.53654056  0.58214443  0.93117576  1
  O  O308  1  0.53682570  0.91805448  0.18300546  1
  O  O309  1  0.53706598  0.91636633  0.43274989  1
  O  O310  1  0.53708657  0.91550526  0.68405360  1
  O  O311  1  0.53715937  0.91571616  0.93273100  1
  O  O312  1  0.46359658  0.08184679  0.06863636  1
  O  O313  1  0.46317199  0.08238514  0.31622143  1
  O  O314  1  0.46231372  0.08425550  0.56830503  1
  O  O315  1  0.46248603  0.08215136  0.81806877  1
  O  O316  1  0.46330907  0.41797910  0.06692543  1
  O  O317  1  0.46270428  0.41656965  0.31614125  1
  O  O318  1  0.46277187  0.41786281  0.56734611  1
  O  O319  1  0.46297266  0.41776702  0.81711250  1
  O  O320  1  0.46171574  0.74964482  0.06649518  1
  O  O321  1  0.46223797  0.74836034  0.31771165  1
  O  O322  1  0.46365356  0.74929938  0.56853846  1
  O  O323  1  0.46256564  0.74993566  0.81589282  1
  O  O324  1  0.96169399  0.08440192  0.06698655  1
  O  O325  1  0.96304352  0.08493896  0.31910583  1
  O  O326  1  0.96438557  0.08394748  0.56755338  1
  O  O327  1  0.96333480  0.08400027  0.81533017  1
  O  O328  1  0.96340357  0.41588721  0.06758795  1
  O  O329  1  0.96408228  0.41741339  0.31870318  1
  O  O330  1  0.96330981  0.41496383  0.56694013  1
  O  O331  1  0.96293679  0.41567357  0.81847081  1
  O  O332  1  0.96223112  0.74860546  0.06793557  1
  O  O333  1  0.96272355  0.75080416  0.31786295  1
  O  O334  1  0.96303177  0.75103130  0.56608629  1
  O  O335  1  0.96224878  0.75027827  0.81658695  1
  O  O336  1  0.21307183  0.08262718  0.05813602  1
  O  O337  1  0.21338555  0.08372390  0.30664875  1
  O  O338  1  0.21326718  0.08410416  0.55712153  1
  O  O339  1  0.21265311  0.08120239  0.80759145  1
  O  O340  1  0.21363705  0.41635365  0.05905215  1
  O  O341  1  0.21377308  0.41702652  0.30635849  1
  O  O342  1  0.21286028  0.41858841  0.55641328  1
  O  O343  1  0.21189483  0.41646241  0.80763828  1
  O  O344  1  0.21238778  0.75206509  0.05765413  1
  O  O345  1  0.21305253  0.75145587  0.30771462  1
  O  O346  1  0.21334891  0.75148433  0.55799254  1
  O  O347  1  0.21267866  0.75172911  0.80644026  1
  O  O348  1  0.71271291  0.08230999  0.05715598  1
  O  O349  1  0.71319928  0.08248456  0.30900408  1
  O  O350  1  0.71395807  0.08170336  0.55858300  1
  O  O351  1  0.71374558  0.08194355  0.80678672  1
  O  O352  1  0.71333344  0.41670719  0.05895204  1
  O  O353  1  0.71447322  0.41643444  0.30738915  1
  O  O354  1  0.71301474  0.41663555  0.55648887  1
  O  O355  1  0.71185497  0.41717741  0.80790883  1
  O  O356  1  0.71260243  0.74935925  0.05607227  1
  O  O357  1  0.71220190  0.74913669  0.30878841  1
  O  O358  1  0.71350277  0.74857124  0.55824633  1
  O  O359  1  0.71432242  0.75010134  0.80704418  1
  O  O360  1  0.28612124  0.24814366  0.19120173  1
  O  O361  1  0.28754169  0.24955376  0.44067027  1
  O  O362  1  0.28822493  0.24949197  0.69180170  1
  O  O363  1  0.28718817  0.24917924  0.94367932  1
  O  O364  1  0.28642176  0.58191800  0.19165510  1
  O  O365  1  0.28691304  0.58520919  0.44207815  1
  O  O366  1  0.28707333  0.58560249  0.69132945  1
  O  O367  1  0.28684042  0.58322909  0.94247764  1
  O  O368  1  0.28652803  0.91521791  0.19250005  1
  O  O369  1  0.28707531  0.91671223  0.44372845  1
  O  O370  1  0.28614161  0.91704184  0.69335538  1
  O  O371  1  0.28561481  0.91693585  0.94321371  1
  O  O372  1  0.78726025  0.25216660  0.19278101  1
  O  O373  1  0.78715543  0.24906431  0.44239011  1
  O  O374  1  0.78695444  0.24853412  0.69113804  1
  O  O375  1  0.78745965  0.25037654  0.94287102  1
  O  O376  1  0.78650587  0.58220960  0.19371487  1
  O  O377  1  0.78662387  0.58431269  0.44191935  1
  O  O378  1  0.78717730  0.58518719  0.69216437  1
  O  O379  1  0.78705950  0.58333538  0.94268996  1
  O  O380  1  0.78777620  0.91735956  0.19350992  1
  O  O381  1  0.78677533  0.91670527  0.44373630  1
  O  O382  1  0.78599840  0.91662255  0.69262046  1
  O  O383  1  0.78678209  0.91564750  0.94083706  1
  O  O384  1  0.22742783  0.24864491  0.05914226  1
  O  O385  1  0.22779295  0.24838381  0.30758100  1
  O  O386  1  0.22872657  0.24999942  0.55614756  1
  O  O387  1  0.22854894  0.24925796  0.80665745  1
  O  O388  1  0.22773120  0.58265527  0.05799550  1
  O  O389  1  0.22765047  0.58257445  0.30757748  1
  O  O390  1  0.22780579  0.58635442  0.55772426  1
  O  O391  1  0.22802310  0.58459305  0.80671576  1
  O  O392  1  0.22682063  0.91612119  0.05960505  1
  O  O393  1  0.22796210  0.91522806  0.30875788  1
  O  O394  1  0.22728528  0.91785554  0.55926753  1
  O  O395  1  0.22690858  0.91675198  0.80947504  1
  O  O396  1  0.72809989  0.25116425  0.05838986  1
  O  O397  1  0.72846915  0.25131188  0.30863578  1
  O  O398  1  0.72783195  0.24818934  0.55792026  1
  O  O399  1  0.72816694  0.24910928  0.80669512  1
  O  O400  1  0.72787566  0.58120610  0.05833708  1
  O  O401  1  0.72717315  0.58312110  0.30958296  1
  O  O402  1  0.72788200  0.58524055  0.55796147  1
  O  O403  1  0.72805087  0.58542787  0.80775283  1
  O  O404  1  0.72811797  0.91605117  0.05663094  1
  O  O405  1  0.72846633  0.91791872  0.30896561  1
  O  O406  1  0.72714943  0.91694153  0.55950773  1
  O  O407  1  0.72723642  0.91659593  0.80912487  1
  O  O408  1  0.27256530  0.08360587  0.19069716  1
  O  O409  1  0.27225350  0.08512466  0.44132380  1
  O  O410  1  0.27211780  0.08142200  0.69213460  1
  O  O411  1  0.27196229  0.08131372  0.94219070  1
  O  O412  1  0.27303024  0.41690706  0.19038472  1
  O  O413  1  0.27219911  0.41848627  0.44091578  1
  O  O414  1  0.27132429  0.41737010  0.69268933  1
  O  O415  1  0.27201920  0.41653644  0.94305328  1
  O  O416  1  0.27169046  0.75170865  0.19176123  1
  O  O417  1  0.27207755  0.75199132  0.44186586  1
  O  O418  1  0.27254751  0.75041387  0.69083205  1
  O  O419  1  0.27138768  0.75263255  0.94189695  1
  O  O420  1  0.77210786  0.08336076  0.19354880  1
  O  O421  1  0.77258350  0.08137395  0.44250759  1
  O  O422  1  0.77312109  0.08191274  0.69084214  1
  O  O423  1  0.77178432  0.08102347  0.94157855  1
  O  O424  1  0.77327040  0.41714228  0.19087379  1
  O  O425  1  0.77309050  0.41613453  0.44119489  1
  O  O426  1  0.77123577  0.41679515  0.69295386  1
  O  O427  1  0.77175371  0.41690786  0.94304466  1
  O  O428  1  0.77128892  0.74940266  0.19345302  1
  O  O429  1  0.77191845  0.74826682  0.44204169  1
  O  O430  1  0.77317913  0.74949258  0.69058897  1
  O  O431  1  0.77229199  0.74959842  0.94037092  1
  O  O432  1  0.02130118  0.08457610  0.18186896  1
  O  O433  1  0.02311302  0.08489481  0.43428269  1
  O  O434  1  0.02318431  0.08384064  0.68388783  1
  O  O435  1  0.02163593  0.08452465  0.93130622  1
  O  O436  1  0.02254736  0.41583453  0.18342114  1
  O  O437  1  0.02315255  0.41715448  0.43457058  1
  O  O438  1  0.02179668  0.41417393  0.68299058  1
  O  O439  1  0.02219467  0.41640623  0.93448664  1
  O  O440  1  0.02168132  0.74842611  0.18326202  1
  O  O441  1  0.02178547  0.75211787  0.43348318  1
  O  O442  1  0.02194941  0.75075550  0.68144921  1
  O  O443  1  0.02140179  0.74980204  0.93168483  1
  O  O444  1  0.52297185  0.08265937  0.18446915  1
  O  O445  1  0.52172090  0.08243736  0.43195083  1
  O  O446  1  0.52182055  0.08440542  0.68357513  1
  O  O447  1  0.52188633  0.08095511  0.93330721  1
  O  O448  1  0.52229017  0.41775833  0.18269311  1
  O  O449  1  0.52187645  0.41663263  0.43137914  1
  O  O450  1  0.52177482  0.41816575  0.68291101  1
  O  O451  1  0.52179946  0.41782233  0.93284590  1
  O  O452  1  0.52100512  0.74938456  0.18144380  1
  O  O453  1  0.52195427  0.74782414  0.43286239  1
  O  O454  1  0.52312473  0.75056726  0.68433088  1
  O  O455  1  0.52140891  0.74953253  0.93146657  1
  O  O456  1  0.47842665  0.24949210  0.06855721  1
  O  O457  1  0.47855846  0.24789574  0.31665426  1
  O  O458  1  0.47871926  0.25008451  0.56851201  1
  O  O459  1  0.47817145  0.24840239  0.81728716  1
  O  O460  1  0.47798815  0.58115062  0.06642802  1
  O  O461  1  0.47784306  0.58098772  0.31686165  1
  O  O462  1  0.47804400  0.58512593  0.56700358  1
  O  O463  1  0.47724634  0.58220237  0.81532203  1
  O  O464  1  0.47771698  0.91796466  0.06739965  1
  O  O465  1  0.47784497  0.91725097  0.31734768  1
  O  O466  1  0.47790156  0.91570312  0.56882449  1
  O  O467  1  0.47785212  0.91480639  0.81733917  1
  O  O468  1  0.97791483  0.25233253  0.06696764  1
  O  O469  1  0.97811948  0.25302145  0.31726452  1
  O  O470  1  0.97756908  0.25068400  0.56587408  1
  O  O471  1  0.97758046  0.25033871  0.81500900  1
  O  O472  1  0.97763470  0.58136304  0.06716126  1
  O  O473  1  0.97791357  0.58515771  0.31755919  1
  O  O474  1  0.97836028  0.58180566  0.56694922  1
  O  O475  1  0.97853498  0.58248792  0.81818761  1
  O  O476  1  0.97810309  0.91703043  0.06822011  1
  O  O477  1  0.97820063  0.91744886  0.31879657  1
  O  O478  1  0.97670593  0.91711879  0.56569084  1
  O  O479  1  0.97780810  0.91898379  0.81643116  1
  O  O480  1  0.07346144  0.31497538  0.07344482  1
  O  O481  1  0.07340461  0.31587559  0.32428259  1
  O  O482  1  0.07298063  0.31359246  0.57385494  1
  O  O483  1  0.07251188  0.31427298  0.82299472  1
  O  O484  1  0.07297257  0.64553090  0.07471716  1
  O  O485  1  0.07259857  0.64908588  0.32434600  1
  O  O486  1  0.07367244  0.64565169  0.57490813  1
  O  O487  1  0.07383128  0.64601661  0.82555877  1
  O  O488  1  0.07350321  0.98049916  0.07517357  1
  O  O489  1  0.07347431  0.98123794  0.32619564  1
  O  O490  1  0.07143948  0.98136625  0.57295060  1
  O  O491  1  0.07312551  0.98191846  0.82318906  1
  O  O492  1  0.57372032  0.31295782  0.07588534  1
  O  O493  1  0.57372534  0.31198179  0.32411345  1
  O  O494  1  0.57402252  0.31349186  0.57552620  1
  O  O495  1  0.57366014  0.31202879  0.82538592  1
  O  O496  1  0.57305573  0.64517378  0.07425630  1
  O  O497  1  0.57304136  0.64525870  0.32366497  1
  O  O498  1  0.57295660  0.64843115  0.57418853  1
  O  O499  1  0.57155613  0.64670934  0.82317643  1
  O  O500  1  0.57295273  0.98113065  0.07404826  1
  O  O501  1  0.57318296  0.98020013  0.32451417  1
  O  O502  1  0.57287234  0.97986536  0.57627693  1
  O  O503  1  0.57346105  0.97835744  0.82451538  1
  O  O504  1  0.42778268  0.01906769  0.17727834  1
  O  O505  1  0.42598778  0.01961427  0.42485993  1
  O  O506  1  0.42628212  0.02087701  0.67595608  1
  O  O507  1  0.42679434  0.01782891  0.92647212  1
  O  O508  1  0.42697536  0.35406854  0.17433259  1
  O  O509  1  0.42677687  0.35261462  0.42411643  1
  O  O510  1  0.42628800  0.35468901  0.67526330  1
  O  O511  1  0.42669522  0.35387434  0.92489647  1
  O  O512  1  0.42548953  0.68605173  0.17436784  1
  O  O513  1  0.42691224  0.68443115  0.42624251  1
  O  O514  1  0.42851782  0.68624572  0.67734665  1
  O  O515  1  0.42599099  0.68608413  0.92388630  1
  O  O516  1  0.92585967  0.02092904  0.17532345  1
  O  O517  1  0.92803548  0.02132898  0.42762672  1
  O  O518  1  0.92822428  0.02014464  0.67565620  1
  O  O519  1  0.92646019  0.02071575  0.92365816  1
  O  O520  1  0.92766628  0.35233254  0.17660043  1
  O  O521  1  0.92766352  0.35392462  0.42672581  1
  O  O522  1  0.92639722  0.35149035  0.67544822  1
  O  O523  1  0.92717072  0.35253268  0.92683082  1
  O  O524  1  0.92668501  0.68500095  0.17660890  1
  O  O525  1  0.92654481  0.68792482  0.42595202  1
  O  O526  1  0.92719327  0.68634726  0.67365234  1
  O  O527  1  0.92569876  0.68684529  0.92453346  1
  O  O528  1  0.17828859  0.01908852  0.19875135  1
  O  O529  1  0.17707926  0.02118142  0.44905781  1
  O  O530  1  0.17681862  0.01839940  0.69839854  1
  O  O531  1  0.17649546  0.01876674  0.94977185  1
  O  O532  1  0.17871684  0.35257345  0.19835694  1
  O  O533  1  0.17672543  0.35510719  0.44873359  1
  O  O534  1  0.17625769  0.35324033  0.69901335  1
  O  O535  1  0.17680318  0.35281541  0.95100688  1
  O  O536  1  0.17670487  0.68774361  0.19997922  1
  O  O537  1  0.17638108  0.68897813  0.44962078  1
  O  O538  1  0.17713985  0.68743802  0.69842420  1
  O  O539  1  0.17652720  0.68814775  0.94997220  1
  O  O540  1  0.67656980  0.01986919  0.20046271  1
  O  O541  1  0.67761276  0.01779708  0.45018895  1
  O  O542  1  0.67745603  0.01894664  0.69868728  1
  O  O543  1  0.67643491  0.01835620  0.94883804  1
  O  O544  1  0.67854342  0.35306014  0.19892435  1
  O  O545  1  0.67782101  0.35270478  0.44841327  1
  O  O546  1  0.67559832  0.35361198  0.70002156  1
  O  O547  1  0.67642928  0.35314808  0.95085711  1
  O  O548  1  0.67556203  0.68636950  0.20026016  1
  O  O549  1  0.67677334  0.68526832  0.44946179  1
  O  O550  1  0.67791027  0.68654589  0.69883802  1
  O  O551  1  0.67748783  0.68556350  0.94787531  1
  O  O552  1  0.32198237  0.31299625  0.05216621  1
  O  O553  1  0.32325394  0.31172915  0.29863496  1
  O  O554  1  0.32373194  0.31407602  0.54824969  1
  O  O555  1  0.32397040  0.31298732  0.80001630  1
  O  O556  1  0.32302171  0.64648422  0.05021129  1
  O  O557  1  0.32313524  0.64578759  0.29907713  1
  O  O558  1  0.32293987  0.64927433  0.55045619  1
  O  O559  1  0.32349600  0.64800835  0.79999941  1
  O  O560  1  0.32133967  0.98009429  0.05216925  1
  O  O561  1  0.32309515  0.97888692  0.30021623  1
  O  O562  1  0.32255974  0.98098908  0.55167097  1
  O  O563  1  0.32200327  0.98021112  0.80205787  1
  O  O564  1  0.82315585  0.31443238  0.05118935  1
  O  O565  1  0.82333396  0.31522304  0.30166503  1
  O  O566  1  0.82321705  0.31212666  0.55029733  1
  O  O567  1  0.82327338  0.31286032  0.79883672  1
  O  O568  1  0.82271952  0.64611932  0.05108524  1
  O  O569  1  0.82206575  0.64688428  0.30148626  1
  O  O570  1  0.82350704  0.64759834  0.55048115  1
  O  O571  1  0.82348298  0.64839203  0.80083844  1
  O  O572  1  0.82378626  0.97919265  0.04886201  1
  O  O573  1  0.82359634  0.98125789  0.30193213  1
  O  O574  1  0.82290448  0.97955688  0.55219852  1
  O  O575  1  0.82219392  0.98015453  0.80085020  1
  O  O576  1  0.42822873  0.14653304  0.17637597  1
  O  O577  1  0.42657491  0.14634757  0.42420341  1
  O  O578  1  0.42695065  0.14816299  0.67688553  1
  O  O579  1  0.42643504  0.14493956  0.92641191  1
  O  O580  1  0.42718387  0.48116042  0.17577405  1
  O  O581  1  0.42604252  0.47953576  0.42454330  1
  O  O582  1  0.42683472  0.48194313  0.67531154  1
  O  O583  1  0.42650621  0.48109751  0.92557042  1
  O  O584  1  0.42571835  0.81306755  0.17474435  1
  O  O585  1  0.42665158  0.81170167  0.42583215  1
  O  O586  1  0.42777100  0.81357868  0.67639686  1
  O  O587  1  0.42586547  0.81281348  0.92449533  1
  O  O588  1  0.92590680  0.14795056  0.17527651  1
  O  O589  1  0.92812550  0.14875432  0.42738024  1
  O  O590  1  0.92825511  0.14739911  0.67583744  1
  O  O591  1  0.92601122  0.14743244  0.92335532  1
  O  O592  1  0.92702993  0.47913453  0.17582503  1
  O  O593  1  0.92860699  0.48129689  0.42685835  1
  O  O594  1  0.92678626  0.47840706  0.67494887  1
  O  O595  1  0.92740304  0.47999673  0.92658206  1
  O  O596  1  0.92632288  0.81233257  0.17569122  1
  O  O597  1  0.92658957  0.81506181  0.42608357  1
  O  O598  1  0.92593990  0.81340293  0.67434435  1
  O  O599  1  0.92636488  0.81392711  0.92466930  1
  O  O600  1  0.07277222  0.18797425  0.07421026  1
  O  O601  1  0.07314431  0.18888791  0.32498716  1
  O  O602  1  0.07221489  0.18650540  0.57348473  1
  O  O603  1  0.07261565  0.18694600  0.82330088  1
  O  O604  1  0.07267895  0.51841598  0.07472753  1
  O  O605  1  0.07365527  0.52194294  0.32445703  1
  O  O606  1  0.07333580  0.51836138  0.57386921  1
  O  O607  1  0.07411643  0.51905551  0.82519683  1
  O  O608  1  0.07331568  0.85333697  0.07512464  1
  O  O609  1  0.07382931  0.85445569  0.32607919  1
  O  O610  1  0.07194723  0.85393589  0.57375312  1
  O  O611  1  0.07297379  0.85475339  0.82360222  1
  O  O612  1  0.57403744  0.18605545  0.07545638  1
  O  O613  1  0.57373695  0.18467347  0.32396672  1
  O  O614  1  0.57421587  0.18654942  0.57536197  1
  O  O615  1  0.57296123  0.18460581  0.82447661  1
  O  O616  1  0.57337954  0.51807308  0.07315495  1
  O  O617  1  0.57304879  0.51812428  0.32407891  1
  O  O618  1  0.57348813  0.52144475  0.57466176  1
  O  O619  1  0.57286083  0.51933793  0.82272053  1
  O  O620  1  0.57292948  0.85399083  0.07538960  1
  O  O621  1  0.57296918  0.85294974  0.32487361  1
  O  O622  1  0.57380688  0.85298517  0.57550964  1
  O  O623  1  0.57283212  0.85134858  0.82436112  1
  O  O624  1  0.32296688  0.18552605  0.05159266  1
  O  O625  1  0.32259450  0.18467207  0.29973858  1
  O  O626  1  0.32463155  0.18714893  0.54924207  1
  O  O627  1  0.32402646  0.18601708  0.80013808  1
  O  O628  1  0.32282821  0.51921624  0.05063799  1
  O  O629  1  0.32250268  0.51869426  0.30038281  1
  O  O630  1  0.32309278  0.52213927  0.55008866  1
  O  O631  1  0.32326687  0.52105690  0.79888007  1
  O  O632  1  0.32216054  0.85294133  0.05102801  1
  O  O633  1  0.32304094  0.85193025  0.30123299  1
  O  O634  1  0.32206826  0.85372415  0.55281376  1
  O  O635  1  0.32189071  0.85306400  0.80150210  1
  O  O636  1  0.82333014  0.18716351  0.05076505  1
  O  O637  1  0.82402034  0.18816982  0.30015982  1
  O  O638  1  0.82269616  0.18488215  0.55086325  1
  O  O639  1  0.82379025  0.18593320  0.79944776  1
  O  O640  1  0.82342092  0.51908211  0.05091935  1
  O  O641  1  0.82223179  0.51951313  0.30253025  1
  O  O642  1  0.82267303  0.52065698  0.54991259  1
  O  O643  1  0.82318198  0.52130506  0.79991103  1
  O  O644  1  0.82336752  0.85245347  0.04953146  1
  O  O645  1  0.82377503  0.85405099  0.30141658  1
  O  O646  1  0.82132777  0.85230548  0.55195477  1
  O  O647  1  0.82209666  0.85288209  0.80071334  1
  O  O648  1  0.17683380  0.14644724  0.19823048  1
  O  O649  1  0.17715727  0.14824893  0.44885659  1
  O  O650  1  0.17700584  0.14547575  0.69993905  1
  O  O651  1  0.17694806  0.14568212  0.94976332  1
  O  O652  1  0.17760343  0.48010042  0.19810590  1
  O  O653  1  0.17741842  0.48239638  0.44806646  1
  O  O654  1  0.17554045  0.48025547  0.69990795  1
  O  O655  1  0.17647459  0.47965588  0.95096429  1
  O  O656  1  0.17631460  0.81481648  0.19938786  1
  O  O657  1  0.17740420  0.81593735  0.44989705  1
  O  O658  1  0.17793008  0.81476273  0.69743309  1
  O  O659  1  0.17590935  0.81522360  0.94886923  1
  O  O660  1  0.67689088  0.14678105  0.20135606  1
  O  O661  1  0.67704241  0.14478197  0.45056543  1
  O  O662  1  0.67876911  0.14629214  0.69849154  1
  O  O663  1  0.67678127  0.14556389  0.94935721  1
  O  O664  1  0.67812131  0.48028728  0.19934667  1
  O  O665  1  0.67832427  0.48019717  0.44794618  1
  O  O666  1  0.67607863  0.48063878  0.69968237  1
  O  O667  1  0.67614219  0.47985867  0.95060320  1
  O  O668  1  0.67618867  0.81323384  0.20077780  1
  O  O669  1  0.67673194  0.81223996  0.45076665  1
  O  O670  1  0.67876364  0.81376874  0.69856587  1
  O  O671  1  0.67709515  0.81302333  0.94775834  1
