# generated using pymatgen
data_Na2MnFe(PO4)2
_symmetry_space_group_name_H-M   'P 1'
_cell_length_a   22.34329615
_cell_length_b   20.09322108
_cell_length_c   19.45053690
_cell_angle_alpha   90.01739358
_cell_angle_beta   89.98943455
_cell_angle_gamma   90.03077104
_symmetry_Int_Tables_number   1
_chemical_formula_structural   Na2MnFe(PO4)2
_chemical_formula_sum   'Na96 Mn48 Fe48 P96 O384'
_cell_volume   8732.29318127
_cell_formula_units_Z   48
loop_
 _symmetry_equiv_pos_site_id
 _symmetry_equiv_pos_as_xyz
  1  'x, y, z'
loop_
 _atom_site_type_symbol
 _atom_site_label
 _atom_site_symmetry_multiplicity
 _atom_site_fract_x
 _atom_site_fract_y
 _atom_site_fract_z
 _atom_site_occupancy
  Na  Na0  1  0.14101934  0.25165328  0.24510520  1
  Na  Na1  1  0.14070773  0.25029589  0.49356678  1
  Na  Na2  1  0.14125812  0.25025810  0.74305070  1
  Na  Na3  1  0.14111014  0.25112698  0.99442049  1
  Na  Na4  1  0.14096204  0.58292693  0.24292023  1
  Na  Na5  1  0.14077628  0.58254879  0.49370649  1
  Na  Na6  1  0.14090565  0.58409629  0.74309834  1
  Na  Na7  1  0.14079036  0.58464497  0.99472427  1
  Na  Na8  1  0.14050915  0.91692601  0.24458918  1
  Na  Na9  1  0.14072323  0.91593967  0.49474533  1
  Na  Na10  1  0.14074517  0.91653759  0.74427166  1
  Na  Na11  1  0.14031970  0.91755756  0.99353345  1
  Na  Na12  1  0.64030407  0.24996086  0.24273600  1
  Na  Na13  1  0.64008280  0.24960391  0.49311550  1
  Na  Na14  1  0.64027434  0.24893746  0.74346649  1
  Na  Na15  1  0.63995173  0.25069550  0.99202741  1
  Na  Na16  1  0.64028502  0.58257896  0.24343590  1
  Na  Na17  1  0.64023345  0.58201079  0.49355961  1
  Na  Na18  1  0.63987659  0.58105413  0.74336820  1
  Na  Na19  1  0.64003663  0.58270877  0.99358523  1
  Na  Na20  1  0.63948815  0.91639267  0.24297878  1
  Na  Na21  1  0.63978045  0.91648221  0.49332326  1
  Na  Na22  1  0.63969494  0.91681854  0.74409851  1
  Na  Na23  1  0.63952843  0.91793600  0.99380798  1
  Na  Na24  1  0.36030041  0.08400330  0.00752266  1
  Na  Na25  1  0.36040671  0.08422967  0.25717338  1
  Na  Na26  1  0.36000577  0.08320080  0.50749462  1
  Na  Na27  1  0.36021601  0.08293940  0.75771352  1
  Na  Na28  1  0.35974956  0.41727463  0.00709504  1
  Na  Na29  1  0.36007003  0.41714487  0.25609696  1
  Na  Na30  1  0.35950173  0.41539516  0.50635926  1
  Na  Na31  1  0.35980834  0.41579659  0.75556021  1
  Na  Na32  1  0.35966633  0.75011200  0.00823056  1
  Na  Na33  1  0.35986728  0.75059658  0.25650783  1
  Na  Na34  1  0.36017494  0.74886417  0.50659262  1
  Na  Na35  1  0.35998834  0.75012433  0.75635341  1
  Na  Na36  1  0.85975156  0.08389124  0.00562678  1
  Na  Na37  1  0.85926248  0.08375957  0.25584508  1
  Na  Na38  1  0.85897440  0.08415481  0.50594694  1
  Na  Na39  1  0.85933214  0.08372170  0.75542228  1
  Na  Na40  1  0.85895976  0.41767716  0.00504286  1
  Na  Na41  1  0.85946377  0.41744090  0.25597695  1
  Na  Na42  1  0.85942927  0.41632373  0.50521263  1
  Na  Na43  1  0.85902173  0.41591251  0.75480631  1
  Na  Na44  1  0.85895390  0.74982719  0.00617604  1
  Na  Na45  1  0.85867040  0.74959238  0.25673937  1
  Na  Na46  1  0.85984281  0.74973909  0.50730150  1
  Na  Na47  1  0.85971081  0.74917172  0.75596620  1
  Na  Na48  1  0.10981187  0.08386262  0.11953078  1
  Na  Na49  1  0.11001873  0.08354420  0.37036580  1
  Na  Na50  1  0.11001707  0.08362125  0.61836433  1
  Na  Na51  1  0.10995412  0.08285759  0.86887224  1
  Na  Na52  1  0.11062711  0.41802959  0.11946719  1
  Na  Na53  1  0.11071826  0.41667993  0.36867967  1
  Na  Na54  1  0.11049180  0.41677673  0.61679989  1
  Na  Na55  1  0.11015948  0.41782409  0.86869774  1
  Na  Na56  1  0.10998550  0.75132421  0.11853039  1
  Na  Na57  1  0.10948117  0.74928457  0.36975776  1
  Na  Na58  1  0.10971170  0.75055063  0.61984588  1
  Na  Na59  1  0.10991377  0.75094218  0.86908767  1
  Na  Na60  1  0.60911500  0.08322988  0.11844214  1
  Na  Na61  1  0.60920837  0.08202800  0.36788365  1
  Na  Na62  1  0.60939247  0.08160957  0.61859882  1
  Na  Na63  1  0.60946481  0.08321997  0.86901237  1
  Na  Na64  1  0.60965390  0.41749216  0.11738692  1
  Na  Na65  1  0.61012405  0.41589689  0.36768449  1
  Na  Na66  1  0.61011733  0.41624078  0.61767315  1
  Na  Na67  1  0.60966426  0.41496561  0.86734804  1
  Na  Na68  1  0.60903668  0.75104044  0.11804364  1
  Na  Na69  1  0.60899915  0.74975482  0.36882792  1
  Na  Na70  1  0.60902749  0.74969013  0.61860470  1
  Na  Na71  1  0.60880731  0.74960387  0.87009552  1
  Na  Na72  1  0.39094893  0.25043857  0.13137781  1
  Na  Na73  1  0.39056459  0.24973386  0.38165369  1
  Na  Na74  1  0.39009089  0.24850725  0.63242558  1
  Na  Na75  1  0.39049560  0.24816202  0.88192406  1
  Na  Na76  1  0.39002622  0.58446853  0.13261478  1
  Na  Na77  1  0.39029024  0.58281729  0.38085207  1
  Na  Na78  1  0.39056279  0.58282846  0.63086032  1
  Na  Na79  1  0.39068327  0.58251642  0.88204163  1
  Na  Na80  1  0.39038965  0.91738933  0.13194462  1
  Na  Na81  1  0.39039442  0.91684247  0.38162220  1
  Na  Na82  1  0.39058851  0.91614009  0.63209071  1
  Na  Na83  1  0.39081041  0.91649891  0.88302213  1
  Na  Na84  1  0.89039089  0.25115868  0.13012979  1
  Na  Na85  1  0.89033006  0.25078527  0.38122568  1
  Na  Na86  1  0.88982834  0.25072831  0.62988051  1
  Na  Na87  1  0.89007237  0.24967762  0.88072302  1
  Na  Na88  1  0.88919985  0.58346255  0.13176971  1
  Na  Na89  1  0.89023730  0.58235506  0.38106496  1
  Na  Na90  1  0.89028630  0.58387949  0.63066823  1
  Na  Na91  1  0.88997120  0.58363095  0.88012870  1
  Na  Na92  1  0.88989643  0.91803266  0.13108472  1
  Na  Na93  1  0.88988820  0.91699348  0.38203072  1
  Na  Na94  1  0.89020392  0.91622552  0.63051103  1
  Na  Na95  1  0.89039502  0.91639351  0.88031539  1
  Mn  Mn96  1  0.25087442  -0.00054904  0.62660874  1
  Mn  Mn97  1  -0.00042022  -0.00078579  0.74860402  1
  Mn  Mn98  1  0.49936721  0.83343709  0.75055147  1
  Mn  Mn99  1  -0.00039672  0.66732400  0.00006350  1
  Mn  Mn100  1  0.00004421  0.33428335  0.00018260  1
  Mn  Mn101  1  0.25066107  0.00050766  0.87539495  1
  Mn  Mn102  1  0.00010067  0.50108188  -0.00066101  1
  Mn  Mn103  1  0.00076420  0.33355921  0.74928128  1
  Mn  Mn104  1  0.50005263  0.33198600  0.49970314  1
  Mn  Mn105  1  -0.00028685  0.00050233  0.25102542  1
  Mn  Mn106  1  0.74927245  0.83353579  0.62522481  1
  Mn  Mn107  1  0.74914417  0.66490938  0.62573972  1
  Mn  Mn108  1  0.25044775  0.66627789  0.62498102  1
  Mn  Mn109  1  0.49935994  0.66575083  0.74990878  1
  Mn  Mn110  1  0.74957018  0.83345859  0.87538366  1
  Mn  Mn111  1  -0.00008769  0.50132657  0.74869510  1
  Mn  Mn112  1  0.74964427  0.66533837  0.37566484  1
  Mn  Mn113  1  0.74998905  0.33433606  0.12346949  1
  Mn  Mn114  1  0.00017035  0.16671123  0.74985690  1
  Mn  Mn115  1  0.74905115  0.66519794  0.87531013  1
  Mn  Mn116  1  0.00091385  0.33437578  0.25041705  1
  Mn  Mn117  1  0.24994509  0.16826428  0.12666008  1
  Mn  Mn118  1  0.75044021  0.16691054  0.12446391  1
  Mn  Mn119  1  -0.00001052  0.83358061  0.25011233  1
  Mn  Mn120  1  0.25029721  0.50029113  0.87527053  1
  Mn  Mn121  1  0.25051434  0.16698473  0.37570001  1
  Mn  Mn122  1  0.00057369  0.50055130  0.50020857  1
  Mn  Mn123  1  0.50019248  0.33194474  0.74959657  1
  Mn  Mn124  1  0.24995774  0.66573809  0.37541575  1
  Mn  Mn125  1  -0.00049849  0.66651369  0.25004948  1
  Mn  Mn126  1  0.74955149  0.16674576  0.62391017  1
  Mn  Mn127  1  0.49992619  0.66726745  0.25003296  1
  Mn  Mn128  1  0.00094323  0.16624261  0.00025891  1
  Mn  Mn129  1  0.74941252  0.16681534  0.37421800  1
  Mn  Mn130  1  0.74983478  0.83375726  0.12554854  1
  Mn  Mn131  1  0.00016853  -0.00005854  0.50030133  1
  Mn  Mn132  1  -0.00120102  0.83448136  -0.00056327  1
  Mn  Mn133  1  0.49985767  0.49973437  -0.00033603  1
  Mn  Mn134  1  0.49968213  0.50012662  0.49933360  1
  Mn  Mn135  1  0.00012664  0.16732198  0.24996570  1
  Mn  Mn136  1  0.25000277  0.33307110  0.87517168  1
  Mn  Mn137  1  0.24937638  0.00045156  0.12526877  1
  Mn  Mn138  1  0.24973187  0.83352878  0.37529779  1
  Mn  Mn139  1  0.74933804  0.83372308  0.37531981  1
  Mn  Mn140  1  0.50041318  0.33271083  0.24968879  1
  Mn  Mn141  1  0.75039072  0.00106769  0.87431807  1
  Mn  Mn142  1  0.49948794  -0.00037684  0.49997992  1
  Mn  Mn143  1  0.25094059  0.66775569  0.87484538  1
  Fe  Fe144  1  0.50052002  0.16640798  0.24953294  1
  Fe  Fe145  1  0.25045776  0.50027894  0.12544391  1
  Fe  Fe146  1  0.25040211  -0.00002927  0.37598481  1
  Fe  Fe147  1  0.74940221  0.00051586  0.12439139  1
  Fe  Fe148  1  0.74985096  0.33350681  0.87404778  1
  Fe  Fe149  1  0.00046557  0.50024003  0.25071624  1
  Fe  Fe150  1  0.49979520  0.83381768  0.00017051  1
  Fe  Fe151  1  0.49993104  0.16552099  0.50030862  1
  Fe  Fe152  1  0.50009102  0.50009987  0.24949177  1
  Fe  Fe153  1  0.50010058  0.16543469  0.75107531  1
  Fe  Fe154  1  0.25014426  0.33301247  0.62488440  1
  Fe  Fe155  1  -0.00039413  0.16721153  0.49962474  1
  Fe  Fe156  1  0.25063363  0.83316420  0.62522349  1
  Fe  Fe157  1  0.50031181  0.66650429  0.49978202  1
  Fe  Fe158  1  0.24991349  0.16622878  0.62513045  1
  Fe  Fe159  1  0.25036140  0.49926567  0.37416828  1
  Fe  Fe160  1  0.00045584  0.66700246  0.50021016  1
  Fe  Fe161  1  0.25060336  0.49931629  0.62452022  1
  Fe  Fe162  1  0.49965563  0.33275455  -0.00031292  1
  Fe  Fe163  1  0.74958017  0.33310637  0.62452025  1
  Fe  Fe164  1  0.49984420  0.83322257  0.49996607  1
  Fe  Fe165  1  0.49959718  0.66665241  0.00071698  1
  Fe  Fe166  1  0.50038270  -0.00024822  0.75088320  1
  Fe  Fe167  1  0.25038091  0.16716212  0.87552428  1
  Fe  Fe168  1  0.74996179  0.49832524  0.62419334  1
  Fe  Fe169  1  0.74928650  0.49986405  0.12471213  1
  Fe  Fe170  1  0.25030104  0.83386841  0.12561964  1
  Fe  Fe171  1  0.49961675  0.00024396  0.00088902  1
  Fe  Fe172  1  0.74932051  0.66597209  0.12518544  1
  Fe  Fe173  1  0.25074525  0.33433900  0.12520069  1
  Fe  Fe174  1  -0.00017578  0.83298027  0.75005617  1
  Fe  Fe175  1  0.74954267  0.16713747  0.87430015  1
  Fe  Fe176  1  0.74989296  0.00009435  0.62492014  1
  Fe  Fe177  1  0.24995582  0.66719204  0.12510465  1
  Fe  Fe178  1  0.25073529  0.33380521  0.37548190  1
  Fe  Fe179  1  0.00010187  0.83271721  0.50081568  1
  Fe  Fe180  1  -0.00015020  -0.00001876  -0.00049668  1
  Fe  Fe181  1  0.00005271  0.66758740  0.74982057  1
  Fe  Fe182  1  0.50039560  0.16602543  0.00022953  1
  Fe  Fe183  1  0.00012214  0.33356713  0.49928420  1
  Fe  Fe184  1  0.50020602  0.49915033  0.75007213  1
  Fe  Fe185  1  0.25039489  0.83354607  0.87579968  1
  Fe  Fe186  1  0.74996481  0.49934134  0.37447000  1
  Fe  Fe187  1  0.74975556  0.49929569  0.87437880  1
  Fe  Fe188  1  0.74961550  0.00011305  0.37452759  1
  Fe  Fe189  1  0.49945002  -0.00022809  0.25011185  1
  Fe  Fe190  1  0.49965232  0.83344535  0.24967138  1
  Fe  Fe191  1  0.74970524  0.33380875  0.37404566  1
  P  P192  1  0.04350998  0.25081018  0.10332466  1
  P  P193  1  0.04294672  0.25034537  0.35435373  1
  P  P194  1  0.04165521  0.25026546  0.60097903  1
  P  P195  1  0.04350847  0.25009083  0.85296693  1
  P  P196  1  0.04262547  0.58370403  0.10370073  1
  P  P197  1  0.04274953  0.58270578  0.35295137  1
  P  P198  1  0.04268983  0.58581726  0.60276845  1
  P  P199  1  0.04270612  0.58531523  0.85178032  1
  P  P200  1  0.04232131  0.91835504  0.10228977  1
  P  P201  1  0.04265246  0.91616263  0.35428570  1
  P  P202  1  0.04228044  0.91493784  0.60295936  1
  P  P203  1  0.04212819  0.91588507  0.85220865  1
  P  P204  1  0.54150013  0.24975710  0.10139352  1
  P  P205  1  0.54249228  0.24785027  0.35236260  1
  P  P206  1  0.54188648  0.24733006  0.60280870  1
  P  P207  1  0.54196687  0.24807572  0.85317684  1
  P  P208  1  0.54166787  0.58447392  0.10275835  1
  P  P209  1  0.54196599  0.58251784  0.35237051  1
  P  P210  1  0.54222410  0.58399094  0.60242448  1
  P  P211  1  0.54190011  0.58163241  0.85273474  1
  P  P212  1  0.54082167  0.91702500  0.10242303  1
  P  P213  1  0.54085293  0.91603370  0.35163398  1
  P  P214  1  0.54192073  0.91548891  0.60259514  1
  P  P215  1  0.54184032  0.91787334  0.85376503  1
  P  P216  1  0.45873089  0.08334623  0.14815523  1
  P  P217  1  0.45770127  0.08434229  0.39707613  1
  P  P218  1  0.45853340  0.08255977  0.64907041  1
  P  P219  1  0.45866933  0.08283226  0.89863738  1
  P  P220  1  0.45840045  0.41737058  0.14705337  1
  P  P221  1  0.45763984  0.41604026  0.39624627  1
  P  P222  1  0.45833988  0.41699025  0.64739177  1
  P  P223  1  0.45774673  0.41467965  0.89714703  1
  P  P224  1  0.45782029  0.75167752  0.14690648  1
  P  P225  1  0.45853614  0.75004057  0.39818250  1
  P  P226  1  0.45731065  0.74977501  0.64628617  1
  P  P227  1  0.45821877  0.74972713  0.89913881  1
  P  P228  1  0.95714907  0.08334088  0.14648042  1
  P  P229  1  0.95737126  0.08459719  0.39791468  1
  P  P230  1  0.95720388  0.08403995  0.64578222  1
  P  P231  1  0.95779379  0.08205720  0.89715007  1
  P  P232  1  0.95783188  0.41864880  0.14782188  1
  P  P233  1  0.95840223  0.41637694  0.39724525  1
  P  P234  1  0.95775704  0.41671302  0.64557276  1
  P  P235  1  0.95720696  0.41731703  0.89613063  1
  P  P236  1  0.95634553  0.75059735  0.14705944  1
  P  P237  1  0.95811917  0.74968010  0.39890036  1
  P  P238  1  0.95832738  0.75019599  0.64761111  1
  P  P239  1  0.95663898  0.75022183  0.89591154  1
  P  P240  1  0.20751036  0.08370407  0.22957907  1
  P  P241  1  0.20859295  0.08225572  0.47862528  1
  P  P242  1  0.20811414  0.08471120  0.72825987  1
  P  P243  1  0.20813796  0.08514094  0.97779875  1
  P  P244  1  0.20923390  0.41704166  0.22739434  1
  P  P245  1  0.20915581  0.41675719  0.47709054  1
  P  P246  1  0.20854464  0.41664443  0.72608676  1
  P  P247  1  0.20774431  0.41722877  0.97896458  1
  P  P248  1  0.20877044  0.75038913  0.22682222  1
  P  P249  1  0.20774060  0.74967824  0.47881239  1
  P  P250  1  0.20847548  0.75159346  0.72787268  1
  P  P251  1  0.20832189  0.75156159  0.97848192  1
  P  P252  1  0.70765748  0.08214828  0.22722639  1
  P  P253  1  0.70740710  0.08206939  0.47709170  1
  P  P254  1  0.70762203  0.08280886  0.72713385  1
  P  P255  1  0.70769402  0.08496321  0.97725267  1
  P  P256  1  0.70738132  0.41760715  0.22731022  1
  P  P257  1  0.70823107  0.41631872  0.47654652  1
  P  P258  1  0.70810084  0.41567434  0.72670765  1
  P  P259  1  0.70790526  0.41687689  0.97590710  1
  P  P260  1  0.70740071  0.74844162  0.22749678  1
  P  P261  1  0.70690947  0.74951624  0.47837874  1
  P  P262  1  0.70643072  0.74924925  0.72841408  1
  P  P263  1  0.70714873  0.74937484  0.97905561  1
  P  P264  1  0.29265514  0.25148250  0.02295724  1
  P  P265  1  0.29274494  0.25226172  0.27295886  1
  P  P266  1  0.29154643  0.24979065  0.52358507  1
  P  P267  1  0.29237357  0.24862616  0.77205629  1
  P  P268  1  0.29166545  0.58371193  0.02401159  1
  P  P269  1  0.29202292  0.58227028  0.27168708  1
  P  P270  1  0.29253549  0.58107904  0.52202996  1
  P  P271  1  0.29331632  0.58302072  0.77163644  1
  P  P272  1  0.29211594  0.91576182  0.02291248  1
  P  P273  1  0.29225482  0.91796453  0.27281899  1
  P  P274  1  0.29274030  0.91564719  0.52297176  1
  P  P275  1  0.29281179  0.91516864  0.77324504  1
  P  P276  1  0.79244884  0.25046991  0.02016085  1
  P  P277  1  0.79229363  0.25156579  0.27201164  1
  P  P278  1  0.79142356  0.25174860  0.52137158  1
  P  P279  1  0.79114370  0.25019709  0.77243065  1
  P  P280  1  0.79083497  0.58258996  0.02303924  1
  P  P281  1  0.79177530  0.58182561  0.27174491  1
  P  P282  1  0.79193067  0.58092272  0.52229517  1
  P  P283  1  0.79161393  0.58081703  0.77186800  1
  P  P284  1  0.79188623  0.91833294  0.02248560  1
  P  P285  1  0.79171154  0.91808548  0.27217566  1
  P  P286  1  0.79161378  0.91832531  0.52215360  1
  P  P287  1  0.79241701  0.91691102  0.77125266  1
  O  O288  1  0.03844808  0.25089864  0.18332321  1
  O  O289  1  0.03730837  0.25034029  0.43427875  1
  O  O290  1  0.03710265  0.25020009  0.68101853  1
  O  O291  1  0.03857383  0.25013634  0.93294458  1
  O  O292  1  0.03766746  0.58295899  0.18369099  1
  O  O293  1  0.03765570  0.58354742  0.43291635  1
  O  O294  1  0.03725803  0.58599757  0.68266112  1
  O  O295  1  0.03772017  0.58482533  0.93177781  1
  O  O296  1  0.03754630  0.91803014  0.18231656  1
  O  O297  1  0.03739619  0.91547986  0.43422621  1
  O  O298  1  0.03696379  0.91468425  0.68287057  1
  O  O299  1  0.03662741  0.91699932  0.93213989  1
  O  O300  1  0.53673034  0.24927150  0.18137232  1
  O  O301  1  0.53725041  0.24787787  0.43229729  1
  O  O302  1  0.53661384  0.24732163  0.68274215  1
  O  O303  1  0.53674315  0.24901332  0.93301501  1
  O  O304  1  0.53649420  0.58378194  0.18268367  1
  O  O305  1  0.53669896  0.58319818  0.43229338  1
  O  O306  1  0.53689835  0.58312593  0.68234648  1
  O  O307  1  0.53668007  0.58207043  0.93262538  1
  O  O308  1  0.53566093  0.91646789  0.18230298  1
  O  O309  1  0.53598360  0.91595511  0.43160387  1
  O  O310  1  0.53695358  0.91617070  0.68251944  1
  O  O311  1  0.53641191  0.91800547  0.93360843  1
  O  O312  1  0.46375509  0.08271810  0.06829844  1
  O  O313  1  0.46289624  0.08436744  0.31724674  1
  O  O314  1  0.46333526  0.08267941  0.56908405  1
  O  O315  1  0.46369975  0.08303780  0.81877454  1
  O  O316  1  0.46354153  0.41675221  0.06711713  1
  O  O317  1  0.46284287  0.41624819  0.31631413  1
  O  O318  1  0.46341348  0.41676015  0.56744520  1
  O  O319  1  0.46313505  0.41516919  0.81721793  1
  O  O320  1  0.46311911  0.75120160  0.06708017  1
  O  O321  1  0.46363841  0.75055955  0.31819763  1
  O  O322  1  0.46289811  0.74982390  0.56641834  1
  O  O323  1  0.46284010  0.74979396  0.81913432  1
  O  O324  1  0.96261426  0.08255888  0.06651614  1
  O  O325  1  0.96223335  0.08444320  0.31791298  1
  O  O326  1  0.96244142  0.08463041  0.56585939  1
  O  O327  1  0.96280757  0.08220840  0.81714729  1
  O  O328  1  0.96256832  0.41842580  0.06780121  1
  O  O329  1  0.96363028  0.41716581  0.31732123  1
  O  O330  1  0.96310630  0.41626651  0.56563154  1
  O  O331  1  0.96236874  0.41735597  0.81616081  1
  O  O332  1  0.96096720  0.75067044  0.06706568  1
  O  O333  1  0.96287075  0.74969203  0.31889676  1
  O  O334  1  0.96384719  0.75011717  0.56770689  1
  O  O335  1  0.96193866  0.75015858  0.81598944  1
  O  O336  1  0.21296765  0.08489642  0.05778560  1
  O  O337  1  0.21310536  0.08296989  0.30948178  1
  O  O338  1  0.21403401  0.08276771  0.55856939  1
  O  O339  1  0.21333357  0.08502020  0.80820664  1
  O  O340  1  0.21322786  0.41743563  0.05882988  1
  O  O341  1  0.21453859  0.41718548  0.30729469  1
  O  O342  1  0.21413099  0.41678535  0.55698996  1
  O  O343  1  0.21294052  0.41635225  0.80607389  1
  O  O344  1  0.21344207  0.75128802  0.05839494  1
  O  O345  1  0.21337437  0.74988526  0.30683001  1
  O  O346  1  0.21321423  0.74992966  0.55868323  1
  O  O347  1  0.21383418  0.75186053  0.80782266  1
  O  O348  1  0.71279232  0.08426856  0.05718716  1
  O  O349  1  0.71289790  0.08209057  0.30717537  1
  O  O350  1  0.71277876  0.08202113  0.55702081  1
  O  O351  1  0.71310649  0.08402823  0.80701875  1
  O  O352  1  0.71292011  0.41737099  0.05584396  1
  O  O353  1  0.71273157  0.41710024  0.30717790  1
  O  O354  1  0.71341514  0.41609877  0.55645781  1
  O  O355  1  0.71345896  0.41574826  0.80657362  1
  O  O356  1  0.71278722  0.74901293  0.05899097  1
  O  O357  1  0.71236830  0.74856393  0.30748816  1
  O  O358  1  0.71187179  0.74963475  0.55831684  1
  O  O359  1  0.71154554  0.74929861  0.80841399  1
  O  O360  1  0.28746459  0.25250603  0.19305674  1
  O  O361  1  0.28693232  0.25041056  0.44362134  1
  O  O362  1  0.28695049  0.24844193  0.69220165  1
  O  O363  1  0.28734077  0.25046610  0.94303083  1
  O  O364  1  0.28653661  0.58283011  0.19182068  1
  O  O365  1  0.28704650  0.58086605  0.44210115  1
  O  O366  1  0.28821600  0.58256833  0.69169333  1
  O  O367  1  0.28721187  0.58424163  0.94399336  1
  O  O368  1  0.28679809  0.91738301  0.19291091  1
  O  O369  1  0.28728984  0.91671142  0.44307502  1
  O  O370  1  0.28765524  0.91508620  0.69328318  1
  O  O371  1  0.28704351  0.91573628  0.94296449  1
  O  O372  1  0.78743651  0.25114740  0.19202446  1
  O  O373  1  0.78612946  0.25177433  0.44148010  1
  O  O374  1  0.78591113  0.25039581  0.69245110  1
  O  O375  1  0.78710622  0.25037891  0.94025979  1
  O  O376  1  0.78606884  0.58243498  0.19190350  1
  O  O377  1  0.78682816  0.58099038  0.44233667  1
  O  O378  1  0.78639853  0.58053637  0.69195073  1
  O  O379  1  0.78570303  0.58225461  0.94307600  1
  O  O380  1  0.78655738  0.91799181  0.19221523  1
  O  O381  1  0.78624988  0.91827647  0.44218773  1
  O  O382  1  0.78703429  0.91721676  0.69132195  1
  O  O383  1  0.78689170  0.91793902  0.94252764  1
  O  O384  1  0.22844505  0.25241811  0.05887482  1
  O  O385  1  0.22859672  0.25200553  0.30893963  1
  O  O386  1  0.22731909  0.24939076  0.55930086  1
  O  O387  1  0.22822479  0.24821990  0.80828900  1
  O  O388  1  0.22743897  0.58293484  0.05953459  1
  O  O389  1  0.22796763  0.58181221  0.30800547  1
  O  O390  1  0.22841196  0.58119943  0.55815576  1
  O  O391  1  0.22892779  0.58382980  0.80684820  1
  O  O392  1  0.22781169  0.91550641  0.05855710  1
  O  O393  1  0.22805369  0.91853208  0.30879297  1
  O  O394  1  0.22857065  0.91541341  0.55900386  1
  O  O395  1  0.22851984  0.91542875  0.80889375  1
  O  O396  1  0.72822828  0.25031422  0.05592897  1
  O  O397  1  0.72786537  0.25158415  0.30725299  1
  O  O398  1  0.72728526  0.25161814  0.55741166  1
  O  O399  1  0.72706189  0.25001614  0.80870254  1
  O  O400  1  0.72671669  0.58217033  0.05919818  1
  O  O401  1  0.72771175  0.58120286  0.30814415  1
  O  O402  1  0.72764530  0.58063251  0.55795914  1
  O  O403  1  0.72734443  0.58052875  0.80764041  1
  O  O404  1  0.72752918  0.91809953  0.05796899  1
  O  O405  1  0.72734642  0.91811054  0.30773042  1
  O  O406  1  0.72739907  0.91843250  0.55803822  1
  O  O407  1  0.72812583  0.91711050  0.80669677  1
  O  O408  1  0.27170535  0.08382734  0.19387397  1
  O  O409  1  0.27271490  0.08199848  0.44253777  1
  O  O410  1  0.27244657  0.08472383  0.69268858  1
  O  O411  1  0.27255582  0.08515317  0.94246932  1
  O  O412  1  0.27322071  0.41700591  0.19075013  1
  O  O413  1  0.27321524  0.41688865  0.44073725  1
  O  O414  1  0.27290758  0.41693063  0.69068505  1
  O  O415  1  0.27200036  0.41683913  0.94323025  1
  O  O416  1  0.27301187  0.75101981  0.19124192  1
  O  O417  1  0.27193149  0.74971767  0.44314026  1
  O  O418  1  0.27266311  0.75124400  0.69193599  1
  O  O419  1  0.27262851  0.75193713  0.94259551  1
  O  O420  1  0.77192599  0.08203034  0.19150254  1
  O  O421  1  0.77160475  0.08222981  0.44116281  1
  O  O422  1  0.77176837  0.08229832  0.69103316  1
  O  O423  1  0.77193781  0.08586583  0.94147266  1
  O  O424  1  0.77157819  0.41848533  0.19126085  1
  O  O425  1  0.77225959  0.41639835  0.43998485  1
  O  O426  1  0.77211498  0.41548616  0.69008100  1
  O  O427  1  0.77209192  0.41689183  0.93988053  1
  O  O428  1  0.77168109  0.74884119  0.19207771  1
  O  O429  1  0.77134059  0.74960386  0.44339637  1
  O  O430  1  0.77082701  0.74922113  0.69329015  1
  O  O431  1  0.77126779  0.74922184  0.94315637  1
  O  O432  1  0.02148494  0.08364326  0.18191867  1
  O  O433  1  0.02176942  0.08460622  0.43312949  1
  O  O434  1  0.02156113  0.08348469  0.68104386  1
  O  O435  1  0.02216409  0.08151726  0.93263969  1
  O  O436  1  0.02232642  0.41905936  0.18301466  1
  O  O437  1  0.02263151  0.41604318  0.43293999  1
  O  O438  1  0.02211708  0.41731335  0.68082414  1
  O  O439  1  0.02168706  0.41742945  0.93109632  1
  O  O440  1  0.02100782  0.75026393  0.18155691  1
  O  O441  1  0.02247486  0.74965146  0.43442611  1
  O  O442  1  0.02229264  0.75038647  0.68433644  1
  O  O443  1  0.02091588  0.75070899  0.93150745  1
  O  O444  1  0.52274072  0.08350026  0.18449584  1
  O  O445  1  0.52188927  0.08418924  0.43313123  1
  O  O446  1  0.52272686  0.08241004  0.68503605  1
  O  O447  1  0.52272280  0.08214912  0.93491788  1
  O  O448  1  0.52257542  0.41767171  0.18292651  1
  O  O449  1  0.52192669  0.41599684  0.43159857  1
  O  O450  1  0.52257572  0.41685154  0.68303430  1
  O  O451  1  0.52197582  0.41460111  0.93297350  1
  O  O452  1  0.52197008  0.75177133  0.18300384  1
  O  O453  1  0.52261621  0.74976504  0.43436712  1
  O  O454  1  0.52136030  0.74982246  0.68240625  1
  O  O455  1  0.52241411  0.74901788  0.93479258  1
  O  O456  1  0.47735555  0.25011370  0.06550222  1
  O  O457  1  0.47824840  0.24790169  0.31660378  1
  O  O458  1  0.47765018  0.24736909  0.56699582  1
  O  O459  1  0.47785577  0.24781770  0.81699069  1
  O  O460  1  0.47740968  0.58454648  0.06701288  1
  O  O461  1  0.47778515  0.58240023  0.31650614  1
  O  O462  1  0.47803432  0.58491174  0.56651413  1
  O  O463  1  0.47763425  0.58103954  0.81700194  1
  O  O464  1  0.47687028  0.91755628  0.06593265  1
  O  O465  1  0.47672434  0.91575500  0.31565450  1
  O  O466  1  0.47764557  0.91506757  0.56689772  1
  O  O467  1  0.47773986  0.91830329  0.81751956  1
  O  O468  1  0.97906504  0.25021498  0.06832209  1
  O  O469  1  0.97876309  0.25069256  0.31854472  1
  O  O470  1  0.97733074  0.25052946  0.56550228  1
  O  O471  1  0.97893981  0.25039581  0.81820626  1
  O  O472  1  0.97814886  0.58386006  0.06867603  1
  O  O473  1  0.97835644  0.58192666  0.31748950  1
  O  O474  1  0.97847624  0.58547436  0.56693252  1
  O  O475  1  0.97827389  0.58552217  0.81648817  1
  O  O476  1  0.97780283  0.91904096  0.06713499  1
  O  O477  1  0.97824347  0.91637901  0.31905937  1
  O  O478  1  0.97806298  0.91527401  0.56723461  1
  O  O479  1  0.97791840  0.91500677  0.81630872  1
  O  O480  1  0.07404422  0.31458289  0.07523663  1
  O  O481  1  0.07444493  0.31363200  0.32606091  1
  O  O482  1  0.07253992  0.31396764  0.57290327  1
  O  O483  1  0.07473770  0.31343064  0.82463293  1
  O  O484  1  0.07339788  0.64755598  0.07581391  1
  O  O485  1  0.07362430  0.64625798  0.32452611  1
  O  O486  1  0.07356390  0.64910141  0.57397064  1
  O  O487  1  0.07340454  0.64898994  0.82365914  1
  O  O488  1  0.07342257  0.98160722  0.07366912  1
  O  O489  1  0.07355786  0.97996254  0.32658230  1
  O  O490  1  0.07353305  0.97877187  0.57565007  1
  O  O491  1  0.07320547  0.97932617  0.82380137  1
  O  O492  1  0.57238954  0.31353513  0.07343683  1
  O  O493  1  0.57351179  0.31161173  0.32449110  1
  O  O494  1  0.57281475  0.31121594  0.57507841  1
  O  O495  1  0.57326779  0.31131380  0.82439222  1
  O  O496  1  0.57208313  0.64837543  0.07461886  1
  O  O497  1  0.57346858  0.64585410  0.32439710  1
  O  O498  1  0.57329406  0.64749251  0.57425246  1
  O  O499  1  0.57292852  0.64522875  0.82477178  1
  O  O500  1  0.57229657  0.98044790  0.07444157  1
  O  O501  1  0.57097737  0.98017744  0.32322880  1
  O  O502  1  0.57287764  0.97898315  0.57411828  1
  O  O503  1  0.57307071  0.98102304  0.82478284  1
  O  O504  1  0.42797117  0.01978566  0.17721903  1
  O  O505  1  0.42649306  0.02077458  0.42526738  1
  O  O506  1  0.42791804  0.01870743  0.67730696  1
  O  O507  1  0.42699418  0.01971978  0.92706836  1
  O  O508  1  0.42716279  0.35394356  0.17514635  1
  O  O509  1  0.42682585  0.35235472  0.42455873  1
  O  O510  1  0.42702369  0.35338099  0.67489300  1
  O  O511  1  0.42708131  0.35100108  0.92550140  1
  O  O512  1  0.42661309  0.68824371  0.17535836  1
  O  O513  1  0.42781377  0.68603590  0.42587874  1
  O  O514  1  0.42599906  0.68637183  0.67459048  1
  O  O515  1  0.42691503  0.68628621  0.92718690  1
  O  O516  1  0.92594739  0.02028359  0.17548585  1
  O  O517  1  0.92625218  0.02101666  0.42570493  1
  O  O518  1  0.92605907  0.02036921  0.67346126  1
  O  O519  1  0.92677655  0.01861509  0.92542873  1
  O  O520  1  0.92708954  0.35472547  0.17551114  1
  O  O521  1  0.92759516  0.35263088  0.42529534  1
  O  O522  1  0.92669211  0.35340960  0.67411609  1
  O  O523  1  0.92634578  0.35379907  0.92446030  1
  O  O524  1  0.92528596  0.68723740  0.17548354  1
  O  O525  1  0.92745462  0.68581184  0.42691365  1
  O  O526  1  0.92743069  0.68645760  0.67582830  1
  O  O527  1  0.92566946  0.68671273  0.92445710  1
  O  O528  1  0.17591780  0.02077648  0.20078982  1
  O  O529  1  0.17778710  0.01853525  0.45055906  1
  O  O530  1  0.17726671  0.02062565  0.70092360  1
  O  O531  1  0.17722486  0.02141024  0.94984183  1
  O  O532  1  0.17828900  0.35336199  0.19920640  1
  O  O533  1  0.17856675  0.35287657  0.44864093  1
  O  O534  1  0.17829915  0.35268945  0.69742795  1
  O  O535  1  0.17633978  0.35401392  0.95043267  1
  O  O536  1  0.17855366  0.68641781  0.19822833  1
  O  O537  1  0.17683387  0.68597082  0.45076764  1
  O  O538  1  0.17730756  0.68778909  0.70042073  1
  O  O539  1  0.17751888  0.68781666  0.95009035  1
  O  O540  1  0.67660389  0.01891138  0.19836354  1
  O  O541  1  0.67635497  0.01878742  0.44838960  1
  O  O542  1  0.67676736  0.01898547  0.69946178  1
  O  O543  1  0.67687774  0.02123507  0.94918766  1
  O  O544  1  0.67669907  0.35386529  0.19876564  1
  O  O545  1  0.67722918  0.35274437  0.44803704  1
  O  O546  1  0.67696845  0.35211291  0.69835582  1
  O  O547  1  0.67741045  0.35287573  0.94790105  1
  O  O548  1  0.67699250  0.68471035  0.19893838  1
  O  O549  1  0.67592025  0.68595422  0.45041824  1
  O  O550  1  0.67544255  0.68561721  0.70051767  1
  O  O551  1  0.67551604  0.68628153  0.95074292  1
  O  O552  1  0.32374144  0.31508256  0.05082912  1
  O  O553  1  0.32369701  0.31551937  0.30178021  1
  O  O554  1  0.32207848  0.31348347  0.55247477  1
  O  O555  1  0.32318481  0.31260748  0.79978158  1
  O  O556  1  0.32164788  0.64779500  0.05271292  1
  O  O557  1  0.32311560  0.64592830  0.29991748  1
  O  O558  1  0.32358126  0.64497439  0.54939058  1
  O  O559  1  0.32465701  0.64646863  0.79972881  1
  O  O560  1  0.32286550  0.97978504  0.05052128  1
  O  O561  1  0.32320770  0.98146769  0.30117439  1
  O  O562  1  0.32421957  0.97883005  0.55152579  1
  O  O563  1  0.32372372  0.97911117  0.80088390  1
  O  O564  1  0.82350163  0.31404877  0.04851671  1
  O  O565  1  0.82292651  0.31521127  0.30031503  1
  O  O566  1  0.82249358  0.31488082  0.55028590  1
  O  O567  1  0.82213376  0.31377272  0.80065261  1
  O  O568  1  0.82103504  0.64674063  0.05127804  1
  O  O569  1  0.82290781  0.64537631  0.30010898  1
  O  O570  1  0.82269660  0.64480541  0.55024067  1
  O  O571  1  0.82221612  0.64485490  0.79960179  1
  O  O572  1  0.82219371  0.98223826  0.05066735  1
  O  O573  1  0.82273419  0.98135233  0.30090707  1
  O  O574  1  0.82269742  0.98163813  0.55070056  1
  O  O575  1  0.82397973  0.98014369  0.79939288  1
  O  O576  1  0.42767449  0.14706425  0.17602790  1
  O  O577  1  0.42697152  0.14765745  0.42635795  1
  O  O578  1  0.42763609  0.14605517  0.67752092  1
  O  O579  1  0.42849306  0.14676795  0.92756286  1
  O  O580  1  0.42783198  0.48118612  0.17528745  1
  O  O581  1  0.42619543  0.47919706  0.42450079  1
  O  O582  1  0.42788311  0.48069809  0.67580301  1
  O  O583  1  0.42638620  0.47806618  0.92523746  1
  O  O584  1  0.42696262  0.81509011  0.17565341  1
  O  O585  1  0.42760979  0.81356557  0.42658917  1
  O  O586  1  0.42604510  0.81302819  0.67494178  1
  O  O587  1  0.42830792  0.81395231  0.92736307  1
  O  O588  1  0.92610941  0.14716038  0.17397008  1
  O  O589  1  0.92677677  0.14830357  0.42620227  1
  O  O590  1  0.92612526  0.14726614  0.67459296  1
  O  O591  1  0.92720570  0.14596506  0.92493537  1
  O  O592  1  0.92710412  0.48198411  0.17666990  1
  O  O593  1  0.92713477  0.47969621  0.42550582  1
  O  O594  1  0.92660371  0.48036497  0.67326526  1
  O  O595  1  0.92618919  0.48083185  0.92421398  1
  O  O596  1  0.92571555  0.81421626  0.17542939  1
  O  O597  1  0.92742705  0.81337022  0.42722599  1
  O  O598  1  0.92722546  0.81372383  0.67586767  1
  O  O599  1  0.92514311  0.81344034  0.92432656  1
  O  O600  1  0.07486880  0.18744016  0.07542073  1
  O  O601  1  0.07405857  0.18689882  0.32611064  1
  O  O602  1  0.07213639  0.18635027  0.57293544  1
  O  O603  1  0.07406038  0.18638245  0.82465642  1
  O  O604  1  0.07392720  0.52073246  0.07473087  1
  O  O605  1  0.07359020  0.51908535  0.32478049  1
  O  O606  1  0.07383035  0.52202364  0.57527508  1
  O  O607  1  0.07370208  0.52172730  0.82364686  1
  O  O608  1  0.07269013  0.85440695  0.07423464  1
  O  O609  1  0.07384448  0.85300722  0.32543119  1
  O  O610  1  0.07307270  0.85162047  0.57413059  1
  O  O611  1  0.07311941  0.85224519  0.82435860  1
  O  O612  1  0.57206079  0.18600393  0.07285015  1
  O  O613  1  0.57348064  0.18466182  0.32345173  1
  O  O614  1  0.57283098  0.18406098  0.57405935  1
  O  O615  1  0.57278592  0.18442889  0.82493120  1
  O  O616  1  0.57302021  0.52123980  0.07441251  1
  O  O617  1  0.57233519  0.51865972  0.32399546  1
  O  O618  1  0.57309816  0.52037788  0.57420360  1
  O  O619  1  0.57261585  0.51800000  0.82414956  1
  O  O620  1  0.57124218  0.85325014  0.07346996  1
  O  O621  1  0.57231111  0.85282736  0.32334761  1
  O  O622  1  0.57268486  0.85194932  0.57406476  1
  O  O623  1  0.57267839  0.85402695  0.82583913  1
  O  O624  1  0.32344176  0.18794863  0.05147300  1
  O  O625  1  0.32375729  0.18841679  0.30045068  1
  O  O626  1  0.32248880  0.18606950  0.55144739  1
  O  O627  1  0.32356648  0.18561078  0.80134687  1
  O  O628  1  0.32315644  0.52035257  0.05174692  1
  O  O629  1  0.32316463  0.51892449  0.30008126  1
  O  O630  1  0.32355640  0.51787570  0.55082238  1
  O  O631  1  0.32401006  0.51959574  0.80043594  1
  O  O632  1  0.32319473  0.85266434  0.05184879  1
  O  O633  1  0.32324863  0.85432239  0.30077844  1
  O  O634  1  0.32324783  0.85171348  0.55077500  1
  O  O635  1  0.32378760  0.85200152  0.80207228  1
  O  O636  1  0.82387672  0.18738595  0.04884758  1
  O  O637  1  0.82327724  0.18797464  0.30005175  1
  O  O638  1  0.82232857  0.18787491  0.54901704  1
  O  O639  1  0.82193171  0.18635918  0.80030935  1
  O  O640  1  0.82223928  0.51934117  0.05126415  1
  O  O641  1  0.82292401  0.51849970  0.30020603  1
  O  O642  1  0.82298450  0.51764768  0.55081946  1
  O  O643  1  0.82285763  0.51773549  0.80059260  1
  O  O644  1  0.82321128  0.85492447  0.05037650  1
  O  O645  1  0.82253327  0.85421821  0.30009097  1
  O  O646  1  0.82253862  0.85442991  0.54970750  1
  O  O647  1  0.82310566  0.85319219  0.79935891  1
  O  O648  1  0.17663904  0.14763491  0.20219595  1
  O  O649  1  0.17735867  0.14572189  0.45070750  1
  O  O650  1  0.17696687  0.14760805  0.69890004  1
  O  O651  1  0.17753195  0.14869155  0.94941141  1
  O  O652  1  0.17826297  0.48059079  0.19901318  1
  O  O653  1  0.17796079  0.48007663  0.44848706  1
  O  O654  1  0.17758852  0.48016869  0.69790931  1
  O  O655  1  0.17679306  0.48070807  0.95035706  1
  O  O656  1  0.17754871  0.81397351  0.19916134  1
  O  O657  1  0.17630423  0.81281316  0.45051786  1
  O  O658  1  0.17775562  0.81496024  0.69904186  1
  O  O659  1  0.17722533  0.81480199  0.94965090  1
  O  O660  1  0.67686431  0.14608376  0.19965618  1
  O  O661  1  0.67645070  0.14591324  0.44948724  1
  O  O662  1  0.67648759  0.14609828  0.69859898  1
  O  O663  1  0.67664037  0.14832725  0.94881622  1
  O  O664  1  0.67600813  0.48074687  0.19874104  1
  O  O665  1  0.67735552  0.47997243  0.44823055  1
  O  O666  1  0.67735946  0.47926228  0.69810005  1
  O  O667  1  0.67674886  0.48018921  0.94747894  1
  O  O668  1  0.67600987  0.81200761  0.20001571  1
  O  O669  1  0.67590330  0.81296510  0.45008265  1
  O  O670  1  0.67534500  0.81270258  0.70036431  1
  O  O671  1  0.67632418  0.81326250  0.95149002  1
