# generated using pymatgen
data_Na2MnFe(PO4)2
_symmetry_space_group_name_H-M   'P 1'
_cell_length_a   22.34297060
_cell_length_b   20.09306797
_cell_length_c   19.45032246
_cell_angle_alpha   89.95580461
_cell_angle_beta   90.03143128
_cell_angle_gamma   90.04390337
_symmetry_Int_Tables_number   1
_chemical_formula_structural   Na2MnFe(PO4)2
_chemical_formula_sum   'Na96 Mn48 Fe48 P96 O384'
_cell_volume   8731.99847389
_cell_formula_units_Z   48
loop_
 _symmetry_equiv_pos_site_id
 _symmetry_equiv_pos_as_xyz
  1  'x, y, z'
loop_
 _atom_site_type_symbol
 _atom_site_label
 _atom_site_symmetry_multiplicity
 _atom_site_fract_x
 _atom_site_fract_y
 _atom_site_fract_z
 _atom_site_occupancy
  Na  Na0  1  0.13987358  0.25168259  0.24334264  1
  Na  Na1  1  0.14020552  0.24909644  0.49292460  1
  Na  Na2  1  0.14026688  0.24884907  0.74309741  1
  Na  Na3  1  0.13961193  0.25041760  0.99413491  1
  Na  Na4  1  0.14104895  0.58426402  0.24320333  1
  Na  Na5  1  0.14027740  0.58257007  0.49263540  1
  Na  Na6  1  0.13968751  0.58318849  0.74254976  1
  Na  Na7  1  0.14028080  0.58464319  0.99350115  1
  Na  Na8  1  0.14029126  0.91658776  0.24314065  1
  Na  Na9  1  0.13972219  0.91503017  0.49272042  1
  Na  Na10  1  0.14009972  0.91706956  0.74316179  1
  Na  Na11  1  0.14036802  0.91659406  0.99358539  1
  Na  Na12  1  0.63984308  0.25026798  0.24479777  1
  Na  Na13  1  0.64062708  0.24901592  0.49336644  1
  Na  Na14  1  0.64046788  0.25034762  0.74423675  1
  Na  Na15  1  0.64010083  0.24918055  0.99384445  1
  Na  Na16  1  0.64048192  0.58335743  0.24525874  1
  Na  Na17  1  0.64053451  0.58179304  0.49376409  1
  Na  Na18  1  0.64026401  0.58272942  0.74438254  1
  Na  Na19  1  0.64014750  0.58385263  0.99464755  1
  Na  Na20  1  0.64059744  0.91790797  0.24520342  1
  Na  Na21  1  0.64001594  0.91714626  0.49333662  1
  Na  Na22  1  0.63995811  0.91810859  0.74303412  1
  Na  Na23  1  0.64071769  0.91787071  0.99327045  1
  Na  Na24  1  0.35948465  0.08340901  0.00540285  1
  Na  Na25  1  0.35887431  0.08448354  0.25605626  1
  Na  Na26  1  0.35917060  0.08194917  0.50659774  1
  Na  Na27  1  0.35962433  0.08246573  0.75590412  1
  Na  Na28  1  0.35869841  0.41683839  0.00717608  1
  Na  Na29  1  0.35949826  0.41787613  0.25780171  1
  Na  Na30  1  0.35941926  0.41565584  0.50590154  1
  Na  Na31  1  0.35906384  0.41518857  0.75499993  1
  Na  Na32  1  0.35939329  0.74965398  0.00704815  1
  Na  Na33  1  0.35970626  0.75064674  0.25677549  1
  Na  Na34  1  0.35986437  0.74935797  0.50642914  1
  Na  Na35  1  0.35987028  0.75074366  0.75553122  1
  Na  Na36  1  0.85976508  0.08404477  0.00484049  1
  Na  Na37  1  0.85985975  0.08521064  0.25718816  1
  Na  Na38  1  0.86069270  0.08338037  0.50594969  1
  Na  Na39  1  0.86025472  0.08389750  0.75592425  1
  Na  Na40  1  0.85991086  0.41596209  0.00623341  1
  Na  Na41  1  0.86014166  0.41565995  0.25683450  1
  Na  Na42  1  0.85985701  0.41495033  0.50606488  1
  Na  Na43  1  0.85964907  0.41644414  0.75629832  1
  Na  Na44  1  0.86044722  0.75045791  0.00623572  1
  Na  Na45  1  0.86049151  0.75175437  0.25662978  1
  Na  Na46  1  0.86072794  0.74903934  0.50726460  1
  Na  Na47  1  0.86000069  0.74934580  0.75687947  1
  Na  Na48  1  0.10943396  0.08494131  0.11857858  1
  Na  Na49  1  0.10979405  0.08256827  0.36845149  1
  Na  Na50  1  0.10940330  0.08244235  0.61811023  1
  Na  Na51  1  0.10967499  0.08351559  0.86798336  1
  Na  Na52  1  0.10984016  0.41846422  0.11950864  1
  Na  Na53  1  0.10993841  0.41598205  0.36698143  1
  Na  Na54  1  0.10951809  0.41638004  0.61763608  1
  Na  Na55  1  0.10922036  0.41610980  0.86827401  1
  Na  Na56  1  0.11011421  0.75058762  0.11776994  1
  Na  Na57  1  0.10966718  0.74879489  0.36826099  1
  Na  Na58  1  0.10939014  0.75050426  0.61806568  1
  Na  Na59  1  0.10989444  0.75045941  0.86872877  1
  Na  Na60  1  0.60991226  0.08391948  0.11924009  1
  Na  Na61  1  0.60965141  0.08310939  0.36880925  1
  Na  Na62  1  0.60973990  0.08317743  0.61812427  1
  Na  Na63  1  0.60995607  0.08310112  0.86809138  1
  Na  Na64  1  0.60891815  0.41602077  0.11917747  1
  Na  Na65  1  0.60961178  0.41633513  0.37005199  1
  Na  Na66  1  0.60954495  0.41761998  0.61827002  1
  Na  Na67  1  0.60912636  0.41700347  0.86937577  1
  Na  Na68  1  0.60961474  0.75057008  0.12011373  1
  Na  Na69  1  0.60964380  0.75013359  0.37039911  1
  Na  Na70  1  0.60902454  0.75061847  0.61859484  1
  Na  Na71  1  0.60922575  0.75029122  0.86923943  1
  Na  Na72  1  0.38982812  0.24944191  0.13116558  1
  Na  Na73  1  0.38996272  0.25060013  0.38221899  1
  Na  Na74  1  0.38957129  0.24948912  0.63096758  1
  Na  Na75  1  0.38968454  0.24888309  0.88058825  1
  Na  Na76  1  0.38978688  0.58416746  0.13294072  1
  Na  Na77  1  0.39036387  0.58334268  0.38258415  1
  Na  Na78  1  0.39043032  0.58409121  0.62947010  1
  Na  Na79  1  0.38979803  0.58362930  0.88166074  1
  Na  Na80  1  0.39014183  0.91659280  0.13083346  1
  Na  Na81  1  0.39027660  0.91579911  0.38182330  1
  Na  Na82  1  0.39025756  0.91595105  0.63049284  1
  Na  Na83  1  0.39049181  0.91591288  0.88068513  1
  Na  Na84  1  0.89018617  0.25114611  0.13236361  1
  Na  Na85  1  0.89023164  0.24886637  0.38140924  1
  Na  Na86  1  0.89052128  0.24840400  0.63122331  1
  Na  Na87  1  0.89058425  0.24949509  0.88096449  1
  Na  Na88  1  0.89099907  0.58423933  0.13098947  1
  Na  Na89  1  0.89122424  0.58316335  0.38151960  1
  Na  Na90  1  0.89091567  0.58309400  0.63191287  1
  Na  Na91  1  0.89085455  0.58304685  0.88080533  1
  Na  Na92  1  0.89081754  0.91762981  0.13108215  1
  Na  Na93  1  0.89163285  0.91659101  0.38219783  1
  Na  Na94  1  0.89096615  0.91695855  0.63087808  1
  Na  Na95  1  0.89076800  0.91710748  0.88089902  1
  Mn  Mn96  1  0.50055596  0.00026544  0.00013521  1
  Mn  Mn97  1  0.24955371  -0.00024519  0.87498707  1
  Mn  Mn98  1  0.75045185  0.49971272  0.12574838  1
  Mn  Mn99  1  0.25000693  -0.00099973  0.62561076  1
  Mn  Mn100  1  -0.00014753  0.50034052  -0.00017898  1
  Mn  Mn101  1  0.75094473  0.66633282  0.37590648  1
  Mn  Mn102  1  0.50027604  0.66760666  0.25176360  1
  Mn  Mn103  1  0.50064171  0.83294279  0.00016833  1
  Mn  Mn104  1  0.49933910  0.16636206  0.50019627  1
  Mn  Mn105  1  -0.00032450  0.16788467  -0.00022770  1
  Mn  Mn106  1  0.49893442  0.50053961  0.00057121  1
  Mn  Mn107  1  0.24937895  0.00075665  0.12410259  1
  Mn  Mn108  1  0.49931158  -0.00088273  0.24974982  1
  Mn  Mn109  1  0.24935261  0.33199877  0.87557950  1
  Mn  Mn110  1  0.24986462  0.33410013  0.12490346  1
  Mn  Mn111  1  0.49945211  0.33342788  0.75011479  1
  Mn  Mn112  1  0.25027743  0.66760688  0.87422724  1
  Mn  Mn113  1  0.75049978  0.00144130  0.62446690  1
  Mn  Mn114  1  0.75049153  0.66715820  0.12512858  1
  Mn  Mn115  1  0.75068524  0.00185304  0.12453588  1
  Mn  Mn116  1  0.74964298  0.66522181  0.62620613  1
  Mn  Mn117  1  0.25001540  0.66662779  0.62442476  1
  Mn  Mn118  1  0.75097193  0.49869011  0.37491764  1
  Mn  Mn119  1  0.75014128  0.83432414  0.37562446  1
  Mn  Mn120  1  0.74987789  0.66606329  0.87559777  1
  Mn  Mn121  1  -0.00027661  0.66736071  0.24991238  1
  Mn  Mn122  1  -0.00012616  0.33241692  0.49938141  1
  Mn  Mn123  1  0.49879734  0.33241167  -0.00029565  1
  Mn  Mn124  1  0.74966959  0.83445304  0.87529238  1
  Mn  Mn125  1  0.49924429  0.16683242  0.25050072  1
  Mn  Mn126  1  0.50045407  0.49965286  0.25096286  1
  Mn  Mn127  1  0.25001660  0.49856632  0.62360811  1
  Mn  Mn128  1  0.74998245  0.33321929  0.87486600  1
  Mn  Mn129  1  0.50049704  0.16601384  0.74926864  1
  Mn  Mn130  1  0.75024403  0.33253960  0.62568956  1
  Mn  Mn131  1  -0.00002558  0.50027584  0.49934687  1
  Mn  Mn132  1  0.24938648  0.49980793  0.87463435  1
  Mn  Mn133  1  0.50031885  0.66741580  0.74996917  1
  Mn  Mn134  1  0.75059170  0.83472930  0.12548734  1
  Mn  Mn135  1  0.24962637  0.16681011  0.37530729  1
  Mn  Mn136  1  0.74923795  0.33249232  0.12523182  1
  Mn  Mn137  1  0.49917680  0.50059013  0.74982639  1
  Mn  Mn138  1  0.24982284  0.83296411  0.37390278  1
  Mn  Mn139  1  0.00038507  -0.00022186  0.24996224  1
  Mn  Mn140  1  0.00002165  0.83324394  0.74947092  1
  Mn  Mn141  1  0.75042209  0.83378546  0.62530922  1
  Mn  Mn142  1  0.00011943  0.33269902  0.74921116  1
  Mn  Mn143  1  -0.00014974  0.00010375  0.00015696  1
  Fe  Fe144  1  0.74964289  0.33231138  0.37586496  1
  Fe  Fe145  1  0.50019681  0.66726256  0.50026327  1
  Fe  Fe146  1  0.00046116  0.66705853  -0.00027407  1
  Fe  Fe147  1  0.00047477  0.83312293  0.25022602  1
  Fe  Fe148  1  0.25012183  0.50105200  0.12621725  1
  Fe  Fe149  1  0.00003396  0.16680866  0.24993305  1
  Fe  Fe150  1  0.75035198  0.00107566  0.87441224  1
  Fe  Fe151  1  0.00050142  0.83361350  -0.00036413  1
  Fe  Fe152  1  0.24983753  -0.00019948  0.37484771  1
  Fe  Fe153  1  0.00037171  0.50033295  0.24943840  1
  Fe  Fe154  1  0.00082161  0.66635792  0.49986383  1
  Fe  Fe155  1  0.24921965  0.33232163  0.62457423  1
  Fe  Fe156  1  0.00019828  0.50009384  0.74977887  1
  Fe  Fe157  1  0.75083676  0.00131803  0.37488391  1
  Fe  Fe158  1  0.24960886  0.83280599  0.62408848  1
  Fe  Fe159  1  0.49980016  0.49996875  0.50013973  1
  Fe  Fe160  1  0.75033661  0.16669673  0.87476863  1
  Fe  Fe161  1  0.49990412  0.83362972  0.50073212  1
  Fe  Fe162  1  0.49957605  0.66704329  0.00075460  1
  Fe  Fe163  1  0.75005061  0.16675720  0.37511443  1
  Fe  Fe164  1  0.24959905  0.16649776  0.87466722  1
  Fe  Fe165  1  0.24985811  0.50006229  0.37462972  1
  Fe  Fe166  1  -0.00000836  0.83270172  0.50032322  1
  Fe  Fe167  1  0.24992061  0.66677709  0.37439367  1
  Fe  Fe168  1  0.00065648  0.16601036  0.74996219  1
  Fe  Fe169  1  0.49973455  0.83380375  0.74937780  1
  Fe  Fe170  1  0.00051381  0.16601134  0.49999346  1
  Fe  Fe171  1  0.00053585  -0.00024976  0.49971128  1
  Fe  Fe172  1  0.75018394  0.49886149  0.62512581  1
  Fe  Fe173  1  0.49970967  -0.00045676  0.74930705  1
  Fe  Fe174  1  -0.00017259  0.33342850  0.25009613  1
  Fe  Fe175  1  0.24955472  0.16589239  0.62457141  1
  Fe  Fe176  1  0.25017592  0.33324694  0.37486070  1
  Fe  Fe177  1  0.74998904  0.49960543  0.87547868  1
  Fe  Fe178  1  0.25011564  0.66691680  0.12495889  1
  Fe  Fe179  1  0.74994826  0.16648494  0.62455335  1
  Fe  Fe180  1  0.24995531  0.83332343  0.87509154  1
  Fe  Fe181  1  0.00000330  0.33416776  0.00039827  1
  Fe  Fe182  1  0.50015233  0.83334236  0.25085986  1
  Fe  Fe183  1  0.00045460  -0.00031416  0.74948114  1
  Fe  Fe184  1  0.49954023  0.33314240  0.25046291  1
  Fe  Fe185  1  0.75005416  0.16700582  0.12530562  1
  Fe  Fe186  1  0.25034232  0.83367805  0.12506165  1
  Fe  Fe187  1  0.49984131  0.16632875  -0.00013011  1
  Fe  Fe188  1  0.50012555  0.33354715  0.50039786  1
  Fe  Fe189  1  0.24938123  0.16728347  0.12553689  1
  Fe  Fe190  1  0.00009268  0.66683668  0.74978280  1
  Fe  Fe191  1  0.49993100  -0.00073625  0.49967031  1
  P  P192  1  0.04150731  0.25231263  0.10343496  1
  P  P193  1  0.04127489  0.24928698  0.35165048  1
  P  P194  1  0.04211766  0.24809121  0.60240392  1
  P  P195  1  0.04238533  0.24907572  0.85223471  1
  P  P196  1  0.04224542  0.58480453  0.10240024  1
  P  P197  1  0.04247502  0.58240743  0.35193970  1
  P  P198  1  0.04244325  0.58438910  0.60280393  1
  P  P199  1  0.04152312  0.58379226  0.85151220  1
  P  P200  1  0.04243665  0.91553858  0.10260418  1
  P  P201  1  0.04245402  0.91492492  0.35308408  1
  P  P202  1  0.04136836  0.91675265  0.60140925  1
  P  P203  1  0.04233125  0.91735349  0.85227151  1
  P  P204  1  0.54182157  0.24870225  0.10276836  1
  P  P205  1  0.54136520  0.25152353  0.35346034  1
  P  P206  1  0.54214662  0.25085742  0.60221736  1
  P  P207  1  0.54257914  0.24931200  0.85335528  1
  P  P208  1  0.54188289  0.58486701  0.10324552  1
  P  P209  1  0.54261848  0.58329131  0.35496047  1
  P  P210  1  0.54137951  0.58371801  0.60145126  1
  P  P211  1  0.54229274  0.58382378  0.85383957  1
  P  P212  1  0.54336007  0.91636995  0.10360551  1
  P  P213  1  0.54195070  0.91537708  0.35364749  1
  P  P214  1  0.54149024  0.91689663  0.60214411  1
  P  P215  1  0.54152043  0.91664795  0.85114927  1
  P  P216  1  0.45677304  0.08349454  0.14660286  1
  P  P217  1  0.45732025  0.08173798  0.39772509  1
  P  P218  1  0.45772432  0.08129772  0.64675236  1
  P  P219  1  0.45794208  0.08384214  0.89693342  1
  P  P220  1  0.45727369  0.41545481  0.14837858  1
  P  P221  1  0.45847127  0.41632845  0.39854877  1
  P  P222  1  0.45726551  0.41683411  0.64565117  1
  P  P223  1  0.45588301  0.41671129  0.89707127  1
  P  P224  1  0.45779632  0.75120869  0.14822247  1
  P  P225  1  0.45859939  0.75087239  0.39888269  1
  P  P226  1  0.45794956  0.75162978  0.64661535  1
  P  P227  1  0.45738120  0.74907482  0.89763219  1
  P  P228  1  0.95778424  0.08485037  0.14779540  1
  P  P229  1  0.95948639  0.08332588  0.39800890  1
  P  P230  1  0.95930269  0.08289472  0.64752953  1
  P  P231  1  0.95801758  0.08342335  0.89596300  1
  P  P232  1  0.95865222  0.41701255  0.14819908  1
  P  P233  1  0.95773537  0.41613680  0.39575006  1
  P  P234  1  0.95795561  0.41757583  0.64733688  1
  P  P235  1  0.95811683  0.41572065  0.89707747  1
  P  P236  1  0.95822551  0.75205280  0.14682325  1
  P  P237  1  0.95901946  0.74962682  0.39839551  1
  P  P238  1  0.95794236  0.74871228  0.64680119  1
  P  P239  1  0.95898783  0.74992259  0.89788593  1
  P  P240  1  0.20730367  0.08468816  0.22769379  1
  P  P241  1  0.20783492  0.08166104  0.47772593  1
  P  P242  1  0.20760198  0.08422564  0.72747403  1
  P  P243  1  0.20731469  0.08493000  0.97742970  1
  P  P244  1  0.20833651  0.41858452  0.22844231  1
  P  P245  1  0.20811627  0.41572768  0.47616557  1
  P  P246  1  0.20735690  0.41465908  0.72671302  1
  P  P247  1  0.20673679  0.41695536  0.97855105  1
  P  P248  1  0.20902514  0.75007794  0.22642942  1
  P  P249  1  0.20786401  0.74870871  0.47695807  1
  P  P250  1  0.20765789  0.75151309  0.72719669  1
  P  P251  1  0.20824131  0.75131041  0.97802562  1
  P  P252  1  0.70806989  0.08538518  0.22832288  1
  P  P253  1  0.70851242  0.08388320  0.47669554  1
  P  P254  1  0.70785714  0.08516450  0.72777584  1
  P  P255  1  0.70844169  0.08396441  0.97639918  1
  P  P256  1  0.70708709  0.41564325  0.22903643  1
  P  P257  1  0.70816907  0.41478768  0.47830025  1
  P  P258  1  0.70753915  0.41754608  0.72798130  1
  P  P259  1  0.70748669  0.41728335  0.97765519  1
  P  P260  1  0.70770030  0.75080701  0.22879439  1
  P  P261  1  0.70781846  0.74976599  0.47889219  1
  P  P262  1  0.70700355  0.75005623  0.72853137  1
  P  P263  1  0.70720943  0.75059730  0.97845617  1
  P  P264  1  0.29170984  0.24851765  0.02256402  1
  P  P265  1  0.29193756  0.25134194  0.27246477  1
  P  P266  1  0.29087383  0.24963065  0.52291107  1
  P  P267  1  0.29165130  0.24808773  0.77149320  1
  P  P268  1  0.29122094  0.58338703  0.02377863  1
  P  P269  1  0.29166746  0.58391942  0.27306858  1
  P  P270  1  0.29209730  0.58275611  0.52028399  1
  P  P271  1  0.29257119  0.58312674  0.77137322  1
  P  P272  1  0.29197527  0.91547980  0.02212134  1
  P  P273  1  0.29202838  0.91820704  0.27196074  1
  P  P274  1  0.29167513  0.91523107  0.52193146  1
  P  P275  1  0.29182310  0.91504023  0.77227475  1
  P  P276  1  0.79224394  0.24841062  0.02235392  1
  P  P277  1  0.79143093  0.24982907  0.27363641  1
  P  P278  1  0.79228176  0.24832751  0.52205031  1
  P  P279  1  0.79245310  0.24863406  0.77226640  1
  P  P280  1  0.79307912  0.58281617  0.02170373  1
  P  P281  1  0.79380136  0.58325655  0.27225407  1
  P  P282  1  0.79277571  0.58112142  0.52319333  1
  P  P283  1  0.79210614  0.58121287  0.77263754  1
  P  P284  1  0.79324474  0.91820339  0.02127160  1
  P  P285  1  0.79307329  0.91922913  0.27294060  1
  P  P286  1  0.79295739  0.91778547  0.52137591  1
  P  P287  1  0.79240230  0.91858433  0.77241112  1
  O  O288  1  0.03588871  0.25193464  0.18330998  1
  O  O289  1  0.03650013  0.24862485  0.43163953  1
  O  O290  1  0.03698073  0.24812046  0.68232337  1
  O  O291  1  0.03737753  0.24996213  0.93215593  1
  O  O292  1  0.03700660  0.58429831  0.18227724  1
  O  O293  1  0.03746223  0.58294082  0.43185514  1
  O  O294  1  0.03700449  0.58404861  0.68267381  1
  O  O295  1  0.03647411  0.58402007  0.93148332  1
  O  O296  1  0.03739812  0.91534445  0.18256246  1
  O  O297  1  0.03701641  0.91516006  0.43292694  1
  O  O298  1  0.03683665  0.91703872  0.68137028  1
  O  O299  1  0.03708596  0.91658739  0.93218624  1
  O  O300  1  0.53665509  0.24935962  0.18273338  1
  O  O301  1  0.53595303  0.25166016  0.43337804  1
  O  O302  1  0.53731766  0.25034425  0.68218756  1
  O  O303  1  0.53725028  0.24868064  0.93328253  1
  O  O304  1  0.53699537  0.58447865  0.18326823  1
  O  O305  1  0.53717238  0.58303312  0.43481503  1
  O  O306  1  0.53647200  0.58389444  0.68144478  1
  O  O307  1  0.53701798  0.58425272  0.93378899  1
  O  O308  1  0.53816679  0.91598863  0.18353338  1
  O  O309  1  0.53639476  0.91579478  0.43352754  1
  O  O310  1  0.53617320  0.91711654  0.68203966  1
  O  O311  1  0.53680827  0.91672921  0.93113486  1
  O  O312  1  0.46216661  0.08402216  0.06667510  1
  O  O313  1  0.46224179  0.08222796  0.31776644  1
  O  O314  1  0.46294911  0.08117254  0.56681449  1
  O  O315  1  0.46316920  0.08308945  0.81697763  1
  O  O316  1  0.46197316  0.41589038  0.06839489  1
  O  O317  1  0.46346464  0.41585717  0.31857216  1
  O  O318  1  0.46300812  0.41669539  0.56573979  1
  O  O319  1  0.46097979  0.41689553  0.81707129  1
  O  O320  1  0.46297045  0.75029938  0.06829452  1
  O  O321  1  0.46347136  0.75111814  0.31892417  1
  O  O322  1  0.46347897  0.75152625  0.56677319  1
  O  O323  1  0.46239895  0.74967586  0.81770007  1
  O  O324  1  0.96266559  0.08477304  0.06786054  1
  O  O325  1  0.96424146  0.08352613  0.31806838  1
  O  O326  1  0.96461636  0.08322546  0.56762861  1
  O  O327  1  0.96374873  0.08325831  0.81610754  1
  O  O328  1  0.96359140  0.41652248  0.06820412  1
  O  O329  1  0.96307580  0.41615168  0.31585452  1
  O  O330  1  0.96282244  0.41748936  0.56736623  1
  O  O331  1  0.96355821  0.41624539  0.81718349  1
  O  O332  1  0.96352474  0.75204088  0.06698345  1
  O  O333  1  0.96382831  0.75044555  0.31842257  1
  O  O334  1  0.96324490  0.74868689  0.56694391  1
  O  O335  1  0.96396730  0.74952474  0.81790400  1
  O  O336  1  0.21252920  0.08495215  0.05738827  1
  O  O337  1  0.21274434  0.08372833  0.30761044  1
  O  O338  1  0.21325106  0.08214671  0.55764631  1
  O  O339  1  0.21270979  0.08431569  0.80740873  1
  O  O340  1  0.21197189  0.41758971  0.05848379  1
  O  O341  1  0.21395787  0.41825670  0.30830613  1
  O  O342  1  0.21310408  0.41496438  0.55615473  1
  O  O343  1  0.21226838  0.41479855  0.80668653  1
  O  O344  1  0.21353761  0.75110619  0.05789505  1
  O  O345  1  0.21392954  0.74917889  0.30639390  1
  O  O346  1  0.21295100  0.74938236  0.55688496  1
  O  O347  1  0.21298442  0.75175738  0.80716166  1
  O  O348  1  0.71344551  0.08427085  0.05637603  1
  O  O349  1  0.71348431  0.08490114  0.30820575  1
  O  O350  1  0.71335342  0.08433128  0.55666803  1
  O  O351  1  0.71321653  0.08468231  0.80763741  1
  O  O352  1  0.71253806  0.41676005  0.05764263  1
  O  O353  1  0.71239318  0.41489775  0.30898154  1
  O  O354  1  0.71355512  0.41553509  0.55823261  1
  O  O355  1  0.71272187  0.41763902  0.80794629  1
  O  O356  1  0.71252826  0.75087772  0.05842036  1
  O  O357  1  0.71294697  0.75076830  0.30878447  1
  O  O358  1  0.71282026  0.74965873  0.55886077  1
  O  O359  1  0.71201715  0.75003140  0.80851778  1
  O  O360  1  0.28668729  0.25082329  0.19257554  1
  O  O361  1  0.28590148  0.25034394  0.44291044  1
  O  O362  1  0.28595468  0.24834800  0.69161395  1
  O  O363  1  0.28644117  0.24828569  0.94260195  1
  O  O364  1  0.28665939  0.58384278  0.19310222  1
  O  O365  1  0.28662100  0.58300995  0.44038937  1
  O  O366  1  0.28752349  0.58304611  0.69141124  1
  O  O367  1  0.28665849  0.58377272  0.94379281  1
  O  O368  1  0.28673140  0.91781840  0.19204656  1
  O  O369  1  0.28647956  0.91604527  0.44202108  1
  O  O370  1  0.28654917  0.91492592  0.69231748  1
  O  O371  1  0.28661406  0.91527452  0.94219153  1
  O  O372  1  0.78641893  0.24946118  0.19366305  1
  O  O373  1  0.78669715  0.24875863  0.44219177  1
  O  O374  1  0.78731460  0.24861639  0.69232516  1
  O  O375  1  0.78720970  0.24864902  0.94239212  1
  O  O376  1  0.78873237  0.58355560  0.19229279  1
  O  O377  1  0.78791592  0.58155816  0.44319747  1
  O  O378  1  0.78667466  0.58102853  0.69269478  1
  O  O379  1  0.78763822  0.58218988  0.94174312  1
  O  O380  1  0.78796667  0.91906327  0.19293099  1
  O  O381  1  0.78785292  0.91831659  0.44143184  1
  O  O382  1  0.78737469  0.91825957  0.69241458  1
  O  O383  1  0.78781844  0.91860738  0.94133369  1
  O  O384  1  0.22749529  0.24902438  0.05840937  1
  O  O385  1  0.22767595  0.25148761  0.30820001  1
  O  O386  1  0.22671383  0.24916181  0.55876259  1
  O  O387  1  0.22756795  0.24770184  0.80792257  1
  O  O388  1  0.22699386  0.58263044  0.05942019  1
  O  O389  1  0.22749570  0.58393331  0.30908301  1
  O  O390  1  0.22801295  0.58281099  0.55625454  1
  O  O391  1  0.22812314  0.58361829  0.80636732  1
  O  O392  1  0.22778826  0.91531892  0.05803574  1
  O  O393  1  0.22775420  0.91813999  0.30770436  1
  O  O394  1  0.22747907  0.91497538  0.55781374  1
  O  O395  1  0.22759631  0.91502392  0.80806749  1
  O  O396  1  0.72785747  0.24809790  0.05785754  1
  O  O397  1  0.72727828  0.24986021  0.30968516  1
  O  O398  1  0.72814927  0.24822291  0.55823656  1
  O  O399  1  0.72822201  0.24871501  0.80798774  1
  O  O400  1  0.72876679  0.58312454  0.05709190  1
  O  O401  1  0.72933836  0.58301444  0.30715138  1
  O  O402  1  0.72829122  0.58062768  0.55833694  1
  O  O403  1  0.72789020  0.58130755  0.80847719  1
  O  O404  1  0.72894153  0.91812854  0.05666683  1
  O  O405  1  0.72871452  0.91947221  0.30832319  1
  O  O406  1  0.72860036  0.91761739  0.55658257  1
  O  O407  1  0.72804814  0.91899325  0.80775546  1
  O  O408  1  0.27146164  0.08494887  0.19172542  1
  O  O409  1  0.27197526  0.08170644  0.44172501  1
  O  O410  1  0.27185450  0.08411277  0.69177572  1
  O  O411  1  0.27154562  0.08479347  0.94161055  1
  O  O412  1  0.27232756  0.41875009  0.19201526  1
  O  O413  1  0.27231501  0.41594517  0.44024337  1
  O  O414  1  0.27169450  0.41430399  0.69131350  1
  O  O415  1  0.27105093  0.41648638  0.94317996  1
  O  O416  1  0.27315180  0.75078912  0.19061032  1
  O  O417  1  0.27210786  0.74851264  0.44125912  1
  O  O418  1  0.27192281  0.75166317  0.69146530  1
  O  O419  1  0.27240073  0.75157317  0.94191408  1
  O  O420  1  0.77227681  0.08596895  0.19228289  1
  O  O421  1  0.77278850  0.08403386  0.44094620  1
  O  O422  1  0.77215415  0.08563701  0.69193408  1
  O  O423  1  0.77263176  0.08345409  0.94037641  1
  O  O424  1  0.77146627  0.41560960  0.19379248  1
  O  O425  1  0.77233530  0.41402190  0.44236889  1
  O  O426  1  0.77190222  0.41755772  0.69242314  1
  O  O427  1  0.77186897  0.41739117  0.94227735  1
  O  O428  1  0.77214825  0.75076572  0.19375541  1
  O  O429  1  0.77228394  0.75031534  0.44399180  1
  O  O430  1  0.77152389  0.74954808  0.69375115  1
  O  O431  1  0.77158279  0.75060278  0.94329723  1
  O  O432  1  0.02216711  0.08484023  0.18319261  1
  O  O433  1  0.02358357  0.08358550  0.43407028  1
  O  O434  1  0.02324269  0.08233969  0.68424669  1
  O  O435  1  0.02201800  0.08363300  0.93225150  1
  O  O436  1  0.02275357  0.41700662  0.18438776  1
  O  O437  1  0.02195373  0.41621728  0.43150945  1
  O  O438  1  0.02231127  0.41726210  0.68265406  1
  O  O439  1  0.02225248  0.41560713  0.93320042  1
  O  O440  1  0.02243836  0.75186816  0.18295774  1
  O  O441  1  0.02318003  0.74908031  0.43432367  1
  O  O442  1  0.02210899  0.74861606  0.68290324  1
  O  O443  1  0.02309004  0.74980512  0.93408937  1
  O  O444  1  0.52106323  0.08326134  0.18209764  1
  O  O445  1  0.52168859  0.08212532  0.43307027  1
  O  O446  1  0.52202635  0.08116328  0.68241867  1
  O  O447  1  0.52220119  0.08465754  0.93280124  1
  O  O448  1  0.52173492  0.41499763  0.18363051  1
  O  O449  1  0.52262557  0.41667561  0.43455651  1
  O  O450  1  0.52139410  0.41707740  0.68168290  1
  O  O451  1  0.52030837  0.41675390  0.93213068  1
  O  O452  1  0.52207864  0.75191777  0.18404878  1
  O  O453  1  0.52274170  0.75133329  0.43478727  1
  O  O454  1  0.52199443  0.75213642  0.68301414  1
  O  O455  1  0.52175789  0.74816696  0.93325731  1
  O  O456  1  0.47750636  0.24781441  0.06702144  1
  O  O457  1  0.47717818  0.25147002  0.31747278  1
  O  O458  1  0.47767893  0.25076546  0.56713160  1
  O  O459  1  0.47824783  0.24917856  0.81796935  1
  O  O460  1  0.47745180  0.58518477  0.06785846  1
  O  O461  1  0.47844987  0.58328502  0.31909225  1
  O  O462  1  0.47725273  0.58313252  0.56558342  1
  O  O463  1  0.47794716  0.58402206  0.81843871  1
  O  O464  1  0.47899319  0.91657093  0.06831704  1
  O  O465  1  0.47780861  0.91463984  0.31734318  1
  O  O466  1  0.47739504  0.91673885  0.56577055  1
  O  O467  1  0.47726316  0.91650143  0.81533057  1
  O  O468  1  0.97747306  0.25246446  0.06695966  1
  O  O469  1  0.97708651  0.24951797  0.31574744  1
  O  O470  1  0.97785402  0.24788551  0.56665177  1
  O  O471  1  0.97813740  0.24870646  0.81652451  1
  O  O472  1  0.97807514  0.58527438  0.06641121  1
  O  O473  1  0.97819606  0.58208153  0.31625492  1
  O  O474  1  0.97830193  0.58494281  0.56656575  1
  O  O475  1  0.97742924  0.58379105  0.81536346  1
  O  O476  1  0.97816214  0.91552547  0.06691684  1
  O  O477  1  0.97836280  0.91485991  0.31674733  1
  O  O478  1  0.97727630  0.91692447  0.56552161  1
  O  O479  1  0.97816010  0.91806348  0.81622376  1
  O  O480  1  0.07245733  0.31582443  0.07486592  1
  O  O481  1  0.07202859  0.31321629  0.32378630  1
  O  O482  1  0.07278938  0.31204696  0.57443238  1
  O  O483  1  0.07374153  0.31234407  0.82377997  1
  O  O484  1  0.07311183  0.64837361  0.07397607  1
  O  O485  1  0.07353228  0.64598658  0.32377560  1
  O  O486  1  0.07368112  0.64767331  0.57409798  1
  O  O487  1  0.07274401  0.64720565  0.82317539  1
  O  O488  1  0.07328818  0.97960775  0.07515204  1
  O  O489  1  0.07358396  0.97854457  0.32485240  1
  O  O490  1  0.07268106  0.97999801  0.57273950  1
  O  O491  1  0.07340749  0.98087936  0.82410113  1
  O  O492  1  0.57263651  0.31239715  0.07451261  1
  O  O493  1  0.57230806  0.31476274  0.32451668  1
  O  O494  1  0.57279544  0.31454623  0.57398205  1
  O  O495  1  0.57327082  0.31332469  0.82565314  1
  O  O496  1  0.57263354  0.64846902  0.07493828  1
  O  O497  1  0.57384817  0.64683196  0.32686466  1
  O  O498  1  0.57155789  0.64793711  0.57341287  1
  O  O499  1  0.57386185  0.64683137  0.82513377  1
  O  O500  1  0.57435868  0.98006668  0.07549437  1
  O  O501  1  0.57269497  0.97923081  0.32551090  1
  O  O502  1  0.57240691  0.98047386  0.57340138  1
  O  O503  1  0.57222421  0.98042690  0.82297310  1
  O  O504  1  0.42568297  0.01975043  0.17432889  1
  O  O505  1  0.42695085  0.01792426  0.42600897  1
  O  O506  1  0.42660532  0.01812094  0.67568856  1
  O  O507  1  0.42704410  0.02013347  0.92508372  1
  O  O508  1  0.42646557  0.35186241  0.17666964  1
  O  O509  1  0.42752718  0.35283415  0.42718993  1
  O  O510  1  0.42613029  0.35333272  0.67403486  1
  O  O511  1  0.42492956  0.35299912  0.92488258  1
  O  O512  1  0.42681650  0.68773517  0.17677378  1
  O  O513  1  0.42860449  0.68646833  0.42698026  1
  O  O514  1  0.42687705  0.68784998  0.67436477  1
  O  O515  1  0.42635079  0.68571327  0.92640246  1
  O  O516  1  0.92688714  0.02109655  0.17563295  1
  O  O517  1  0.92924932  0.01920077  0.42633451  1
  O  O518  1  0.92798325  0.01936006  0.67565068  1
  O  O519  1  0.92675489  0.02006930  0.92442036  1
  O  O520  1  0.92741813  0.35371126  0.17683259  1
  O  O521  1  0.92663730  0.35268233  0.42436218  1
  O  O522  1  0.92647419  0.35397404  0.67473661  1
  O  O523  1  0.92735638  0.35204968  0.92545168  1
  O  O524  1  0.92690683  0.68846027  0.17486751  1
  O  O525  1  0.92802739  0.68579561  0.42606480  1
  O  O526  1  0.92686102  0.68556690  0.67597495  1
  O  O527  1  0.92787979  0.68647804  0.92636281  1
  O  O528  1  0.17579251  0.02156687  0.19918167  1
  O  O529  1  0.17729279  0.01791406  0.44940185  1
  O  O530  1  0.17659426  0.02029742  0.70003705  1
  O  O531  1  0.17646174  0.02094802  0.94975596  1
  O  O532  1  0.17699795  0.35509607  0.20044894  1
  O  O533  1  0.17706922  0.35229299  0.44758478  1
  O  O534  1  0.17644115  0.35121935  0.69821200  1
  O  O535  1  0.17563014  0.35331311  0.95070041  1
  O  O536  1  0.17849562  0.68642720  0.19746499  1
  O  O537  1  0.17710996  0.68509198  0.44861684  1
  O  O538  1  0.17680882  0.68756457  0.69967697  1
  O  O539  1  0.17725804  0.68761591  0.94977997  1
  O  O540  1  0.67712977  0.02177184  0.19997507  1
  O  O541  1  0.67808826  0.01988891  0.44860365  1
  O  O542  1  0.67693277  0.02155515  0.69930319  1
  O  O543  1  0.67758655  0.02021611  0.94821564  1
  O  O544  1  0.67564556  0.35265206  0.20018891  1
  O  O545  1  0.67712902  0.35117546  0.45035157  1
  O  O546  1  0.67672373  0.35358793  0.70033983  1
  O  O547  1  0.67647170  0.35363147  0.94969776  1
  O  O548  1  0.67657863  0.68727269  0.20083563  1
  O  O549  1  0.67716021  0.68600870  0.45090129  1
  O  O550  1  0.67562761  0.68666790  0.70054064  1
  O  O551  1  0.67619515  0.68698115  0.95069432  1
  O  O552  1  0.32301002  0.31229202  0.04997299  1
  O  O553  1  0.32265455  0.31500521  0.30080038  1
  O  O554  1  0.32166684  0.31313570  0.55159817  1
  O  O555  1  0.32267191  0.31174786  0.79966492  1
  O  O556  1  0.32126180  0.64749613  0.05238731  1
  O  O557  1  0.32261115  0.64761448  0.30134408  1
  O  O558  1  0.32352639  0.64597872  0.54875621  1
  O  O559  1  0.32383387  0.64658182  0.79939465  1
  O  O560  1  0.32280205  0.97955606  0.04939397  1
  O  O561  1  0.32251198  0.98189346  0.30053895  1
  O  O562  1  0.32305393  0.97842010  0.55046134  1
  O  O563  1  0.32260754  0.97905448  0.79985930  1
  O  O564  1  0.82290457  0.31228941  0.05047850  1
  O  O565  1  0.82209895  0.31361942  0.30180335  1
  O  O566  1  0.82366146  0.31169611  0.55033612  1
  O  O567  1  0.82343391  0.31249951  0.79993835  1
  O  O568  1  0.82414530  0.64658979  0.04929178  1
  O  O569  1  0.82480708  0.64671408  0.30058219  1
  O  O570  1  0.82344047  0.64490509  0.55127091  1
  O  O571  1  0.82318211  0.64515255  0.79998151  1
  O  O572  1  0.82463314  0.98141225  0.04968302  1
  O  O573  1  0.82391749  0.98278782  0.30121597  1
  O  O574  1  0.82414999  0.98109087  0.54982348  1
  O  O575  1  0.82326322  0.98215307  0.80050987  1
  O  O576  1  0.42547166  0.14651865  0.17538762  1
  O  O577  1  0.42593024  0.14518175  0.42551629  1
  O  O578  1  0.42692003  0.14521622  0.67424926  1
  O  O579  1  0.42695752  0.14728275  0.92523121  1
  O  O580  1  0.42671817  0.47924405  0.17651817  1
  O  O581  1  0.42765658  0.48020373  0.42619625  1
  O  O582  1  0.42583389  0.48021045  0.67358352  1
  O  O583  1  0.42479271  0.48000263  0.92545107  1
  O  O584  1  0.42700494  0.81482794  0.17637445  1
  O  O585  1  0.42687386  0.81378931  0.42723383  1
  O  O586  1  0.42689457  0.81486243  0.67547277  1
  O  O587  1  0.42681028  0.81284084  0.92579281  1
  O  O588  1  0.92717035  0.14836345  0.17635555  1
  O  O589  1  0.92812298  0.14649607  0.42645731  1
  O  O590  1  0.92880953  0.14666636  0.67613524  1
  O  O591  1  0.92659579  0.14675180  0.92406283  1
  O  O592  1  0.92824146  0.48117552  0.17577700  1
  O  O593  1  0.92644518  0.47940746  0.42409757  1
  O  O594  1  0.92773809  0.48120313  0.67623054  1
  O  O595  1  0.92690328  0.47912704  0.92516646  1
  O  O596  1  0.92746985  0.81532051  0.17603917  1
  O  O597  1  0.92845824  0.81318329  0.42733408  1
  O  O598  1  0.92693586  0.81246494  0.67472094  1
  O  O599  1  0.92845741  0.81398096  0.92557871  1
  O  O600  1  0.07273156  0.18877948  0.07547522  1
  O  O601  1  0.07220560  0.18587311  0.32299467  1
  O  O602  1  0.07323531  0.18492719  0.57378394  1
  O  O603  1  0.07292729  0.18530208  0.82398177  1
  O  O604  1  0.07318228  0.52126849  0.07427531  1
  O  O605  1  0.07312984  0.51881945  0.32353518  1
  O  O606  1  0.07332867  0.52069865  0.57460888  1
  O  O607  1  0.07194199  0.51972183  0.82348111  1
  O  O608  1  0.07341847  0.85248864  0.07345177  1
  O  O609  1  0.07341623  0.85153771  0.32450452  1
  O  O610  1  0.07159727  0.85261591  0.57332376  1
  O  O611  1  0.07311802  0.85379555  0.82391015  1
  O  O612  1  0.57277370  0.18523445  0.07446026  1
  O  O613  1  0.57234049  0.18761758  0.32615039  1
  O  O614  1  0.57318437  0.18728531  0.57424856  1
  O  O615  1  0.57412629  0.18646243  0.82456926  1
  O  O616  1  0.57268922  0.52105584  0.07553820  1
  O  O617  1  0.57392951  0.52010864  0.32629098  1
  O  O618  1  0.57269793  0.52033289  0.57359667  1
  O  O619  1  0.57292955  0.52005230  0.82571428  1
  O  O620  1  0.57454936  0.85328430  0.07487592  1
  O  O621  1  0.57323674  0.85214691  0.32527510  1
  O  O622  1  0.57260847  0.85335637  0.57408555  1
  O  O623  1  0.57216299  0.85287687  0.82315861  1
  O  O624  1  0.32231177  0.18513809  0.05152344  1
  O  O625  1  0.32315509  0.18797340  0.30081427  1
  O  O626  1  0.32175229  0.18568101  0.55049973  1
  O  O627  1  0.32280506  0.18475634  0.80006967  1
  O  O628  1  0.32262260  0.52012113  0.05200567  1
  O  O629  1  0.32252878  0.52036586  0.30172441  1
  O  O630  1  0.32316004  0.51917582  0.54837093  1
  O  O631  1  0.32317853  0.51948009  0.79970241  1
  O  O632  1  0.32314146  0.85244332  0.05116832  1
  O  O633  1  0.32328147  0.85473570  0.30001721  1
  O  O634  1  0.32219739  0.85135863  0.54997518  1
  O  O635  1  0.32296443  0.85196111  0.80113349  1
  O  O636  1  0.82323631  0.18521341  0.05121833  1
  O  O637  1  0.82251142  0.18640782  0.30207871  1
  O  O638  1  0.82315739  0.18480111  0.55053822  1
  O  O639  1  0.82338139  0.18543053  0.80113455  1
  O  O640  1  0.82429601  0.51958963  0.05031323  1
  O  O641  1  0.82474573  0.51963870  0.30016880  1
  O  O642  1  0.82361517  0.51754110  0.55134421  1
  O  O643  1  0.82303676  0.51795616  0.80146332  1
  O  O644  1  0.82417974  0.85456157  0.04937146  1
  O  O645  1  0.82395341  0.85547472  0.30071966  1
  O  O646  1  0.82395530  0.85419507  0.54948170  1
  O  O647  1  0.82331273  0.85479982  0.80016004  1
  O  O648  1  0.17682972  0.14869518  0.19985218  1
  O  O649  1  0.17647144  0.14507159  0.44971766  1
  O  O650  1  0.17669712  0.14732021  0.69825651  1
  O  O651  1  0.17629016  0.14812692  0.94873090  1
  O  O652  1  0.17739063  0.48207792  0.19995666  1
  O  O653  1  0.17750238  0.47972663  0.44838275  1
  O  O654  1  0.17660316  0.47844770  0.69875286  1
  O  O655  1  0.17572552  0.48022304  0.94966576  1
  O  O656  1  0.17790236  0.81385154  0.19897272  1
  O  O657  1  0.17670338  0.81210041  0.44862215  1
  O  O658  1  0.17657522  0.81465475  0.69816326  1
  O  O659  1  0.17718915  0.81456541  0.94910544  1
  O  O660  1  0.67693206  0.14868417  0.19961632  1
  O  O661  1  0.67727449  0.14715594  0.44822890  1
  O  O662  1  0.67679842  0.14842498  0.69892762  1
  O  O663  1  0.67778649  0.14759875  0.94797932  1
  O  O664  1  0.67633581  0.47954166  0.20134833  1
  O  O665  1  0.67727006  0.47833752  0.45004964  1
  O  O666  1  0.67655847  0.48066707  0.69889482  1
  O  O667  1  0.67679639  0.48093741  0.94951276  1
  O  O668  1  0.67687423  0.81447608  0.20080062  1
  O  O669  1  0.67652724  0.81312589  0.45084318  1
  O  O670  1  0.67649418  0.81382297  0.70035421  1
  O  O671  1  0.67603317  0.81399496  0.95023503  1
