# generated using pymatgen
data_Na2MnFe(PO4)2
_symmetry_space_group_name_H-M   'P 1'
_cell_length_a   22.34339349
_cell_length_b   20.09239302
_cell_length_c   19.44919230
_cell_angle_alpha   89.95254958
_cell_angle_beta   90.02896158
_cell_angle_gamma   89.98338465
_symmetry_Int_Tables_number   1
_chemical_formula_structural   Na2MnFe(PO4)2
_chemical_formula_sum   'Na96 Mn48 Fe48 P96 O384'
_cell_volume   8731.36505347
_cell_formula_units_Z   48
loop_
 _symmetry_equiv_pos_site_id
 _symmetry_equiv_pos_as_xyz
  1  'x, y, z'
loop_
 _atom_site_type_symbol
 _atom_site_label
 _atom_site_symmetry_multiplicity
 _atom_site_fract_x
 _atom_site_fract_y
 _atom_site_fract_z
 _atom_site_occupancy
  Na  Na0  1  0.13961840  0.24983551  0.24373414  1
  Na  Na1  1  0.13995893  0.25087114  0.49493736  1
  Na  Na2  1  0.14008850  0.25051233  0.74383076  1
  Na  Na3  1  0.14044392  0.25011774  0.99392062  1
  Na  Na4  1  0.14010266  0.58414477  0.24254856  1
  Na  Na5  1  0.14065963  0.58453072  0.49381148  1
  Na  Na6  1  0.14041868  0.58198146  0.74493547  1
  Na  Na7  1  0.14028753  0.58295372  0.99208054  1
  Na  Na8  1  0.14045085  0.91643695  0.24400398  1
  Na  Na9  1  0.13982212  0.91697321  0.49325945  1
  Na  Na10  1  0.14023109  0.91644993  0.74294034  1
  Na  Na11  1  0.14085005  0.91621836  0.99352801  1
  Na  Na12  1  0.63993717  0.25013665  0.24405710  1
  Na  Na13  1  0.64004389  0.25125308  0.49457930  1
  Na  Na14  1  0.63980101  0.24915963  0.74403143  1
  Na  Na15  1  0.64018649  0.25103295  0.99330198  1
  Na  Na16  1  0.64050966  0.58282119  0.24386981  1
  Na  Na17  1  0.64002619  0.58493843  0.49339590  1
  Na  Na18  1  0.64017327  0.58309367  0.74392227  1
  Na  Na19  1  0.64070469  0.58398924  0.99314948  1
  Na  Na20  1  0.64071329  0.91540476  0.24385566  1
  Na  Na21  1  0.63988000  0.91738034  0.49394737  1
  Na  Na22  1  0.64004808  0.91507825  0.74307880  1
  Na  Na23  1  0.64062002  0.91689152  0.99213217  1
  Na  Na24  1  0.35956852  0.08227800  0.00524792  1
  Na  Na25  1  0.35937183  0.08303497  0.25528201  1
  Na  Na26  1  0.35931364  0.08417830  0.50731033  1
  Na  Na27  1  0.35962148  0.08299070  0.75743988  1
  Na  Na28  1  0.35972953  0.41488095  0.00531261  1
  Na  Na29  1  0.35989746  0.41655120  0.25621259  1
  Na  Na30  1  0.35968939  0.41752380  0.50783162  1
  Na  Na31  1  0.35958606  0.41548384  0.75787894  1
  Na  Na32  1  0.36008717  0.74888576  0.00515433  1
  Na  Na33  1  0.36063987  0.75019575  0.25597815  1
  Na  Na34  1  0.36023894  0.75077692  0.50638127  1
  Na  Na35  1  0.35943966  0.74873920  0.75641184  1
  Na  Na36  1  0.85933249  0.08506096  0.00576384  1
  Na  Na37  1  0.85926052  0.08294236  0.25675577  1
  Na  Na38  1  0.85946280  0.08341159  0.50591192  1
  Na  Na39  1  0.85936142  0.08229251  0.75649534  1
  Na  Na40  1  0.85988796  0.41794591  0.00692917  1
  Na  Na41  1  0.85998461  0.41542590  0.25681023  1
  Na  Na42  1  0.85999773  0.41747031  0.50603882  1
  Na  Na43  1  0.85993146  0.41701671  0.75780039  1
  Na  Na44  1  0.86025849  0.75009050  0.00583459  1
  Na  Na45  1  0.86056736  0.74869305  0.25648602  1
  Na  Na46  1  0.86008943  0.75165879  0.50591541  1
  Na  Na47  1  0.85942467  0.74986303  0.75557258  1
  Na  Na48  1  0.10952091  0.08462628  0.11933553  1
  Na  Na49  1  0.10912354  0.08291308  0.36893432  1
  Na  Na50  1  0.10915816  0.08348566  0.61891052  1
  Na  Na51  1  0.10938956  0.08474522  0.86830100  1
  Na  Na52  1  0.10934630  0.41756021  0.11908161  1
  Na  Na53  1  0.10914466  0.41610640  0.36887012  1
  Na  Na54  1  0.10976019  0.41621369  0.62021883  1
  Na  Na55  1  0.10967704  0.41703712  0.86836647  1
  Na  Na56  1  0.11020766  0.74996559  0.11843640  1
  Na  Na57  1  0.10952625  0.75010010  0.36779970  1
  Na  Na58  1  0.10988076  0.75022808  0.61838821  1
  Na  Na59  1  0.11014702  0.74921951  0.86796729  1
  Na  Na60  1  0.60922343  0.08407388  0.11844081  1
  Na  Na61  1  0.60928131  0.08459304  0.36896401  1
  Na  Na62  1  0.60938142  0.08237039  0.61908261  1
  Na  Na63  1  0.60906624  0.08237442  0.86707044  1
  Na  Na64  1  0.60977676  0.41632652  0.11880356  1
  Na  Na65  1  0.60942811  0.41856397  0.36883594  1
  Na  Na66  1  0.60926811  0.41748324  0.61980494  1
  Na  Na67  1  0.60944065  0.41466537  0.86842993  1
  Na  Na68  1  0.61032929  0.74951114  0.11784327  1
  Na  Na69  1  0.61007962  0.75026661  0.36915217  1
  Na  Na70  1  0.60930823  0.74924599  0.61851032  1
  Na  Na71  1  0.61028587  0.74888145  0.86754681  1
  Na  Na72  1  0.38998882  0.24978688  0.13043222  1
  Na  Na73  1  0.39021911  0.25181276  0.38174589  1
  Na  Na74  1  0.39013023  0.24961319  0.63410323  1
  Na  Na75  1  0.38969004  0.24843497  0.88128669  1
  Na  Na76  1  0.39070606  0.58308828  0.12988205  1
  Na  Na77  1  0.39122354  0.58498119  0.38147097  1
  Na  Na78  1  0.39033661  0.58375078  0.63207988  1
  Na  Na79  1  0.39031124  0.58124026  0.88128321  1
  Na  Na80  1  0.39069562  0.91548517  0.13020471  1
  Na  Na81  1  0.39037243  0.91592344  0.38102210  1
  Na  Na82  1  0.39069164  0.91640752  0.63162064  1
  Na  Na83  1  0.39055893  0.91457444  0.88096623  1
  Na  Na84  1  0.89012762  0.25146423  0.13209958  1
  Na  Na85  1  0.89045469  0.24904403  0.38081595  1
  Na  Na86  1  0.89040525  0.25069634  0.63185704  1
  Na  Na87  1  0.88965559  0.25184745  0.88227664  1
  Na  Na88  1  0.89121694  0.58399985  0.13160528  1
  Na  Na89  1  0.89071480  0.58311834  0.38085173  1
  Na  Na90  1  0.89046131  0.58341636  0.63115688  1
  Na  Na91  1  0.89041807  0.58381650  0.88156863  1
  Na  Na92  1  0.89080611  0.91633995  0.13133680  1
  Na  Na93  1  0.89065059  0.91601193  0.38132921  1
  Na  Na94  1  0.89016742  0.91703464  0.63037863  1
  Na  Na95  1  0.89048682  0.91656376  0.88080698  1
  Mn  Mn96  1  0.74987513  -0.00008747  0.12466647  1
  Mn  Mn97  1  0.25008700  0.33335859  0.37573385  1
  Mn  Mn98  1  0.24945246  0.33242046  0.12500839  1
  Mn  Mn99  1  -0.00035796  0.83412833  0.74959237  1
  Mn  Mn100  1  -0.00036765  0.16813904  -0.00043557  1
  Mn  Mn101  1  -0.00003992  0.16667868  0.50016452  1
  Mn  Mn102  1  0.75015063  0.33372677  0.62507896  1
  Mn  Mn103  1  0.75024536  0.49977120  0.12444856  1
  Mn  Mn104  1  0.75001957  0.50053246  0.87537440  1
  Mn  Mn105  1  0.50019927  0.49869349  0.00039925  1
  Mn  Mn106  1  -0.00009122  0.00093965  0.00069717  1
  Mn  Mn107  1  0.25006068  0.16718209  0.37592446  1
  Mn  Mn108  1  0.74937846  0.16770139  0.12505489  1
  Mn  Mn109  1  0.74942848  0.00005852  0.37457143  1
  Mn  Mn110  1  0.49998328  0.16604082  -0.00061982  1
  Mn  Mn111  1  0.25026590  0.50011586  0.62591725  1
  Mn  Mn112  1  0.50011101  0.00019552  0.25014034  1
  Mn  Mn113  1  0.49973164  0.16721148  0.50046500  1
  Mn  Mn114  1  0.49988835  0.50095989  0.24947295  1
  Mn  Mn115  1  0.25082527  0.66725148  0.12385057  1
  Mn  Mn116  1  -0.00021488  0.66614535  0.74938197  1
  Mn  Mn117  1  0.75086991  0.83214972  0.12389682  1
  Mn  Mn118  1  0.74992127  -0.00029203  0.87500504  1
  Mn  Mn119  1  0.25063450  0.66812235  0.37392593  1
  Mn  Mn120  1  0.25018894  0.00049029  0.62508785  1
  Mn  Mn121  1  0.00052224  0.66687282  0.49991361  1
  Mn  Mn122  1  0.25003881  0.83254133  0.62479455  1
  Mn  Mn123  1  0.50022856  0.66574138  0.74943216  1
  Mn  Mn124  1  -0.00000071  -0.00002215  0.24998392  1
  Mn  Mn125  1  0.49987626  0.33486149  0.50150808  1
  Mn  Mn126  1  0.49893827  0.16826432  0.24903238  1
  Mn  Mn127  1  0.75043524  0.66656465  0.37484017  1
  Mn  Mn128  1  0.74964597  0.83349785  0.62500328  1
  Mn  Mn129  1  0.00039753  0.33535342  0.00125673  1
  Mn  Mn130  1  0.25020270  0.49964771  0.12414515  1
  Mn  Mn131  1  0.74970936  0.33351341  0.37558246  1
  Mn  Mn132  1  0.00050415  0.49906621  0.50009487  1
  Mn  Mn133  1  0.25005986  0.50081157  0.37587174  1
  Mn  Mn134  1  0.49909033  -0.00050512  0.50015253  1
  Mn  Mn135  1  0.50083589  0.83236920  -0.00045042  1
  Mn  Mn136  1  0.74968992  0.50147417  0.62619090  1
  Mn  Mn137  1  -0.00093391  0.16734444  0.74954392  1
  Mn  Mn138  1  0.75039190  0.16611540  0.62524412  1
  Mn  Mn139  1  0.24949573  -0.00046668  0.87517366  1
  Mn  Mn140  1  0.50094620  0.83270039  0.24972376  1
  Mn  Mn141  1  0.00109140  0.83287099  0.00010335  1
  Mn  Mn142  1  0.24954175  -0.00007525  0.37497286  1
  Mn  Mn143  1  0.25025645  -0.00060379  0.12478244  1
  Fe  Fe144  1  0.50059373  0.83309824  0.50036734  1
  Fe  Fe145  1  0.00047786  0.83307080  0.25016580  1
  Fe  Fe146  1  0.49951771  0.33294842  0.74997339  1
  Fe  Fe147  1  0.75047317  0.66698371  0.87472541  1
  Fe  Fe148  1  0.74982870  0.33330910  0.87571113  1
  Fe  Fe149  1  0.75027397  0.83322375  0.37510159  1
  Fe  Fe150  1  0.00002263  0.50007384  0.75057224  1
  Fe  Fe151  1  0.50005456  0.49955902  0.75026056  1
  Fe  Fe152  1  -0.00016030  0.50074986  0.00055412  1
  Fe  Fe153  1  -0.00044794  0.16683308  0.25063808  1
  Fe  Fe154  1  0.75029977  0.83266043  0.87400608  1
  Fe  Fe155  1  0.00037924  0.50037141  0.25006170  1
  Fe  Fe156  1  0.49958245  0.16560308  0.75072669  1
  Fe  Fe157  1  0.75013314  0.66664486  0.12471290  1
  Fe  Fe158  1  0.25009059  0.33316235  0.62649218  1
  Fe  Fe159  1  0.25021216  0.83359219  0.37502382  1
  Fe  Fe160  1  0.24934902  0.16718052  0.62616423  1
  Fe  Fe161  1  0.50008854  -0.00131685  0.74960035  1
  Fe  Fe162  1  0.24992902  0.83246733  0.87425930  1
  Fe  Fe163  1  0.25007331  0.49914734  0.87434618  1
  Fe  Fe164  1  0.25029064  0.66629607  0.87497031  1
  Fe  Fe165  1  0.74961113  -0.00003675  0.62470298  1
  Fe  Fe166  1  0.49957173  0.50061949  0.50002094  1
  Fe  Fe167  1  0.75024950  0.50020170  0.37489349  1
  Fe  Fe168  1  -0.00047131  -0.00029158  0.49939514  1
  Fe  Fe169  1  0.00029965  0.33362098  0.25016104  1
  Fe  Fe170  1  0.50060253  0.66695289  0.25041978  1
  Fe  Fe171  1  -0.00058457  0.33318746  0.49982417  1
  Fe  Fe172  1  0.00014678  0.83345613  0.49942122  1
  Fe  Fe173  1  0.49977440  0.33255767  -0.00078632  1
  Fe  Fe174  1  0.24956226  0.66643516  0.62558210  1
  Fe  Fe175  1  0.49960049  0.83243147  0.74996040  1
  Fe  Fe176  1  0.00062292  0.66656092  0.24970017  1
  Fe  Fe177  1  0.50059472  0.66566726  -0.00081571  1
  Fe  Fe178  1  -0.00000128  0.00015633  0.74951531  1
  Fe  Fe179  1  0.75005218  0.66732179  0.62432668  1
  Fe  Fe180  1  -0.00070020  0.33434131  0.75050989  1
  Fe  Fe181  1  0.50013983  -0.00100419  -0.00103295  1
  Fe  Fe182  1  0.00032207  0.66645104  0.00011634  1
  Fe  Fe183  1  0.25037281  0.83302936  0.12403194  1
  Fe  Fe184  1  0.49985880  0.33445821  0.25035407  1
  Fe  Fe185  1  0.24913581  0.16642388  0.87512681  1
  Fe  Fe186  1  0.74950991  0.16678084  0.37517647  1
  Fe  Fe187  1  0.49976376  0.66691693  0.50066882  1
  Fe  Fe188  1  0.75003579  0.33339342  0.12557886  1
  Fe  Fe189  1  0.74951075  0.16684699  0.87510132  1
  Fe  Fe190  1  0.25023659  0.16630255  0.12483440  1
  Fe  Fe191  1  0.24996673  0.33220577  0.87524610  1
  P  P192  1  0.04242958  0.25075575  0.10425083  1
  P  P193  1  0.04128808  0.25012589  0.35215260  1
  P  P194  1  0.04133452  0.25181658  0.60300232  1
  P  P195  1  0.04157229  0.25211983  0.85221479  1
  P  P196  1  0.04194538  0.58366215  0.10224024  1
  P  P197  1  0.04174122  0.58316818  0.35142367  1
  P  P198  1  0.04295288  0.58259268  0.60341234  1
  P  P199  1  0.04185527  0.58227344  0.85328603  1
  P  P200  1  0.04305340  0.91664276  0.10367952  1
  P  P201  1  0.04209553  0.91531672  0.35291846  1
  P  P202  1  0.04132535  0.91717328  0.60140408  1
  P  P203  1  0.04261592  0.91814482  0.85216614  1
  P  P204  1  0.54196111  0.25150592  0.10219677  1
  P  P205  1  0.54189452  0.25221496  0.35260311  1
  P  P206  1  0.54203330  0.25015110  0.60480119  1
  P  P207  1  0.54070014  0.24957701  0.85172496  1
  P  P208  1  0.54260587  0.58435259  0.10242380  1
  P  P209  1  0.54237514  0.58500771  0.35324752  1
  P  P210  1  0.54114365  0.58276911  0.60197297  1
  P  P211  1  0.54224454  0.58130371  0.85271299  1
  P  P212  1  0.54297189  0.91738746  0.10166691  1
  P  P213  1  0.54307295  0.91625039  0.35358380  1
  P  P214  1  0.54188760  0.91515123  0.60336483  1
  P  P215  1  0.54152940  0.91567282  0.85138074  1
  P  P216  1  0.45715076  0.08297358  0.14589789  1
  P  P217  1  0.45660697  0.08396096  0.39705840  1
  P  P218  1  0.45827594  0.08250667  0.64894867  1
  P  P219  1  0.45813451  0.08093665  0.89625396  1
  P  P220  1  0.45754878  0.41547136  0.14710282  1
  P  P221  1  0.45743828  0.41867809  0.39777785  1
  P  P222  1  0.45805346  0.41730157  0.64866616  1
  P  P223  1  0.45804117  0.41454599  0.89657461  1
  P  P224  1  0.45854792  0.74814422  0.14691719  1
  P  P225  1  0.45926273  0.75014753  0.39851254  1
  P  P226  1  0.45784259  0.75085726  0.64698671  1
  P  P227  1  0.45850278  0.74801649  0.89670692  1
  P  P228  1  0.95718430  0.08513621  0.14793969  1
  P  P229  1  0.95775645  0.08241003  0.39722551  1
  P  P230  1  0.95744134  0.08189424  0.64695108  1
  P  P231  1  0.95703781  0.08374715  0.89635165  1
  P  P232  1  0.95877388  0.41775864  0.14878691  1
  P  P233  1  0.95813201  0.41514759  0.39661478  1
  P  P234  1  0.95809590  0.41705390  0.64860948  1
  P  P235  1  0.95782112  0.41884024  0.89761433  1
  P  P236  1  0.95942795  0.74977335  0.14816732  1
  P  P237  1  0.95834102  0.75095490  0.39659102  1
  P  P238  1  0.95735915  0.75069225  0.64604620  1
  P  P239  1  0.95831706  0.74875930  0.89758712  1
  P  P240  1  0.20760648  0.08418635  0.22729964  1
  P  P241  1  0.20684201  0.08398665  0.47902716  1
  P  P242  1  0.20757908  0.08467719  0.72818737  1
  P  P243  1  0.20749498  0.08427433  0.97780298  1
  P  P244  1  0.20719260  0.41672370  0.22807774  1
  P  P245  1  0.20737277  0.41677423  0.47945096  1
  P  P246  1  0.20834379  0.41522061  0.72894703  1
  P  P247  1  0.20860760  0.41587351  0.97614378  1
  P  P248  1  0.20848321  0.75169933  0.22699647  1
  P  P249  1  0.20755087  0.75125070  0.47736098  1
  P  P250  1  0.20769413  0.74816041  0.72828214  1
  P  P251  1  0.20865117  0.75007320  0.97631146  1
  P  P252  1  0.70677693  0.08342394  0.22830686  1
  P  P253  1  0.70728267  0.08452393  0.47771949  1
  P  P254  1  0.70763771  0.08165432  0.72773806  1
  P  P255  1  0.70728972  0.08494800  0.97712084  1
  P  P256  1  0.70794538  0.41570101  0.22779237  1
  P  P257  1  0.70758225  0.41892759  0.47772119  1
  P  P258  1  0.70754288  0.41641872  0.72915915  1
  P  P259  1  0.70797900  0.41585067  0.97791519  1
  P  P260  1  0.70824065  0.74847572  0.22735393  1
  P  P261  1  0.70815557  0.75122705  0.47764538  1
  P  P262  1  0.70764872  0.74839953  0.72768414  1
  P  P263  1  0.70880939  0.74984808  0.97629534  1
  P  P264  1  0.29183062  0.24815243  0.02162978  1
  P  P265  1  0.29269383  0.24968444  0.27182571  1
  P  P266  1  0.29170701  0.25035836  0.52496588  1
  P  P267  1  0.29092639  0.24941250  0.77325450  1
  P  P268  1  0.29255239  0.58296053  0.02005058  1
  P  P269  1  0.29328441  0.58362213  0.27154525  1
  P  P270  1  0.29234855  0.58517804  0.52310452  1
  P  P271  1  0.29138996  0.58323473  0.77326726  1
  P  P272  1  0.29240834  0.91480458  0.02145260  1
  P  P273  1  0.29238165  0.91522188  0.27202765  1
  P  P274  1  0.29280678  0.91648417  0.52166756  1
  P  P275  1  0.29196682  0.91518852  0.77260482  1
  P  P276  1  0.79221337  0.25236500  0.02219759  1
  P  P277  1  0.79192386  0.24902663  0.27275436  1
  P  P278  1  0.79274831  0.24992287  0.52177870  1
  P  P279  1  0.79124063  0.24982673  0.77380156  1
  P  P280  1  0.79247918  0.58520159  0.02214440  1
  P  P281  1  0.79251068  0.58182114  0.27208213  1
  P  P282  1  0.79245415  0.58473294  0.52223612  1
  P  P283  1  0.79238413  0.58515471  0.77234404  1
  P  P284  1  0.79317259  0.91657990  0.02091669  1
  P  P285  1  0.79251760  0.91484501  0.27244231  1
  P  P286  1  0.79176097  0.91808245  0.52205541  1
  P  P287  1  0.79205452  0.91536286  0.77196083  1
  O  O288  1  0.03712876  0.25030819  0.18415831  1
  O  O289  1  0.03584675  0.25033414  0.43212723  1
  O  O290  1  0.03556631  0.25199670  0.68285678  1
  O  O291  1  0.03690056  0.25209579  0.93219425  1
  O  O292  1  0.03680078  0.58363940  0.18214658  1
  O  O293  1  0.03719400  0.58313291  0.43140664  1
  O  O294  1  0.03762224  0.58220157  0.68333050  1
  O  O295  1  0.03655453  0.58271152  0.93317377  1
  O  O296  1  0.03775055  0.91587993  0.18360744  1
  O  O297  1  0.03655710  0.91551060  0.43280187  1
  O  O298  1  0.03626910  0.91760020  0.68140442  1
  O  O299  1  0.03779114  0.91779112  0.93213793  1
  O  O300  1  0.53655943  0.25174981  0.18212692  1
  O  O301  1  0.53691138  0.25193889  0.43261658  1
  O  O302  1  0.53648884  0.24972050  0.68469435  1
  O  O303  1  0.53599396  0.24958762  0.93171686  1
  O  O304  1  0.53727338  0.58485034  0.18237574  1
  O  O305  1  0.53687163  0.58458968  0.43309212  1
  O  O306  1  0.53640868  0.58237569  0.68196979  1
  O  O307  1  0.53709627  0.58184402  0.93261798  1
  O  O308  1  0.53784941  0.91695539  0.18163263  1
  O  O309  1  0.53774111  0.91578652  0.43353540  1
  O  O310  1  0.53625901  0.91517771  0.68324370  1
  O  O311  1  0.53670887  0.91623764  0.93137536  1
  O  O312  1  0.46262665  0.08240658  0.06594020  1
  O  O313  1  0.46180046  0.08423679  0.31709773  1
  O  O314  1  0.46276413  0.08313229  0.56892369  1
  O  O315  1  0.46363770  0.08116308  0.81636745  1
  O  O316  1  0.46274246  0.41515496  0.06713271  1
  O  O317  1  0.46263677  0.41799488  0.31783757  1
  O  O318  1  0.46308716  0.41809287  0.56869913  1
  O  O319  1  0.46353808  0.41485718  0.81672155  1
  O  O320  1  0.46390136  0.74807700  0.06697036  1
  O  O321  1  0.46424203  0.74935980  0.31854232  1
  O  O322  1  0.46323199  0.75101816  0.56713000  1
  O  O323  1  0.46356496  0.74882988  0.81676244  1
  O  O324  1  0.96227630  0.08512098  0.06795468  1
  O  O325  1  0.96313117  0.08329302  0.31731416  1
  O  O326  1  0.96287646  0.08188552  0.56701798  1
  O  O327  1  0.96220378  0.08324033  0.81637573  1
  O  O328  1  0.96375923  0.41863401  0.06881179  1
  O  O329  1  0.96381776  0.41546149  0.31681676  1
  O  O330  1  0.96282409  0.41637627  0.56862593  1
  O  O331  1  0.96278997  0.41844436  0.81771154  1
  O  O332  1  0.96438320  0.74908693  0.06820462  1
  O  O333  1  0.96381533  0.75083894  0.31670697  1
  O  O334  1  0.96269430  0.75121507  0.56612770  1
  O  O335  1  0.96301314  0.74901848  0.81761393  1
  O  O336  1  0.21306331  0.08413727  0.05770952  1
  O  O337  1  0.21274767  0.08372818  0.30729224  1
  O  O338  1  0.21194618  0.08437434  0.55902868  1
  O  O339  1  0.21277061  0.08452723  0.80816187  1
  O  O340  1  0.21335029  0.41615970  0.05613303  1
  O  O341  1  0.21221918  0.41697548  0.30807092  1
  O  O342  1  0.21274201  0.41634500  0.55943240  1
  O  O343  1  0.21388671  0.41512969  0.80879461  1
  O  O344  1  0.21388728  0.75059319  0.05628319  1
  O  O345  1  0.21358114  0.75180136  0.30694832  1
  O  O346  1  0.21220956  0.75033704  0.55733729  1
  O  O347  1  0.21327493  0.74836855  0.80815928  1
  O  O348  1  0.71236093  0.08466294  0.05707883  1
  O  O349  1  0.71194909  0.08375792  0.30828804  1
  O  O350  1  0.71281593  0.08360820  0.55765372  1
  O  O351  1  0.71255677  0.08195460  0.80763794  1
  O  O352  1  0.71324908  0.41560001  0.05786777  1
  O  O353  1  0.71321282  0.41657825  0.30771117  1
  O  O354  1  0.71262945  0.41883663  0.55770252  1
  O  O355  1  0.71292738  0.41593919  0.80909844  1
  O  O356  1  0.71387831  0.74927273  0.05627786  1
  O  O357  1  0.71320202  0.74915393  0.30727744  1
  O  O358  1  0.71334784  0.75049401  0.55756832  1
  O  O359  1  0.71314341  0.74862820  0.80756484  1
  O  O360  1  0.28767603  0.24918186  0.19185123  1
  O  O361  1  0.28716087  0.25046012  0.44491508  1
  O  O362  1  0.28572048  0.24972288  0.69334126  1
  O  O363  1  0.28615791  0.24845563  0.94174506  1
  O  O364  1  0.28837519  0.58345270  0.19152515  1
  O  O365  1  0.28741270  0.58501471  0.44312034  1
  O  O366  1  0.28636654  0.58360782  0.69329936  1
  O  O367  1  0.28698528  0.58297516  0.94015742  1
  O  O368  1  0.28705056  0.91516844  0.19203032  1
  O  O369  1  0.28760493  0.91638752  0.44170808  1
  O  O370  1  0.28688811  0.91567849  0.69266361  1
  O  O371  1  0.28668150  0.91480896  0.94155182  1
  O  O372  1  0.78671655  0.24985897  0.19281378  1
  O  O373  1  0.78735138  0.24953198  0.44187826  1
  O  O374  1  0.78655562  0.24986381  0.69379230  1
  O  O375  1  0.78703157  0.25246510  0.94229552  1
  O  O376  1  0.78740476  0.58228788  0.19216986  1
  O  O377  1  0.78718311  0.58365361  0.44229227  1
  O  O378  1  0.78709640  0.58540005  0.69239353  1
  O  O379  1  0.78717326  0.58529839  0.94220450  1
  O  O380  1  0.78755833  0.91508677  0.19244031  1
  O  O381  1  0.78664862  0.91740318  0.44214422  1
  O  O382  1  0.78658886  0.91610566  0.69204746  1
  O  O383  1  0.78788214  0.91617494  0.94097212  1
  O  O384  1  0.22778952  0.24772897  0.05803433  1
  O  O385  1  0.22824945  0.25007346  0.30694091  1
  O  O386  1  0.22728998  0.25038395  0.56025016  1
  O  O387  1  0.22685564  0.24976619  0.80951159  1
  O  O388  1  0.22843353  0.58342683  0.05597290  1
  O  O389  1  0.22878461  0.58396917  0.30642048  1
  O  O390  1  0.22797407  0.58475215  0.55846748  1
  O  O391  1  0.22736233  0.58368997  0.80930948  1
  O  O392  1  0.22830494  0.91488845  0.05759848  1
  O  O393  1  0.22814252  0.91494430  0.30794568  1
  O  O394  1  0.22843027  0.91672229  0.55685582  1
  O  O395  1  0.22763595  0.91499880  0.80799577  1
  O  O396  1  0.72790629  0.25265818  0.05800824  1
  O  O397  1  0.72767311  0.24872686  0.30852806  1
  O  O398  1  0.72844867  0.24999182  0.55715012  1
  O  O399  1  0.72697146  0.24982790  0.80944057  1
  O  O400  1  0.72822760  0.58493359  0.05786076  1
  O  O401  1  0.72825409  0.58188460  0.30782443  1
  O  O402  1  0.72811697  0.58558184  0.55795974  1
  O  O403  1  0.72816768  0.58496459  0.80814028  1
  O  O404  1  0.72879289  0.91625522  0.05614443  1
  O  O405  1  0.72813684  0.91483069  0.30779185  1
  O  O406  1  0.72753451  0.91826200  0.55784535  1
  O  O407  1  0.72787701  0.91479654  0.80787667  1
  O  O408  1  0.27188985  0.08441401  0.19165983  1
  O  O409  1  0.27125510  0.08344510  0.44396201  1
  O  O410  1  0.27185288  0.08492299  0.69252758  1
  O  O411  1  0.27162910  0.08415908  0.94180001  1
  O  O412  1  0.27158792  0.41618334  0.19298903  1
  O  O413  1  0.27174430  0.41701178  0.44415146  1
  O  O414  1  0.27239575  0.41518368  0.69265747  1
  O  O415  1  0.27276953  0.41514740  0.94043383  1
  O  O416  1  0.27278069  0.75171975  0.19132798  1
  O  O417  1  0.27204931  0.75198110  0.44214628  1
  O  O418  1  0.27184634  0.74795631  0.69218557  1
  O  O419  1  0.27280627  0.74982883  0.94028584  1
  O  O420  1  0.77114532  0.08352673  0.19306739  1
  O  O421  1  0.77146230  0.08496006  0.44170561  1
  O  O422  1  0.77197384  0.08123795  0.69217695  1
  O  O423  1  0.77164668  0.08494561  0.94175938  1
  O  O424  1  0.77218365  0.41531523  0.19193688  1
  O  O425  1  0.77192855  0.41845522  0.44232033  1
  O  O426  1  0.77180746  0.41711022  0.69369202  1
  O  O427  1  0.77220605  0.41612610  0.94224770  1
  O  O428  1  0.77264004  0.74798624  0.19189758  1
  O  O429  1  0.77238177  0.75133056  0.44182809  1
  O  O430  1  0.77178956  0.74832154  0.69156400  1
  O  O431  1  0.77297836  0.75044497  0.94030394  1
  O  O432  1  0.02153906  0.08516988  0.18341183  1
  O  O433  1  0.02189777  0.08195968  0.43327260  1
  O  O434  1  0.02161836  0.08246800  0.68298413  1
  O  O435  1  0.02143514  0.08412629  0.93162613  1
  O  O436  1  0.02292869  0.41701383  0.18469503  1
  O  O437  1  0.02216741  0.41463931  0.43313859  1
  O  O438  1  0.02231314  0.41723182  0.68452066  1
  O  O439  1  0.02209439  0.41951229  0.93348737  1
  O  O440  1  0.02353416  0.75035645  0.18420269  1
  O  O441  1  0.02245666  0.75127679  0.43284487  1
  O  O442  1  0.02159246  0.75043231  0.68159929  1
  O  O443  1  0.02272334  0.74828008  0.93290152  1
  O  O444  1  0.52135379  0.08386628  0.18160434  1
  O  O445  1  0.52102591  0.08349574  0.43221324  1
  O  O446  1  0.52256497  0.08194252  0.68439255  1
  O  O447  1  0.52220257  0.08097880  0.93260167  1
  O  O448  1  0.52179518  0.41579962  0.18297420  1
  O  O449  1  0.52176276  0.41897761  0.43351065  1
  O  O450  1  0.52225177  0.41692149  0.68465151  1
  O  O451  1  0.52213253  0.41431760  0.93291549  1
  O  O452  1  0.52280936  0.74798387  0.18281960  1
  O  O453  1  0.52331545  0.75052076  0.43466868  1
  O  O454  1  0.52200348  0.75082228  0.68309321  1
  O  O455  1  0.52276457  0.74791045  0.93246337  1
  O  O456  1  0.47777255  0.25108398  0.06617529  1
  O  O457  1  0.47752193  0.25265689  0.31709250  1
  O  O458  1  0.47783827  0.25050014  0.56895988  1
  O  O459  1  0.47656794  0.24999148  0.81586289  1
  O  O460  1  0.47840822  0.58410941  0.06646014  1
  O  O461  1  0.47826356  0.58540334  0.31687569  1
  O  O462  1  0.47696868  0.58247771  0.56611125  1
  O  O463  1  0.47800121  0.58125256  0.81688228  1
  O  O464  1  0.47863335  0.91720158  0.06607703  1
  O  O465  1  0.47876197  0.91608337  0.31812421  1
  O  O466  1  0.47780750  0.91459057  0.56703225  1
  O  O467  1  0.47728248  0.91576801  0.81555957  1
  O  O468  1  0.97817158  0.25136878  0.06856346  1
  O  O469  1  0.97729079  0.25030348  0.31566893  1
  O  O470  1  0.97729088  0.25142958  0.56670195  1
  O  O471  1  0.97714127  0.25185411  0.81700607  1
  O  O472  1  0.97780792  0.58374144  0.06587516  1
  O  O473  1  0.97750053  0.58326415  0.31590488  1
  O  O474  1  0.97868949  0.58287404  0.56788330  1
  O  O475  1  0.97774076  0.58195897  0.81702926  1
  O  O476  1  0.97874355  0.91643339  0.06823762  1
  O  O477  1  0.97800847  0.91521967  0.31665115  1
  O  O478  1  0.97722832  0.91698820  0.56516997  1
  O  O479  1  0.97814202  0.91864270  0.81687673  1
  O  O480  1  0.07383766  0.31422733  0.07622152  1
  O  O481  1  0.07266769  0.31342301  0.32392736  1
  O  O482  1  0.07217607  0.31513539  0.57421731  1
  O  O483  1  0.07193981  0.31586513  0.82369298  1
  O  O484  1  0.07287302  0.64723742  0.07368093  1
  O  O485  1  0.07238884  0.64693125  0.32303491  1
  O  O486  1  0.07396423  0.64623874  0.57537569  1
  O  O487  1  0.07301678  0.64574903  0.82497006  1
  O  O488  1  0.07363318  0.98069530  0.07614421  1
  O  O489  1  0.07332459  0.97898830  0.32507788  1
  O  O490  1  0.07230854  0.98067637  0.57298327  1
  O  O491  1  0.07347191  0.98153295  0.82354555  1
  O  O492  1  0.57271803  0.31488288  0.07335284  1
  O  O493  1  0.57270092  0.31583468  0.32436006  1
  O  O494  1  0.57337541  0.31365541  0.57678172  1
  O  O495  1  0.57223717  0.31269014  0.82339651  1
  O  O496  1  0.57354635  0.64742074  0.07310430  1
  O  O497  1  0.57356964  0.64835031  0.32476922  1
  O  O498  1  0.57117990  0.64711149  0.57393756  1
  O  O499  1  0.57353458  0.64461333  0.82436694  1
  O  O500  1  0.57345495  0.98103334  0.07320996  1
  O  O501  1  0.57386046  0.98005175  0.32569933  1
  O  O502  1  0.57261715  0.97905649  0.57542856  1
  O  O503  1  0.57275516  0.97888768  0.82263891  1
  O  O504  1  0.42631206  0.01949584  0.17445446  1
  O  O505  1  0.42541674  0.02045596  0.42497771  1
  O  O506  1  0.42702542  0.01891420  0.67656222  1
  O  O507  1  0.42734235  0.01739075  0.92485460  1
  O  O508  1  0.42673760  0.35223940  0.17612375  1
  O  O509  1  0.42624111  0.35538362  0.42639629  1
  O  O510  1  0.42728311  0.35334579  0.67633104  1
  O  O511  1  0.42704095  0.35111269  0.92514256  1
  O  O512  1  0.42732943  0.68511865  0.17580048  1
  O  O513  1  0.42856016  0.68655558  0.42744154  1
  O  O514  1  0.42679792  0.68707025  0.67477433  1
  O  O515  1  0.42809008  0.68411071  0.92479299  1
  O  O516  1  0.92620012  0.02127848  0.17542056  1
  O  O517  1  0.92693002  0.01864382  0.42511217  1
  O  O518  1  0.92695709  0.01838385  0.67579002  1
  O  O519  1  0.92600995  0.02049927  0.92514449  1
  O  O520  1  0.92764001  0.35402778  0.17638334  1
  O  O521  1  0.92692608  0.35189243  0.42531510  1
  O  O522  1  0.92718015  0.35357989  0.67741041  1
  O  O523  1  0.92711881  0.35512972  0.92610216  1
  O  O524  1  0.92902921  0.68599267  0.17703912  1
  O  O525  1  0.92732825  0.68718652  0.42451566  1
  O  O526  1  0.92628877  0.68703467  0.67382649  1
  O  O527  1  0.92740878  0.68543136  0.92626762  1
  O  O528  1  0.17670981  0.02045067  0.19948513  1
  O  O529  1  0.17569686  0.02064047  0.45061238  1
  O  O530  1  0.17677683  0.02085184  0.70035897  1
  O  O531  1  0.17635466  0.02051043  0.95021411  1
  O  O532  1  0.17590051  0.35338919  0.20005788  1
  O  O533  1  0.17626519  0.35349762  0.45090523  1
  O  O534  1  0.17734814  0.35191080  0.70015543  1
  O  O535  1  0.17709964  0.35244707  0.94859097  1
  O  O536  1  0.17770287  0.68775544  0.19926292  1
  O  O537  1  0.17675731  0.68772309  0.44875130  1
  O  O538  1  0.17681425  0.68472914  0.69958612  1
  O  O539  1  0.17784133  0.68619357  0.94864153  1
  O  O540  1  0.67611872  0.01961012  0.20021270  1
  O  O541  1  0.67601674  0.02114684  0.44960207  1
  O  O542  1  0.67701111  0.01810438  0.69899531  1
  O  O543  1  0.67613860  0.02142820  0.94929509  1
  O  O544  1  0.67728282  0.35192985  0.19978829  1
  O  O545  1  0.67618105  0.35535074  0.45026318  1
  O  O546  1  0.67657477  0.35311818  0.70057843  1
  O  O547  1  0.67706060  0.35265363  0.94894856  1
  O  O548  1  0.67766057  0.68475283  0.19896659  1
  O  O549  1  0.67683213  0.68792973  0.44950335  1
  O  O550  1  0.67662597  0.68513323  0.69882336  1
  O  O551  1  0.67813101  0.68622177  0.94783465  1
  O  O552  1  0.32277716  0.31191365  0.04952299  1
  O  O553  1  0.32358753  0.31332235  0.30002479  1
  O  O554  1  0.32248325  0.31401672  0.55322723  1
  O  O555  1  0.32224092  0.31272658  0.80178282  1
  O  O556  1  0.32407621  0.64618300  0.04836464  1
  O  O557  1  0.32438679  0.64718492  0.29943587  1
  O  O558  1  0.32258520  0.64894726  0.55158268  1
  O  O559  1  0.32314179  0.64619073  0.80162683  1
  O  O560  1  0.32345463  0.97855320  0.04911355  1
  O  O561  1  0.32304830  0.97925505  0.29956653  1
  O  O562  1  0.32394658  0.97993167  0.54993974  1
  O  O563  1  0.32297773  0.97876169  0.80049764  1
  O  O564  1  0.82329101  0.31546868  0.05146245  1
  O  O565  1  0.82313943  0.31240183  0.30094024  1
  O  O566  1  0.82361104  0.31368746  0.54972111  1
  O  O567  1  0.82203773  0.31348859  0.80192938  1
  O  O568  1  0.82320068  0.64851792  0.05108487  1
  O  O569  1  0.82388491  0.64513155  0.30022300  1
  O  O570  1  0.82336289  0.64847607  0.54994373  1
  O  O571  1  0.82337989  0.64838799  0.80107315  1
  O  O572  1  0.82374736  0.98040276  0.04906142  1
  O  O573  1  0.82358673  0.97847493  0.30016545  1
  O  O574  1  0.82221861  0.98187738  0.55037233  1
  O  O575  1  0.82325520  0.97867837  0.80019902  1
  O  O576  1  0.42566852  0.14647981  0.17345967  1
  O  O577  1  0.42583672  0.14751088  0.42546803  1
  O  O578  1  0.42803325  0.14636792  0.67771369  1
  O  O579  1  0.42678878  0.14447723  0.92407511  1
  O  O580  1  0.42653626  0.47941037  0.17447052  1
  O  O581  1  0.42676756  0.48240846  0.42596936  1
  O  O582  1  0.42720252  0.48073399  0.67742537  1
  O  O583  1  0.42692915  0.47805348  0.92478296  1
  O  O584  1  0.42787932  0.81221634  0.17454882  1
  O  O585  1  0.42816465  0.81383145  0.42618297  1
  O  O586  1  0.42679097  0.81400425  0.67612449  1
  O  O587  1  0.42717250  0.81128112  0.92501622  1
  O  O588  1  0.92639389  0.14854485  0.17651248  1
  O  O589  1  0.92654758  0.14574532  0.42552560  1
  O  O590  1  0.92597877  0.14554696  0.67435917  1
  O  O591  1  0.92603139  0.14746351  0.92417396  1
  O  O592  1  0.92817871  0.48141764  0.17741340  1
  O  O593  1  0.92726682  0.47891310  0.42472664  1
  O  O594  1  0.92746032  0.48094314  0.67656487  1
  O  O595  1  0.92659070  0.48198929  0.92647655  1
  O  O596  1  0.92814888  0.81336149  0.17588606  1
  O  O597  1  0.92723936  0.81421320  0.42536938  1
  O  O598  1  0.92609323  0.81389283  0.67460536  1
  O  O599  1  0.92772625  0.81268016  0.92538096  1
  O  O600  1  0.07335729  0.18752346  0.07515440  1
  O  O601  1  0.07177582  0.18595663  0.32455936  1
  O  O602  1  0.07266313  0.18803471  0.57577521  1
  O  O603  1  0.07279565  0.18865670  0.82430540  1
  O  O604  1  0.07277972  0.51999898  0.07387152  1
  O  O605  1  0.07258095  0.51948174  0.32334236  1
  O  O606  1  0.07417371  0.51936185  0.57497887  1
  O  O607  1  0.07278318  0.51880767  0.82470763  1
  O  O608  1  0.07459709  0.85374295  0.07479518  1
  O  O609  1  0.07310101  0.85201415  0.32415073  1
  O  O610  1  0.07207229  0.85321312  0.57367482  1
  O  O611  1  0.07317106  0.85422445  0.82421764  1
  O  O612  1  0.57323646  0.18783932  0.07458802  1
  O  O613  1  0.57266380  0.18852462  0.32455284  1
  O  O614  1  0.57323126  0.18687177  0.57612927  1
  O  O615  1  0.57082722  0.18528293  0.82368175  1
  O  O616  1  0.57358005  0.52030036  0.07536630  1
  O  O617  1  0.57331478  0.52145745  0.32471659  1
  O  O618  1  0.57263618  0.51970739  0.57347762  1
  O  O619  1  0.57278099  0.51754301  0.82444259  1
  O  O620  1  0.57421052  0.85379758  0.07386170  1
  O  O621  1  0.57450414  0.85318274  0.32491325  1
  O  O622  1  0.57330321  0.85201976  0.57475201  1
  O  O623  1  0.57196479  0.85153375  0.82371120  1
  O  O624  1  0.32302354  0.18482456  0.05017883  1
  O  O625  1  0.32380740  0.18644858  0.30058779  1
  O  O626  1  0.32227773  0.18651199  0.55323504  1
  O  O627  1  0.32160830  0.18555738  0.80148645  1
  O  O628  1  0.32361726  0.51937056  0.04825463  1
  O  O629  1  0.32409438  0.52020297  0.30018385  1
  O  O630  1  0.32366779  0.52173225  0.55113510  1
  O  O631  1  0.32142369  0.51877052  0.80114128  1
  O  O632  1  0.32349520  0.85143857  0.04990614  1
  O  O633  1  0.32356239  0.85205412  0.30086268  1
  O  O634  1  0.32391603  0.85314534  0.55015266  1
  O  O635  1  0.32271902  0.85144905  0.80065207  1
  O  O636  1  0.82306462  0.18849017  0.05013706  1
  O  O637  1  0.82256490  0.18524002  0.30090233  1
  O  O638  1  0.82415891  0.18681639  0.55043095  1
  O  O639  1  0.82173460  0.18580648  0.80179372  1
  O  O640  1  0.82357784  0.52140660  0.04976543  1
  O  O641  1  0.82289822  0.51804292  0.30071870  1
  O  O642  1  0.82335986  0.52127528  0.55093623  1
  O  O643  1  0.82333641  0.52129764  0.80004208  1
  O  O644  1  0.82477737  0.85346505  0.04932983  1
  O  O645  1  0.82300537  0.85117688  0.30106187  1
  O  O646  1  0.82310390  0.85475870  0.55034082  1
  O  O647  1  0.82290524  0.85156311  0.79989692  1
  O  O648  1  0.17681777  0.14775801  0.19907536  1
  O  O649  1  0.17587181  0.14749947  0.45063762  1
  O  O650  1  0.17645842  0.14803142  0.69967933  1
  O  O651  1  0.17643072  0.14757455  0.94906532  1
  O  O652  1  0.17652675  0.48033085  0.19955351  1
  O  O653  1  0.17636295  0.48045459  0.45143417  1
  O  O654  1  0.17711757  0.47890138  0.70120774  1
  O  O655  1  0.17856433  0.47999100  0.94763423  1
  O  O656  1  0.17738132  0.81483586  0.19812210  1
  O  O657  1  0.17682761  0.81486237  0.44890855  1
  O  O658  1  0.17649245  0.81175709  0.70017781  1
  O  O659  1  0.17759805  0.81352383  0.94775936  1
  O  O660  1  0.67532520  0.14659443  0.19986665  1
  O  O661  1  0.67647316  0.14831900  0.44971938  1
  O  O662  1  0.67667991  0.14533991  0.69975934  1
  O  O663  1  0.67682234  0.14873477  0.94868988  1
  O  O664  1  0.67670230  0.47901859  0.19925185  1
  O  O665  1  0.67730437  0.48259569  0.44886054  1
  O  O666  1  0.67621858  0.48003542  0.70145856  1
  O  O667  1  0.67683459  0.47972959  0.95051804  1
  O  O668  1  0.67711774  0.81182226  0.19873019  1
  O  O669  1  0.67772387  0.81511014  0.44941554  1
  O  O670  1  0.67648828  0.81202657  0.69964244  1
  O  O671  1  0.67785730  0.81359745  0.94827667  1
