# generated using pymatgen
data_Na2MnFe(PO4)2
_symmetry_space_group_name_H-M   'P 1'
_cell_length_a   22.34212314
_cell_length_b   20.09430138
_cell_length_c   19.45026955
_cell_angle_alpha   89.95842074
_cell_angle_beta   89.93977313
_cell_angle_gamma   90.01533257
_symmetry_Int_Tables_number   1
_chemical_formula_structural   Na2MnFe(PO4)2
_chemical_formula_sum   'Na96 Mn48 Fe48 P96 O384'
_cell_volume   8732.17854494
_cell_formula_units_Z   48
loop_
 _symmetry_equiv_pos_site_id
 _symmetry_equiv_pos_as_xyz
  1  'x, y, z'
loop_
 _atom_site_type_symbol
 _atom_site_label
 _atom_site_symmetry_multiplicity
 _atom_site_fract_x
 _atom_site_fract_y
 _atom_site_fract_z
 _atom_site_occupancy
  Na  Na0  1  0.14061003  0.25110168  0.24318357  1
  Na  Na1  1  0.14027137  0.25119372  0.49376440  1
  Na  Na2  1  0.13963248  0.24942770  0.74416387  1
  Na  Na3  1  0.13954682  0.25136092  0.99295154  1
  Na  Na4  1  0.14028577  0.58394410  0.24322658  1
  Na  Na5  1  0.14085015  0.58309524  0.49303089  1
  Na  Na6  1  0.14014692  0.58259400  0.74500760  1
  Na  Na7  1  0.14004771  0.58493943  0.99499556  1
  Na  Na8  1  0.14016451  0.91634476  0.24284997  1
  Na  Na9  1  0.13947206  0.91563870  0.49277232  1
  Na  Na10  1  0.14006285  0.91575920  0.74372733  1
  Na  Na11  1  0.14032111  0.91790632  0.99438146  1
  Na  Na12  1  0.64177816  0.24970862  0.24316888  1
  Na  Na13  1  0.64119039  0.25071258  0.49457555  1
  Na  Na14  1  0.64109603  0.25086354  0.74316554  1
  Na  Na15  1  0.64056579  0.25038483  0.99429754  1
  Na  Na16  1  0.64068552  0.58270928  0.24301364  1
  Na  Na17  1  0.64115638  0.58267088  0.49447601  1
  Na  Na18  1  0.64083239  0.58315364  0.74423383  1
  Na  Na19  1  0.64040921  0.58353125  0.99259521  1
  Na  Na20  1  0.64095429  0.91691900  0.24364373  1
  Na  Na21  1  0.64024253  0.91585939  0.49339543  1
  Na  Na22  1  0.64061349  0.91613678  0.74269775  1
  Na  Na23  1  0.64115311  0.91593265  0.99336036  1
  Na  Na24  1  0.35913331  0.08481183  0.00617373  1
  Na  Na25  1  0.35925682  0.08404191  0.25527829  1
  Na  Na26  1  0.35971825  0.08289703  0.50601217  1
  Na  Na27  1  0.35996178  0.08226261  0.75673885  1
  Na  Na28  1  0.35924361  0.41893882  0.00678851  1
  Na  Na29  1  0.35938284  0.41847404  0.25537841  1
  Na  Na30  1  0.35929548  0.41814647  0.50487514  1
  Na  Na31  1  0.35953059  0.41676989  0.75684515  1
  Na  Na32  1  0.35902571  0.75073745  0.00683401  1
  Na  Na33  1  0.35938709  0.74952632  0.25502049  1
  Na  Na34  1  0.35969312  0.74985430  0.50522090  1
  Na  Na35  1  0.35905680  0.74878803  0.75589666  1
  Na  Na36  1  0.85944161  0.08339415  0.00757835  1
  Na  Na37  1  0.85984893  0.08230992  0.25643892  1
  Na  Na38  1  0.85974499  0.08286843  0.50756932  1
  Na  Na39  1  0.86019374  0.08275788  0.75706341  1
  Na  Na40  1  0.85945054  0.41597241  0.00723682  1
  Na  Na41  1  0.85919544  0.41611131  0.25635005  1
  Na  Na42  1  0.85925030  0.41631704  0.50747683  1
  Na  Na43  1  0.85974003  0.41657469  0.75608069  1
  Na  Na44  1  0.85937903  0.74901311  0.00710909  1
  Na  Na45  1  0.85963729  0.74927133  0.25682438  1
  Na  Na46  1  0.85955387  0.74879979  0.50640310  1
  Na  Na47  1  0.85905856  0.74877390  0.75619341  1
  Na  Na48  1  0.10933605  0.08324930  0.11810129  1
  Na  Na49  1  0.10941187  0.08204940  0.36875837  1
  Na  Na50  1  0.10909924  0.08334443  0.61938105  1
  Na  Na51  1  0.10907803  0.08466047  0.86876728  1
  Na  Na52  1  0.10970615  0.41667418  0.11779998  1
  Na  Na53  1  0.11000901  0.41682020  0.36778154  1
  Na  Na54  1  0.10970691  0.41605046  0.61893142  1
  Na  Na55  1  0.10933457  0.41581114  0.86951635  1
  Na  Na56  1  0.10971236  0.75036972  0.11928406  1
  Na  Na57  1  0.10939746  0.75056577  0.36783615  1
  Na  Na58  1  0.10951932  0.75009603  0.61832297  1
  Na  Na59  1  0.10964455  0.75038240  0.86942837  1
  Na  Na60  1  0.61047881  0.08360584  0.11832496  1
  Na  Na61  1  0.61037471  0.08305082  0.36931517  1
  Na  Na62  1  0.61007460  0.08261980  0.61837973  1
  Na  Na63  1  0.60984143  0.08394404  0.86947648  1
  Na  Na64  1  0.61036202  0.41770623  0.11786867  1
  Na  Na65  1  0.61065446  0.41699628  0.36841657  1
  Na  Na66  1  0.61040192  0.41757535  0.61925468  1
  Na  Na67  1  0.61025794  0.41777070  0.86908356  1
  Na  Na68  1  0.61022433  0.74950783  0.11741161  1
  Na  Na69  1  0.61029116  0.74943789  0.36906015  1
  Na  Na70  1  0.61033938  0.75050843  0.61839529  1
  Na  Na71  1  0.61042280  0.74944190  0.86773268  1
  Na  Na72  1  0.39025405  0.25131661  0.13074578  1
  Na  Na73  1  0.39041102  0.25036865  0.38050187  1
  Na  Na74  1  0.39066200  0.25008832  0.63108015  1
  Na  Na75  1  0.39049059  0.25096580  0.88156079  1
  Na  Na76  1  0.38976367  0.58373764  0.13115414  1
  Na  Na77  1  0.38971955  0.58381641  0.38053908  1
  Na  Na78  1  0.38982080  0.58411944  0.63065304  1
  Na  Na79  1  0.39002022  0.58297817  0.88176792  1
  Na  Na80  1  0.38994546  0.91694813  0.13056841  1
  Na  Na81  1  0.39059504  0.91668291  0.38008763  1
  Na  Na82  1  0.39055129  0.91654953  0.63033496  1
  Na  Na83  1  0.39022593  0.91714608  0.88167026  1
  Na  Na84  1  0.88973080  0.24870341  0.13204123  1
  Na  Na85  1  0.89014925  0.24820798  0.38203403  1
  Na  Na86  1  0.89059800  0.24924641  0.63218053  1
  Na  Na87  1  0.89031781  0.24990418  0.88088419  1
  Na  Na88  1  0.88975274  0.58368692  0.13216411  1
  Na  Na89  1  0.88959064  0.58343252  0.38233468  1
  Na  Na90  1  0.88999739  0.58214652  0.63192981  1
  Na  Na91  1  0.88944020  0.58235632  0.88236192  1
  Na  Na92  1  0.88989205  0.91579937  0.13235513  1
  Na  Na93  1  0.89069490  0.91614589  0.38071935  1
  Na  Na94  1  0.89043997  0.91656314  0.63128728  1
  Na  Na95  1  0.88993122  0.91672646  0.88194798  1
  Mn  Mn96  1  0.25006495  -0.00006663  0.37424639  1
  Mn  Mn97  1  -0.00028737  0.00057565  0.00041966  1
  Mn  Mn98  1  0.50100793  0.66731754  0.49994174  1
  Mn  Mn99  1  0.50003236  0.50035182  0.49983284  1
  Mn  Mn100  1  0.25074665  0.83239392  0.37384238  1
  Mn  Mn101  1  0.75056094  0.00016711  0.37483672  1
  Mn  Mn102  1  0.74954027  -0.00114904  0.87537687  1
  Mn  Mn103  1  0.49965656  0.66642732  0.74932205  1
  Mn  Mn104  1  0.75069150  0.33315157  0.37554875  1
  Mn  Mn105  1  0.25026313  0.33356946  0.62517031  1
  Mn  Mn106  1  0.50087435  0.16576294  0.50073491  1
  Mn  Mn107  1  -0.00036339  0.49999334  0.00026800  1
  Mn  Mn108  1  -0.00013491  0.66643329  0.74988575  1
  Mn  Mn109  1  0.49997349  0.33380295  0.50005922  1
  Mn  Mn110  1  0.50107859  0.33415116  0.24958901  1
  Mn  Mn111  1  0.24977838  0.83160098  0.62399124  1
  Mn  Mn112  1  0.00007935  0.83278204  0.00076768  1
  Mn  Mn113  1  0.00043697  0.49892237  0.50051288  1
  Mn  Mn114  1  0.50016679  0.33418490  0.00007300  1
  Mn  Mn115  1  0.74976611  0.66607814  0.12479700  1
  Mn  Mn116  1  0.24944954  0.50060277  0.62476939  1
  Mn  Mn117  1  0.24961619  0.16836807  0.12518916  1
  Mn  Mn118  1  0.49946215  0.83400913  0.74970806  1
  Mn  Mn119  1  0.00039877  0.66714892  0.50033977  1
  Mn  Mn120  1  0.75048425  0.83190721  0.37482662  1
  Mn  Mn121  1  0.75036729  -0.00054152  0.62508860  1
  Mn  Mn122  1  0.50086013  0.83301861  0.24948665  1
  Mn  Mn123  1  0.24958544  0.33405544  0.87516358  1
  Mn  Mn124  1  0.00041991  0.49853338  0.75135969  1
  Mn  Mn125  1  0.75022677  0.16673660  0.87561536  1
  Mn  Mn126  1  0.24934580  0.16794771  0.37456066  1
  Mn  Mn127  1  0.00013451  0.16592285  0.50049243  1
  Mn  Mn128  1  0.50055291  0.16641447  0.75013463  1
  Mn  Mn129  1  -0.00119290  0.50044869  0.24969527  1
  Mn  Mn130  1  0.24971876  0.66693416  0.87581321  1
  Mn  Mn131  1  0.50076677  0.83304011  -0.00068158  1
  Mn  Mn132  1  0.00004592  0.33261583  0.24992075  1
  Mn  Mn133  1  0.24962337  -0.00001385  0.87509574  1
  Mn  Mn134  1  0.50042541  0.00003025  0.24973244  1
  Mn  Mn135  1  0.24963959  -0.00091163  0.62552154  1
  Mn  Mn136  1  0.50074074  0.33471643  0.75125982  1
  Mn  Mn137  1  0.25026866  0.16654394  0.62437580  1
  Mn  Mn138  1  0.75069767  0.33422722  0.87499246  1
  Mn  Mn139  1  -0.00092991  0.83405304  0.75014003  1
  Mn  Mn140  1  0.50002007  0.16663963  0.25044680  1
  Mn  Mn141  1  0.49962276  0.66610610  0.24927742  1
  Mn  Mn142  1  0.50014971  0.00096993  0.00022744  1
  Mn  Mn143  1  0.00084115  0.16533510  0.25082147  1
  Fe  Fe144  1  0.75060520  0.83263155  0.87491968  1
  Fe  Fe145  1  -0.00023641  -0.00071087  0.24998924  1
  Fe  Fe146  1  0.75024041  0.16682966  0.62546988  1
  Fe  Fe147  1  -0.00033235  0.33257465  0.75022324  1
  Fe  Fe148  1  0.75014273  0.16653481  0.12550021  1
  Fe  Fe149  1  0.74959900  0.66553942  0.37560264  1
  Fe  Fe150  1  0.75024121  -0.00050915  0.12503950  1
  Fe  Fe151  1  0.24951364  0.50067409  0.87576105  1
  Fe  Fe152  1  0.00000134  -0.00073976  0.49989635  1
  Fe  Fe153  1  0.75043366  0.50050584  0.62542647  1
  Fe  Fe154  1  0.75026852  0.33384037  0.62488181  1
  Fe  Fe155  1  0.24940057  0.66653602  0.37397872  1
  Fe  Fe156  1  0.50044793  0.50065624  0.24924986  1
  Fe  Fe157  1  0.75039337  0.66653738  0.87472611  1
  Fe  Fe158  1  -0.00070288  0.33248640  -0.00026507  1
  Fe  Fe159  1  -0.00064718  0.66691210  0.00089454  1
  Fe  Fe160  1  0.74997667  0.33345130  0.12556349  1
  Fe  Fe161  1  0.49983873  0.66623799  -0.00090162  1
  Fe  Fe162  1  0.75008790  0.49995150  0.87492022  1
  Fe  Fe163  1  0.24973766  0.00113030  0.12424171  1
  Fe  Fe164  1  0.00016346  0.00003631  0.75005146  1
  Fe  Fe165  1  0.50016491  -0.00003375  0.74967812  1
  Fe  Fe166  1  0.24982183  0.83404104  0.12490145  1
  Fe  Fe167  1  0.75013898  0.83222062  0.62494442  1
  Fe  Fe168  1  0.75025033  0.16639076  0.37480455  1
  Fe  Fe169  1  0.75039933  0.66609644  0.62557336  1
  Fe  Fe170  1  0.49987735  0.16725028  -0.00030399  1
  Fe  Fe171  1  -0.00001979  0.33274070  0.50041758  1
  Fe  Fe172  1  0.24952892  0.66609043  0.62515488  1
  Fe  Fe173  1  0.25003507  0.33511530  0.12430814  1
  Fe  Fe174  1  0.24969099  0.66719261  0.12481671  1
  Fe  Fe175  1  0.75008048  0.49976827  0.37563276  1
  Fe  Fe176  1  0.50003891  -0.00045000  0.49962354  1
  Fe  Fe177  1  0.24961932  0.50107052  0.12569218  1
  Fe  Fe178  1  -0.00035839  0.16664131  0.75003239  1
  Fe  Fe179  1  0.25035224  0.33466455  0.37385475  1
  Fe  Fe180  1  0.50001690  0.83378883  0.49949870  1
  Fe  Fe181  1  -0.00037314  0.66714919  0.25093607  1
  Fe  Fe182  1  -0.00084732  0.16661960  -0.00065956  1
  Fe  Fe183  1  0.49984723  0.50050573  0.75022944  1
  Fe  Fe184  1  0.75035736  0.49995331  0.12514525  1
  Fe  Fe185  1  0.24976835  0.50056820  0.37429264  1
  Fe  Fe186  1  0.00003851  0.83314681  0.25014678  1
  Fe  Fe187  1  0.24984737  0.16726401  0.87550899  1
  Fe  Fe188  1  -0.00048645  0.83387699  0.49940777  1
  Fe  Fe189  1  0.74981462  0.83251669  0.12494507  1
  Fe  Fe190  1  0.24969568  0.83350044  0.87565305  1
  Fe  Fe191  1  0.49979083  0.50061998  -0.00020556  1
  P  P192  1  0.04104340  0.24915024  0.10115097  1
  P  P193  1  0.04301643  0.24967180  0.35369206  1
  P  P194  1  0.04201040  0.25079278  0.60324987  1
  P  P195  1  0.04084871  0.24988125  0.85233180  1
  P  P196  1  0.04138241  0.58503117  0.10335497  1
  P  P197  1  0.04179456  0.58429941  0.35242950  1
  P  P198  1  0.04305694  0.58278915  0.60340036  1
  P  P199  1  0.04221933  0.58349925  0.85431884  1
  P  P200  1  0.04217390  0.91649124  0.10411571  1
  P  P201  1  0.04154563  0.91639269  0.35188612  1
  P  P202  1  0.04128062  0.91690330  0.60179336  1
  P  P203  1  0.04205100  0.91819559  0.85264903  1
  P  P204  1  0.54235352  0.24944377  0.10226675  1
  P  P205  1  0.54381319  0.25012079  0.35316474  1
  P  P206  1  0.54334799  0.25032494  0.60354215  1
  P  P207  1  0.54336787  0.25010109  0.85384226  1
  P  P208  1  0.54151676  0.58336398  0.10112323  1
  P  P209  1  0.54273293  0.58243624  0.35186732  1
  P  P210  1  0.54302366  0.58330615  0.60350330  1
  P  P211  1  0.54201600  0.58241704  0.85293240  1
  P  P212  1  0.54351635  0.91675890  0.10261525  1
  P  P213  1  0.54333674  0.91643772  0.35370063  1
  P  P214  1  0.54170036  0.91695932  0.60157901  1
  P  P215  1  0.54255119  0.91803878  0.85206294  1
  P  P216  1  0.45725363  0.08412058  0.14627490  1
  P  P217  1  0.45767303  0.08215374  0.39766250  1
  P  P218  1  0.45799051  0.08164790  0.64722019  1
  P  P219  1  0.45756722  0.08480421  0.89732183  1
  P  P220  1  0.45831217  0.41888742  0.14680425  1
  P  P221  1  0.45757982  0.41734272  0.39592099  1
  P  P222  1  0.45754438  0.41823266  0.64807802  1
  P  P223  1  0.45767257  0.41866479  0.89763489  1
  P  P224  1  0.45760622  0.74955650  0.14562097  1
  P  P225  1  0.45800973  0.75104492  0.39719576  1
  P  P226  1  0.45724453  0.75090111  0.64602411  1
  P  P227  1  0.45765853  0.74876874  0.89718069  1
  P  P228  1  0.95777418  0.08212794  0.14765928  1
  P  P229  1  0.95774331  0.08102506  0.39777622  1
  P  P230  1  0.95852009  0.08270361  0.64843982  1
  P  P231  1  0.95716610  0.08466903  0.89687278  1
  P  P232  1  0.95713583  0.41592870  0.14634567  1
  P  P233  1  0.95753354  0.41490239  0.39797132  1
  P  P234  1  0.95800887  0.41465423  0.64765055  1
  P  P235  1  0.95754919  0.41466466  0.89765700  1
  P  P236  1  0.95825937  0.74952824  0.14872561  1
  P  P237  1  0.95803591  0.75142475  0.39697173  1
  P  P238  1  0.95715938  0.75060701  0.64644544  1
  P  P239  1  0.95734608  0.74890261  0.89809028  1
  P  P240  1  0.20732840  0.08291899  0.22688883  1
  P  P241  1  0.20693220  0.08345066  0.47772793  1
  P  P242  1  0.20733960  0.08344142  0.72877995  1
  P  P243  1  0.20758561  0.08495740  0.97791343  1
  P  P244  1  0.20827597  0.41738837  0.22683191  1
  P  P245  1  0.20840703  0.41714812  0.47586924  1
  P  P246  1  0.20696746  0.41686013  0.72856014  1
  P  P247  1  0.20758013  0.41889508  0.97857941  1
  P  P248  1  0.20860168  0.74995483  0.22634104  1
  P  P249  1  0.20766097  0.74799689  0.47686489  1
  P  P250  1  0.20715549  0.74824855  0.72773754  1
  P  P251  1  0.20771305  0.75192657  0.97863894  1
  P  P252  1  0.70909576  0.08308828  0.22677781  1
  P  P253  1  0.70876976  0.08474257  0.47794618  1
  P  P254  1  0.70810520  0.08400265  0.72746433  1
  P  P255  1  0.70784706  0.08280494  0.97937102  1
  P  P256  1  0.70895869  0.41697906  0.22694959  1
  P  P257  1  0.70828261  0.41778434  0.47836216  1
  P  P258  1  0.70911129  0.41753549  0.72678084  1
  P  P259  1  0.70829253  0.41825266  0.97814099  1
  P  P260  1  0.70775147  0.75015967  0.22741850  1
  P  P261  1  0.70820779  0.74768318  0.47839258  1
  P  P262  1  0.70873765  0.74938779  0.72728039  1
  P  P263  1  0.70891442  0.74980397  0.97650641  1
  P  P264  1  0.29182196  0.25232175  0.02215788  1
  P  P265  1  0.29214228  0.25258962  0.27150887  1
  P  P266  1  0.29299761  0.25113788  0.52094018  1
  P  P267  1  0.29246172  0.24887985  0.77292608  1
  P  P268  1  0.29088910  0.58370231  0.02351841  1
  P  P269  1  0.29087608  0.58376526  0.27224600  1
  P  P270  1  0.29194984  0.58493789  0.52155575  1
  P  P271  1  0.29195702  0.58247504  0.77294197  1
  P  P272  1  0.29105487  0.91709114  0.02298654  1
  P  P273  1  0.29257295  0.91666634  0.27002042  1
  P  P274  1  0.29257265  0.91600433  0.52144258  1
  P  P275  1  0.29196174  0.91463711  0.77278203  1
  P  P276  1  0.79102510  0.25027954  0.02407902  1
  P  P277  1  0.79248108  0.24851410  0.27228931  1
  P  P278  1  0.79170325  0.24978085  0.52368155  1
  P  P279  1  0.79241503  0.25018459  0.77124711  1
  P  P280  1  0.79213745  0.58177794  0.02204225  1
  P  P281  1  0.79122665  0.58268402  0.27360495  1
  P  P282  1  0.79188987  0.58310267  0.52333983  1
  P  P283  1  0.79142511  0.58300670  0.77297129  1
  P  P284  1  0.79152839  0.91559187  0.02342766  1
  P  P285  1  0.79244043  0.91612938  0.27102242  1
  P  P286  1  0.79207444  0.91452066  0.52267902  1
  P  P287  1  0.79206032  0.91452678  0.77225083  1
  O  O288  1  0.03663439  0.24908142  0.18117170  1
  O  O289  1  0.03783681  0.25008248  0.43360197  1
  O  O290  1  0.03640438  0.25063449  0.68311322  1
  O  O291  1  0.03560664  0.24957690  0.93224059  1
  O  O292  1  0.03576446  0.58510440  0.18328372  1
  O  O293  1  0.03719243  0.58382060  0.43242360  1
  O  O294  1  0.03803342  0.58250921  0.68338168  1
  O  O295  1  0.03666100  0.58418594  0.93425843  1
  O  O296  1  0.03687009  0.91632598  0.18399762  1
  O  O297  1  0.03621267  0.91604257  0.43179817  1
  O  O298  1  0.03610182  0.91740080  0.68176297  1
  O  O299  1  0.03697170  0.91782179  0.93258899  1
  O  O300  1  0.53746825  0.24979126  0.18225633  1
  O  O301  1  0.53887124  0.25009282  0.43317210  1
  O  O302  1  0.53834950  0.25043164  0.68353188  1
  O  O303  1  0.53801356  0.24963417  0.93381274  1
  O  O304  1  0.53676282  0.58286655  0.18113171  1
  O  O305  1  0.53802007  0.58299561  0.43183010  1
  O  O306  1  0.53782200  0.58286799  0.68342765  1
  O  O307  1  0.53642000  0.58276159  0.93283639  1
  O  O308  1  0.53863998  0.91661427  0.18259934  1
  O  O309  1  0.53791810  0.91633974  0.43367366  1
  O  O310  1  0.53653938  0.91752321  0.68157331  1
  O  O311  1  0.53772052  0.91765723  0.93202109  1
  O  O312  1  0.46239623  0.08497834  0.06630286  1
  O  O313  1  0.46258631  0.08252942  0.31764804  1
  O  O314  1  0.46328851  0.08129631  0.56726121  1
  O  O315  1  0.46263690  0.08403398  0.81738661  1
  O  O316  1  0.46349996  0.41906170  0.06684138  1
  O  O317  1  0.46297163  0.41785228  0.31597036  1
  O  O318  1  0.46256837  0.41768084  0.56808279  1
  O  O319  1  0.46275633  0.41878647  0.81769494  1
  O  O320  1  0.46281075  0.74886161  0.06566615  1
  O  O321  1  0.46293486  0.75043632  0.31717248  1
  O  O322  1  0.46274026  0.75151201  0.56610249  1
  O  O323  1  0.46240248  0.74915252  0.81715082  1
  O  O324  1  0.96262269  0.08336938  0.06770636  1
  O  O325  1  0.96303493  0.08099982  0.31784323  1
  O  O326  1  0.96344753  0.08266496  0.56849983  1
  O  O327  1  0.96253532  0.08422118  0.81701552  1
  O  O328  1  0.96247459  0.41570548  0.06641305  1
  O  O329  1  0.96231229  0.41552900  0.31794196  1
  O  O330  1  0.96328172  0.41481491  0.56769636  1
  O  O331  1  0.96296685  0.41438616  0.81771010  1
  O  O332  1  0.96321560  0.74886765  0.06872522  1
  O  O333  1  0.96356993  0.75119880  0.31705563  1
  O  O334  1  0.96254542  0.75121089  0.56651957  1
  O  O335  1  0.96229562  0.74948538  0.81811405  1
  O  O336  1  0.21308264  0.08443075  0.05783464  1
  O  O337  1  0.21233786  0.08309624  0.30683254  1
  O  O338  1  0.21208661  0.08312536  0.55771460  1
  O  O339  1  0.21252512  0.08399530  0.80875907  1
  O  O340  1  0.21313641  0.41865328  0.05845140  1
  O  O341  1  0.21352137  0.41694502  0.30671138  1
  O  O342  1  0.21307314  0.41739443  0.55586355  1
  O  O343  1  0.21179411  0.41713965  0.80850582  1
  O  O344  1  0.21320480  0.75198906  0.05846178  1
  O  O345  1  0.21364609  0.74912905  0.30626894  1
  O  O346  1  0.21264121  0.74765443  0.55683375  1
  O  O347  1  0.21233515  0.74920630  0.80764560  1
  O  O348  1  0.71337267  0.08243236  0.05923773  1
  O  O349  1  0.71393779  0.08376043  0.30676148  1
  O  O350  1  0.71417873  0.08464988  0.55786397  1
  O  O351  1  0.71294807  0.08348431  0.80745811  1
  O  O352  1  0.71330371  0.41813926  0.05799094  1
  O  O353  1  0.71385875  0.41679463  0.30688740  1
  O  O354  1  0.71349943  0.41779004  0.55819169  1
  O  O355  1  0.71398375  0.41750768  0.80673820  1
  O  O356  1  0.71349072  0.74981503  0.05649266  1
  O  O357  1  0.71273466  0.74937932  0.30729296  1
  O  O358  1  0.71371479  0.74785870  0.55823650  1
  O  O359  1  0.71395242  0.74995487  0.80717499  1
  O  O360  1  0.28669680  0.25281227  0.19156442  1
  O  O361  1  0.28769203  0.25195191  0.44098021  1
  O  O362  1  0.28770532  0.24917502  0.69290918  1
  O  O363  1  0.28654430  0.25143346  0.94225577  1
  O  O364  1  0.28574392  0.58350795  0.19240059  1
  O  O365  1  0.28655179  0.58478656  0.44170189  1
  O  O366  1  0.28680257  0.58310015  0.69302657  1
  O  O367  1  0.28606014  0.58343100  0.94360356  1
  O  O368  1  0.28688983  0.91717068  0.19014419  1
  O  O369  1  0.28778247  0.91616682  0.44144817  1
  O  O370  1  0.28682695  0.91473209  0.69283174  1
  O  O371  1  0.28596272  0.91663835  0.94301405  1
  O  O372  1  0.78701734  0.24883265  0.19247701  1
  O  O373  1  0.78707925  0.24981714  0.44369225  1
  O  O374  1  0.78684802  0.25012964  0.69142162  1
  O  O375  1  0.78668561  0.25048329  0.94409897  1
  O  O376  1  0.78621494  0.58243841  0.19364647  1
  O  O377  1  0.78645154  0.58280232  0.44348455  1
  O  O378  1  0.78644890  0.58352277  0.69309605  1
  O  O379  1  0.78715061  0.58209458  0.94219360  1
  O  O380  1  0.78681769  0.91644135  0.19116766  1
  O  O381  1  0.78713388  0.91495834  0.44274266  1
  O  O382  1  0.78675927  0.91456954  0.69233183  1
  O  O383  1  0.78652789  0.91509633  0.94340590  1
  O  O384  1  0.22756091  0.25268046  0.05793443  1
  O  O385  1  0.22789447  0.25268454  0.30738602  1
  O  O386  1  0.22861961  0.25059040  0.55635528  1
  O  O387  1  0.22798333  0.24885300  0.80821100  1
  O  O388  1  0.22676471  0.58338974  0.05956831  1
  O  O389  1  0.22684950  0.58417160  0.30870687  1
  O  O390  1  0.22774336  0.58516623  0.55782793  1
  O  O391  1  0.22769720  0.58239872  0.80884409  1
  O  O392  1  0.22699862  0.91681343  0.05920054  1
  O  O393  1  0.22841523  0.91609845  0.30599921  1
  O  O394  1  0.22805822  0.91580951  0.55637998  1
  O  O395  1  0.22759135  0.91491383  0.80831922  1
  O  O396  1  0.72684657  0.25017068  0.05970909  1
  O  O397  1  0.72840724  0.24869267  0.30870145  1
  O  O398  1  0.72756668  0.24944452  0.55961532  1
  O  O399  1  0.72835402  0.25054797  0.80745222  1
  O  O400  1  0.72789794  0.58145118  0.05803646  1
  O  O401  1  0.72710666  0.58294005  0.30979357  1
  O  O402  1  0.72790867  0.58336019  0.56001908  1
  O  O403  1  0.72745919  0.58261899  0.80951312  1
  O  O404  1  0.72738661  0.91589484  0.05950652  1
  O  O405  1  0.72842033  0.91611120  0.30725337  1
  O  O406  1  0.72779806  0.91495920  0.55826505  1
  O  O407  1  0.72779663  0.91414692  0.80812417  1
  O  O408  1  0.27166231  0.08339774  0.19143332  1
  O  O409  1  0.27133834  0.08393733  0.44253915  1
  O  O410  1  0.27170509  0.08300234  0.69335958  1
  O  O411  1  0.27174188  0.08498733  0.94184286  1
  O  O412  1  0.27236865  0.41773590  0.19038960  1
  O  O413  1  0.27263251  0.41719683  0.44009599  1
  O  O414  1  0.27140900  0.41721804  0.69340408  1
  O  O415  1  0.27165160  0.41881239  0.94215686  1
  O  O416  1  0.27265820  0.75070561  0.19017463  1
  O  O417  1  0.27201409  0.74775871  0.44121596  1
  O  O418  1  0.27148029  0.74764807  0.69190660  1
  O  O419  1  0.27183743  0.75187383  0.94234387  1
  O  O420  1  0.77319467  0.08232902  0.19074778  1
  O  O421  1  0.77294387  0.08488730  0.44186801  1
  O  O422  1  0.77250391  0.08393436  0.69213564  1
  O  O423  1  0.77197534  0.08253011  0.94331741  1
  O  O424  1  0.77309774  0.41715794  0.19090817  1
  O  O425  1  0.77245291  0.41785036  0.44217144  1
  O  O426  1  0.77320284  0.41755232  0.69067134  1
  O  O427  1  0.77255222  0.41863669  0.94214018  1
  O  O428  1  0.77205926  0.75053258  0.19168625  1
  O  O429  1  0.77224949  0.74704930  0.44188979  1
  O  O430  1  0.77275257  0.74922730  0.69075249  1
  O  O431  1  0.77315566  0.75018240  0.94069933  1
  O  O432  1  0.02214714  0.08110368  0.18305002  1
  O  O433  1  0.02199382  0.08124626  0.43345401  1
  O  O434  1  0.02256435  0.08237685  0.68456654  1
  O  O435  1  0.02136210  0.08513676  0.93287473  1
  O  O436  1  0.02139647  0.41672084  0.18177284  1
  O  O437  1  0.02203626  0.41440496  0.43300267  1
  O  O438  1  0.02220796  0.41433435  0.68347881  1
  O  O439  1  0.02169540  0.41498710  0.93348349  1
  O  O440  1  0.02241850  0.74955453  0.18464794  1
  O  O441  1  0.02213269  0.75192499  0.43309209  1
  O  O442  1  0.02140960  0.75061463  0.68190654  1
  O  O443  1  0.02173840  0.74831780  0.93338531  1
  O  O444  1  0.52171050  0.08378099  0.18127707  1
  O  O445  1  0.52210665  0.08144662  0.43288806  1
  O  O446  1  0.52230211  0.08163397  0.68283025  1
  O  O447  1  0.52192040  0.08513219  0.93274293  1
  O  O448  1  0.52262029  0.41910622  0.18242529  1
  O  O449  1  0.52192217  0.41709811  0.43123567  1
  O  O450  1  0.52201574  0.41896886  0.68331574  1
  O  O451  1  0.52201693  0.41852473  0.93299458  1
  O  O452  1  0.52195766  0.74927579  0.18085463  1
  O  O453  1  0.52237490  0.75171770  0.43249673  1
  O  O454  1  0.52150781  0.75056784  0.68149188  1
  O  O455  1  0.52217895  0.74837182  0.93208604  1
  O  O456  1  0.47801098  0.24964198  0.06693128  1
  O  O457  1  0.47926797  0.25073626  0.31846238  1
  O  O458  1  0.47892607  0.24980104  0.56853712  1
  O  O459  1  0.47904091  0.25047323  0.81860712  1
  O  O460  1  0.47718857  0.58380184  0.06563795  1
  O  O461  1  0.47819827  0.58177740  0.31682483  1
  O  O462  1  0.47868266  0.58396412  0.56831798  1
  O  O463  1  0.47784615  0.58189494  0.81684712  1
  O  O464  1  0.47900693  0.91655237  0.06788024  1
  O  O465  1  0.47907043  0.91641016  0.31810224  1
  O  O466  1  0.47759449  0.91689597  0.56543362  1
  O  O467  1  0.47803155  0.91848411  0.81707747  1
  O  O468  1  0.97669262  0.24866914  0.06577008  1
  O  O469  1  0.97862431  0.24905012  0.31858132  1
  O  O470  1  0.97792170  0.25093653  0.56693230  1
  O  O471  1  0.97691842  0.25032543  0.81587405  1
  O  O472  1  0.97726133  0.58479263  0.06733934  1
  O  O473  1  0.97726818  0.58469311  0.31751914  1
  O  O474  1  0.97863670  0.58284359  0.56844847  1
  O  O475  1  0.97802433  0.58286765  0.81867758  1
  O  O476  1  0.97798448  0.91659786  0.06840657  1
  O  O477  1  0.97752780  0.91640285  0.31542814  1
  O  O478  1  0.97712665  0.91646741  0.56571695  1
  O  O479  1  0.97766946  0.91873751  0.81729359  1
  O  O480  1  0.07116076  0.31334694  0.07295792  1
  O  O481  1  0.07395784  0.31293859  0.32468076  1
  O  O482  1  0.07305128  0.31413863  0.57443954  1
  O  O483  1  0.07239149  0.31328133  0.82429122  1
  O  O484  1  0.07228503  0.64844439  0.07474859  1
  O  O485  1  0.07259248  0.64791322  0.32414401  1
  O  O486  1  0.07399598  0.64635420  0.57531070  1
  O  O487  1  0.07342947  0.64668169  0.82560685  1
  O  O488  1  0.07349510  0.97975482  0.07559697  1
  O  O489  1  0.07243580  0.98012727  0.32367109  1
  O  O490  1  0.07205281  0.98054153  0.57322716  1
  O  O491  1  0.07306882  0.98160404  0.82429735  1
  O  O492  1  0.57355449  0.31315967  0.07468020  1
  O  O493  1  0.57518739  0.31334340  0.32469005  1
  O  O494  1  0.57395728  0.31405683  0.57534767  1
  O  O495  1  0.57447466  0.31390031  0.82614846  1
  O  O496  1  0.57241006  0.64711288  0.07289114  1
  O  O497  1  0.57328156  0.64624341  0.32360102  1
  O  O498  1  0.57428418  0.64681987  0.57545512  1
  O  O499  1  0.57296514  0.64615123  0.82484615  1
  O  O500  1  0.57430288  0.98038928  0.07458663  1
  O  O501  1  0.57446898  0.97995026  0.32534501  1
  O  O502  1  0.57287894  0.98029676  0.57297388  1
  O  O503  1  0.57338814  0.98152798  0.82359333  1
  O  O504  1  0.42638872  0.02027511  0.17398662  1
  O  O505  1  0.42656872  0.01874379  0.42590014  1
  O  O506  1  0.42705269  0.01839238  0.67627317  1
  O  O507  1  0.42628703  0.02137114  0.92560145  1
  O  O508  1  0.42759547  0.35486903  0.17434739  1
  O  O509  1  0.42659876  0.35372300  0.42407633  1
  O  O510  1  0.42698398  0.35440990  0.67635308  1
  O  O511  1  0.42663329  0.35484476  0.92534710  1
  O  O512  1  0.42607787  0.68652466  0.17443200  1
  O  O513  1  0.42738722  0.68715741  0.42518185  1
  O  O514  1  0.42609179  0.68726951  0.67388290  1
  O  O515  1  0.42680278  0.68527680  0.92565542  1
  O  O516  1  0.92676308  0.01850368  0.17564067  1
  O  O517  1  0.92686506  0.01768265  0.42661148  1
  O  O518  1  0.92713830  0.01936240  0.67670045  1
  O  O519  1  0.92616169  0.02112424  0.92542952  1
  O  O520  1  0.92632338  0.35241618  0.17478070  1
  O  O521  1  0.92670177  0.35137794  0.42637681  1
  O  O522  1  0.92673152  0.35149362  0.67620778  1
  O  O523  1  0.92670640  0.35124620  0.92646849  1
  O  O524  1  0.92701493  0.68625683  0.17749761  1
  O  O525  1  0.92707712  0.68765916  0.42501600  1
  O  O526  1  0.92627975  0.68676276  0.67423048  1
  O  O527  1  0.92630853  0.68548877  0.92642843  1
  O  O528  1  0.17702209  0.01921267  0.19830821  1
  O  O529  1  0.17607866  0.01990678  0.44953890  1
  O  O530  1  0.17632255  0.01963784  0.70117450  1
  O  O531  1  0.17603525  0.02162856  0.95010261  1
  O  O532  1  0.17738138  0.35392496  0.19798633  1
  O  O533  1  0.17753057  0.35357311  0.44780330  1
  O  O534  1  0.17647964  0.35300857  0.70033047  1
  O  O535  1  0.17617497  0.35543100  0.95066464  1
  O  O536  1  0.17806086  0.68622445  0.19773335  1
  O  O537  1  0.17635365  0.68510153  0.44780334  1
  O  O538  1  0.17639349  0.68456841  0.69966766  1
  O  O539  1  0.17651124  0.68827724  0.95088982  1
  O  O540  1  0.67768643  0.01961102  0.19906662  1
  O  O541  1  0.67796649  0.02078668  0.45032064  1
  O  O542  1  0.67702313  0.02044677  0.69942460  1
  O  O543  1  0.67635840  0.01967760  0.95070689  1
  O  O544  1  0.67862534  0.35297345  0.19852956  1
  O  O545  1  0.67718701  0.35421288  0.45022220  1
  O  O546  1  0.67866530  0.35361480  0.69839146  1
  O  O547  1  0.67747650  0.35448754  0.94998818  1
  O  O548  1  0.67674627  0.68668784  0.19895270  1
  O  O549  1  0.67697890  0.68445241  0.44968274  1
  O  O550  1  0.67764865  0.68571244  0.69946320  1
  O  O551  1  0.67888152  0.68565964  0.94806727  1
  O  O552  1  0.32258740  0.31610986  0.05009048  1
  O  O553  1  0.32332919  0.31576732  0.30003318  1
  O  O554  1  0.32399024  0.31434637  0.54993019  1
  O  O555  1  0.32344728  0.31256631  0.80074092  1
  O  O556  1  0.32106017  0.64797228  0.05142902  1
  O  O557  1  0.32235216  0.64712329  0.30027730  1
  O  O558  1  0.32299088  0.64807287  0.55064406  1
  O  O559  1  0.32332422  0.64579139  0.80115758  1
  O  O560  1  0.32126091  0.98147548  0.05055054  1
  O  O561  1  0.32366149  0.98003335  0.29857634  1
  O  O562  1  0.32343939  0.97942639  0.54987900  1
  O  O563  1  0.32318307  0.97817775  0.80056331  1
  O  O564  1  0.82156321  0.31403489  0.05244758  1
  O  O565  1  0.82392271  0.31189843  0.30043843  1
  O  O566  1  0.82174093  0.31399145  0.55197487  1
  O  O567  1  0.82382201  0.31349193  0.79956145  1
  O  O568  1  0.82289697  0.64552129  0.05046932  1
  O  O569  1  0.82201904  0.64648047  0.30155138  1
  O  O570  1  0.82315222  0.64650682  0.55158759  1
  O  O571  1  0.82192400  0.64676113  0.80185759  1
  O  O572  1  0.82247772  0.97940795  0.05108694  1
  O  O573  1  0.82377055  0.97936001  0.29965895  1
  O  O574  1  0.82350071  0.97794984  0.55049729  1
  O  O575  1  0.82265418  0.97849907  0.80011286  1
  O  O576  1  0.42599861  0.14720762  0.17512546  1
  O  O577  1  0.42719882  0.14609384  0.42556042  1
  O  O578  1  0.42706563  0.14556792  0.67466377  1
  O  O579  1  0.42705409  0.14855814  0.92575644  1
  O  O580  1  0.42721992  0.48207582  0.17556077  1
  O  O581  1  0.42632770  0.48056468  0.42445089  1
  O  O582  1  0.42653031  0.48170953  0.67617713  1
  O  O583  1  0.42673878  0.48183479  0.92664090  1
  O  O584  1  0.42697092  0.81335412  0.17350260  1
  O  O585  1  0.42698666  0.81449326  0.42532542  1
  O  O586  1  0.42600124  0.81404829  0.67468532  1
  O  O587  1  0.42695900  0.81259590  0.92502300  1
  O  O588  1  0.92717591  0.14561659  0.17654864  1
  O  O589  1  0.92669208  0.14472246  0.42560716  1
  O  O590  1  0.92828941  0.14678466  0.67673232  1
  O  O591  1  0.92611760  0.14804366  0.92555432  1
  O  O592  1  0.92567578  0.47933532  0.17427045  1
  O  O593  1  0.92687572  0.47870448  0.42604135  1
  O  O594  1  0.92730842  0.47856763  0.67557511  1
  O  O595  1  0.92627344  0.47833402  0.92506579  1
  O  O596  1  0.92777222  0.81358631  0.17641125  1
  O  O597  1  0.92681657  0.81469167  0.42554469  1
  O  O598  1  0.92578539  0.81365506  0.67513740  1
  O  O599  1  0.92684391  0.81277232  0.92622771  1
  O  O600  1  0.07216505  0.18582237  0.07274977  1
  O  O601  1  0.07419615  0.18613238  0.32567510  1
  O  O602  1  0.07314632  0.18710853  0.57543477  1
  O  O603  1  0.07124281  0.18610440  0.82341542  1
  O  O604  1  0.07261732  0.52132272  0.07590522  1
  O  O605  1  0.07247272  0.52063305  0.32415535  1
  O  O606  1  0.07409816  0.51935249  0.57512532  1
  O  O607  1  0.07342451  0.51972728  0.82696083  1
  O  O608  1  0.07320543  0.85302300  0.07565535  1
  O  O609  1  0.07259835  0.85292453  0.32329447  1
  O  O610  1  0.07218357  0.85323306  0.57365304  1
  O  O611  1  0.07265887  0.85433019  0.82472468  1
  O  O612  1  0.57276899  0.18578957  0.07379341  1
  O  O613  1  0.57429862  0.18634856  0.32496569  1
  O  O614  1  0.57458887  0.18688432  0.57562405  1
  O  O615  1  0.57462091  0.18701282  0.82513534  1
  O  O616  1  0.57228216  0.51986601  0.07245141  1
  O  O617  1  0.57364149  0.51905958  0.32337552  1
  O  O618  1  0.57396512  0.51998124  0.57491698  1
  O  O619  1  0.57320355  0.51915260  0.82436697  1
  O  O620  1  0.57458939  0.85338792  0.07426169  1
  O  O621  1  0.57461695  0.85314097  0.32520809  1
  O  O622  1  0.57227170  0.85291724  0.57382923  1
  O  O623  1  0.57318738  0.85420154  0.82403758  1
  O  O624  1  0.32312783  0.18902987  0.05045628  1
  O  O625  1  0.32291652  0.18855376  0.29900282  1
  O  O626  1  0.32414898  0.18745700  0.54861561  1
  O  O627  1  0.32305285  0.18532154  0.80149464  1
  O  O628  1  0.32233607  0.52066279  0.05213994  1
  O  O629  1  0.32124250  0.51993003  0.30105822  1
  O  O630  1  0.32289382  0.52117889  0.54965713  1
  O  O631  1  0.32236145  0.51873654  0.80147727  1
  O  O632  1  0.32265564  0.85401093  0.05137721  1
  O  O633  1  0.32406886  0.85325483  0.29800098  1
  O  O634  1  0.32351766  0.85240616  0.54936129  1
  O  O635  1  0.32248143  0.85099503  0.80126426  1
  O  O636  1  0.82177952  0.18648682  0.05215813  1
  O  O637  1  0.82312331  0.18490277  0.30099859  1
  O  O638  1  0.82309782  0.18649559  0.55199346  1
  O  O639  1  0.82343875  0.18670951  0.79967658  1
  O  O640  1  0.82331466  0.51868628  0.05109784  1
  O  O641  1  0.82211977  0.51914942  0.30211507  1
  O  O642  1  0.82274351  0.51946126  0.55193399  1
  O  O643  1  0.82273740  0.51950598  0.80095551  1
  O  O644  1  0.82230532  0.85197041  0.05197514  1
  O  O645  1  0.82366611  0.85263751  0.29905648  1
  O  O646  1  0.82234517  0.85065150  0.55086862  1
  O  O647  1  0.82343076  0.85146249  0.80091167  1
  O  O648  1  0.17586739  0.14648887  0.19942502  1
  O  O649  1  0.17577621  0.14699766  0.44988011  1
  O  O650  1  0.17626155  0.14662744  0.70002117  1
  O  O651  1  0.17712231  0.14880363  0.94968510  1
  O  O652  1  0.17715900  0.48110415  0.19896445  1
  O  O653  1  0.17785954  0.48097702  0.44743901  1
  O  O654  1  0.17552997  0.47990436  0.69992534  1
  O  O655  1  0.17684476  0.48247224  0.95005456  1
  O  O656  1  0.17727712  0.81354010  0.19878333  1
  O  O657  1  0.17717031  0.81210893  0.44912707  1
  O  O658  1  0.17611411  0.81166259  0.69911947  1
  O  O659  1  0.17683380  0.81524396  0.94957682  1
  O  O660  1  0.67881449  0.14700568  0.19802182  1
  O  O661  1  0.67768873  0.14797139  0.44926101  1
  O  O662  1  0.67751058  0.14768270  0.69925368  1
  O  O663  1  0.67690021  0.14647092  0.95133746  1
  O  O664  1  0.67773333  0.48030178  0.19861565  1
  O  O665  1  0.67736899  0.48110466  0.44933610  1
  O  O666  1  0.67791934  0.48099526  0.69873220  1
  O  O667  1  0.67723569  0.48137223  0.94890514  1
  O  O668  1  0.67700633  0.81375898  0.19899075  1
  O  O669  1  0.67735532  0.81144238  0.45038109  1
  O  O670  1  0.67794112  0.81293653  0.69828915  1
  O  O671  1  0.67749414  0.81297900  0.94811358  1
