# generated using pymatgen
data_Na2MnFe(PO4)2
_symmetry_space_group_name_H-M   'P 1'
_cell_length_a   22.34169548
_cell_length_b   20.09550447
_cell_length_c   19.45108759
_cell_angle_alpha   90.07282260
_cell_angle_beta   90.04475295
_cell_angle_gamma   89.98644206
_symmetry_Int_Tables_number   1
_chemical_formula_structural   Na2MnFe(PO4)2
_chemical_formula_sum   'Na96 Mn48 Fe48 P96 O384'
_cell_volume   8732.89895429
_cell_formula_units_Z   48
loop_
 _symmetry_equiv_pos_site_id
 _symmetry_equiv_pos_as_xyz
  1  'x, y, z'
loop_
 _atom_site_type_symbol
 _atom_site_label
 _atom_site_symmetry_multiplicity
 _atom_site_fract_x
 _atom_site_fract_y
 _atom_site_fract_z
 _atom_site_occupancy
  Na  Na0  1  0.13944452  0.25057724  0.24382503  1
  Na  Na1  1  0.13968034  0.25100859  0.49420083  1
  Na  Na2  1  0.13979061  0.25161837  0.74322040  1
  Na  Na3  1  0.14020687  0.25091830  0.99374050  1
  Na  Na4  1  0.14000058  0.58320867  0.24373219  1
  Na  Na5  1  0.14066608  0.58209010  0.49479409  1
  Na  Na6  1  0.14075920  0.58353962  0.74458193  1
  Na  Na7  1  0.14017564  0.58385433  0.99386246  1
  Na  Na8  1  0.14004206  0.91556318  0.24308658  1
  Na  Na9  1  0.14021414  0.91558098  0.49380888  1
  Na  Na10  1  0.14008035  0.91588984  0.74389063  1
  Na  Na11  1  0.14011279  0.91610776  0.99318297  1
  Na  Na12  1  0.63981063  0.24790240  0.24298828  1
  Na  Na13  1  0.63964893  0.24960170  0.49386869  1
  Na  Na14  1  0.64037621  0.24952851  0.74384292  1
  Na  Na15  1  0.64040282  0.25005156  0.99390048  1
  Na  Na16  1  0.64015450  0.58295467  0.24289182  1
  Na  Na17  1  0.64040589  0.58384028  0.49330070  1
  Na  Na18  1  0.64080912  0.58216867  0.74470251  1
  Na  Na19  1  0.64081417  0.58350451  0.99341520  1
  Na  Na20  1  0.64005351  0.91506876  0.24228341  1
  Na  Na21  1  0.64006036  0.91603997  0.49238988  1
  Na  Na22  1  0.63991543  0.91623669  0.74436876  1
  Na  Na23  1  0.63996050  0.91603889  0.99233668  1
  Na  Na24  1  0.36036062  0.08288102  0.00608728  1
  Na  Na25  1  0.36016341  0.08428562  0.25700609  1
  Na  Na26  1  0.35956264  0.08397504  0.50675073  1
  Na  Na27  1  0.36005748  0.08308380  0.75617121  1
  Na  Na28  1  0.35995727  0.41846738  0.00601836  1
  Na  Na29  1  0.36003539  0.41812714  0.25740178  1
  Na  Na30  1  0.35920227  0.41738824  0.50608264  1
  Na  Na31  1  0.35972218  0.41793872  0.75570082  1
  Na  Na32  1  0.36056954  0.74985106  0.00605668  1
  Na  Na33  1  0.36040447  0.74987213  0.25632028  1
  Na  Na34  1  0.35992342  0.74942857  0.50627209  1
  Na  Na35  1  0.35978207  0.74956418  0.75557285  1
  Na  Na36  1  0.85988072  0.08388933  0.00696579  1
  Na  Na37  1  0.85951993  0.08219776  0.25585700  1
  Na  Na38  1  0.85936785  0.08397525  0.50605284  1
  Na  Na39  1  0.85969023  0.08432247  0.75765666  1
  Na  Na40  1  0.85979055  0.41808414  0.00657029  1
  Na  Na41  1  0.86000447  0.41545434  0.25699800  1
  Na  Na42  1  0.85954768  0.41589808  0.50581057  1
  Na  Na43  1  0.85929381  0.41678519  0.75707839  1
  Na  Na44  1  0.85996746  0.75113697  0.00674334  1
  Na  Na45  1  0.85982683  0.74948930  0.25561276  1
  Na  Na46  1  0.85946079  0.74973160  0.50463830  1
  Na  Na47  1  0.85942663  0.75028062  0.75814771  1
  Na  Na48  1  0.10915055  0.08365614  0.11879210  1
  Na  Na49  1  0.10888039  0.08266353  0.36895109  1
  Na  Na50  1  0.10870863  0.08494628  0.61924219  1
  Na  Na51  1  0.10907022  0.08443742  0.86952850  1
  Na  Na52  1  0.10918572  0.41712074  0.11918038  1
  Na  Na53  1  0.10898518  0.41470900  0.36882063  1
  Na  Na54  1  0.10997801  0.41621112  0.61909197  1
  Na  Na55  1  0.10989262  0.41747227  0.86828994  1
  Na  Na56  1  0.10936144  0.74996389  0.11804214  1
  Na  Na57  1  0.10981399  0.74858617  0.36877121  1
  Na  Na58  1  0.10985499  0.75030911  0.61844178  1
  Na  Na59  1  0.10979504  0.74993416  0.86946295  1
  Na  Na60  1  0.60949765  0.08179443  0.11884675  1
  Na  Na61  1  0.60912427  0.08382741  0.36759634  1
  Na  Na62  1  0.60947224  0.08216132  0.61916094  1
  Na  Na63  1  0.60932325  0.08121173  0.86860271  1
  Na  Na64  1  0.60981901  0.41616179  0.11895799  1
  Na  Na65  1  0.60878795  0.41633795  0.36746692  1
  Na  Na66  1  0.60966172  0.41590792  0.61947353  1
  Na  Na67  1  0.61032044  0.41536733  0.86785490  1
  Na  Na68  1  0.61001475  0.75026042  0.11848365  1
  Na  Na69  1  0.60976544  0.75063531  0.36676507  1
  Na  Na70  1  0.61016821  0.75034912  0.61898888  1
  Na  Na71  1  0.61016985  0.75035886  0.86790853  1
  Na  Na72  1  0.39103710  0.25045995  0.13258318  1
  Na  Na73  1  0.39017712  0.25087993  0.38123494  1
  Na  Na74  1  0.39030314  0.24982706  0.63150663  1
  Na  Na75  1  0.39093477  0.24891220  0.88035984  1
  Na  Na76  1  0.39096684  0.58431042  0.13208099  1
  Na  Na77  1  0.39072726  0.58515238  0.38117358  1
  Na  Na78  1  0.39024896  0.58427174  0.63227776  1
  Na  Na79  1  0.39013701  0.58370100  0.88130541  1
  Na  Na80  1  0.39140323  0.91659900  0.13094429  1
  Na  Na81  1  0.39084134  0.91756487  0.38074100  1
  Na  Na82  1  0.39092089  0.91653552  0.63107536  1
  Na  Na83  1  0.39066236  0.91640807  0.88002911  1
  Na  Na84  1  0.89047706  0.25068438  0.13188734  1
  Na  Na85  1  0.88980667  0.24840138  0.38108823  1
  Na  Na86  1  0.89004272  0.25093858  0.63173059  1
  Na  Na87  1  0.89060477  0.25106622  0.88151231  1
  Na  Na88  1  0.89031996  0.58360889  0.13109402  1
  Na  Na89  1  0.89013690  0.58185971  0.38027773  1
  Na  Na90  1  0.89015605  0.58277314  0.63170946  1
  Na  Na91  1  0.89018732  0.58437319  0.88346886  1
  Na  Na92  1  0.89040693  0.91748712  0.13036493  1
  Na  Na93  1  0.89034136  0.91548039  0.38021610  1
  Na  Na94  1  0.89022406  0.91814484  0.63117543  1
  Na  Na95  1  0.89043046  0.91745424  0.88335699  1
  Mn  Mn96  1  0.24915989  -0.00078783  0.62510000  1
  Mn  Mn97  1  0.25099561  0.33513962  0.87447938  1
  Mn  Mn98  1  0.75035812  0.49988407  0.12494452  1
  Mn  Mn99  1  0.00030364  0.49973991  0.75046320  1
  Mn  Mn100  1  0.00016978  0.33363183  0.00048085  1
  Mn  Mn101  1  -0.00025666  0.66581662  0.49931801  1
  Mn  Mn102  1  0.50010109  0.50071276  0.49937883  1
  Mn  Mn103  1  0.74995107  0.16717169  0.87569265  1
  Mn  Mn104  1  0.49930540  0.33277508  0.49962631  1
  Mn  Mn105  1  0.24996751  -0.00042067  0.37548449  1
  Mn  Mn106  1  0.50008631  0.33242091  0.74966159  1
  Mn  Mn107  1  0.00006769  0.00166308  0.75128933  1
  Mn  Mn108  1  0.25051906  0.16755363  0.12535650  1
  Mn  Mn109  1  0.74914014  0.33201654  0.37533775  1
  Mn  Mn110  1  0.25061451  0.83191870  0.87446552  1
  Mn  Mn111  1  -0.00037043  0.66707383  0.75088482  1
  Mn  Mn112  1  0.25008778  0.50177243  0.12603170  1
  Mn  Mn113  1  0.25045622  0.83205700  0.12458112  1
  Mn  Mn114  1  0.49989050  0.33252840  0.00012805  1
  Mn  Mn115  1  -0.00068258  0.83377541  0.49982297  1
  Mn  Mn116  1  0.24998713  -0.00019045  0.87467822  1
  Mn  Mn117  1  0.75034789  0.49929540  0.62496077  1
  Mn  Mn118  1  0.74982063  -0.00063629  0.37488640  1
  Mn  Mn119  1  0.50104361  0.66825076  0.50035157  1
  Mn  Mn120  1  0.75017145  0.83299023  0.62509432  1
  Mn  Mn121  1  0.74988966  0.16593690  0.12421327  1
  Mn  Mn122  1  0.50031154  0.49958434  0.00077469  1
  Mn  Mn123  1  0.50108857  0.66725950  0.00022659  1
  Mn  Mn124  1  0.24972241  0.50051514  0.37550247  1
  Mn  Mn125  1  0.50005196  0.00019580  0.49972025  1
  Mn  Mn126  1  0.25036987  0.33473384  0.12439089  1
  Mn  Mn127  1  0.24936240  0.16764174  0.62515615  1
  Mn  Mn128  1  0.25023607  0.16744456  0.87463651  1
  Mn  Mn129  1  -0.00007539  0.66621348  0.24932300  1
  Mn  Mn130  1  0.24897603  0.16811718  0.37584261  1
  Mn  Mn131  1  0.24999230  0.00004621  0.12500442  1
  Mn  Mn132  1  -0.00041640  0.16670053  0.50002513  1
  Mn  Mn133  1  0.74995501  0.66656925  0.62518110  1
  Mn  Mn134  1  -0.00022178  0.83422436  0.75028020  1
  Mn  Mn135  1  0.50035422  0.66694767  0.75015498  1
  Mn  Mn136  1  0.74913447  0.50001571  0.37502538  1
  Mn  Mn137  1  0.74995000  -0.00014825  0.62478140  1
  Mn  Mn138  1  0.00009006  -0.00037390  0.24904153  1
  Mn  Mn139  1  0.24988191  0.83174667  0.37450640  1
  Mn  Mn140  1  0.74951996  0.16756698  0.62628620  1
  Mn  Mn141  1  -0.00025712  0.49800873  0.50077056  1
  Mn  Mn142  1  0.75002582  0.83281363  0.12407319  1
  Mn  Mn143  1  0.50079580  0.16477856  0.00065041  1
  Fe  Fe144  1  -0.00021068  0.50004746  0.00019718  1
  Fe  Fe145  1  0.74992164  0.83255258  0.37371970  1
  Fe  Fe146  1  0.50003933  0.83354727  -0.00029847  1
  Fe  Fe147  1  0.00042769  0.83405713  0.00026365  1
  Fe  Fe148  1  0.75040133  0.66624722  0.37440498  1
  Fe  Fe149  1  0.74998005  0.33333006  0.12470416  1
  Fe  Fe150  1  0.50031965  0.83400603  0.49927304  1
  Fe  Fe151  1  0.25026360  0.83204624  0.62466114  1
  Fe  Fe152  1  0.50020915  0.33322863  0.25020097  1
  Fe  Fe153  1  0.25000339  0.66608809  0.62538174  1
  Fe  Fe154  1  0.49977091  -0.00089332  -0.00034837  1
  Fe  Fe155  1  -0.00074802  0.33247535  0.49958458  1
  Fe  Fe156  1  0.00001371  0.66713484  0.00089945  1
  Fe  Fe157  1  0.74956378  0.33340417  0.62516336  1
  Fe  Fe158  1  0.50003265  0.16544988  0.75026481  1
  Fe  Fe159  1  0.49986144  0.16642863  0.49958068  1
  Fe  Fe160  1  0.25001439  0.66646286  0.87450325  1
  Fe  Fe161  1  0.00001647  0.00110729  0.00062618  1
  Fe  Fe162  1  0.25024187  0.50115276  0.87485033  1
  Fe  Fe163  1  0.25022821  0.50070746  0.62513592  1
  Fe  Fe164  1  0.75003301  0.66673287  0.87503241  1
  Fe  Fe165  1  0.50021633  0.49993874  0.75004435  1
  Fe  Fe166  1  0.50012990  0.50052264  0.25009738  1
  Fe  Fe167  1  0.24966780  0.33419024  0.37541633  1
  Fe  Fe168  1  -0.00012353  0.33270897  0.24944876  1
  Fe  Fe169  1  0.74990944  0.00006005  0.87533677  1
  Fe  Fe170  1  0.00034500  0.16770240  0.00016228  1
  Fe  Fe171  1  0.50030832  0.83346014  0.74972418  1
  Fe  Fe172  1  0.74961183  0.16586797  0.37457921  1
  Fe  Fe173  1  0.24987186  0.66625413  0.37606631  1
  Fe  Fe174  1  0.74975608  -0.00089442  0.12499530  1
  Fe  Fe175  1  -0.00011480  0.49939607  0.25000968  1
  Fe  Fe176  1  0.75017889  0.66673535  0.12430421  1
  Fe  Fe177  1  -0.00023714  -0.00009708  0.49959233  1
  Fe  Fe178  1  0.50033127  0.83415277  0.24925877  1
  Fe  Fe179  1  -0.00068400  0.16759253  0.75021658  1
  Fe  Fe180  1  0.74995282  0.49993753  0.87544338  1
  Fe  Fe181  1  0.00011407  0.83331153  0.24938364  1
  Fe  Fe182  1  0.25026939  0.66665948  0.12484904  1
  Fe  Fe183  1  0.50007895  -0.00073689  0.74949966  1
  Fe  Fe184  1  0.25024383  0.33448320  0.62499208  1
  Fe  Fe185  1  -0.00028311  0.33351157  0.75042097  1
  Fe  Fe186  1  0.50007320  0.00000999  0.24974192  1
  Fe  Fe187  1  -0.00085923  0.16612715  0.25023715  1
  Fe  Fe188  1  0.75028395  0.83366312  0.87549648  1
  Fe  Fe189  1  0.49959836  0.16641185  0.24974095  1
  Fe  Fe190  1  0.50053877  0.66763223  0.24996200  1
  Fe  Fe191  1  0.75028223  0.33379803  0.87535148  1
  P  P192  1  0.04206930  0.24912732  0.10338850  1
  P  P193  1  0.04058544  0.24943591  0.35169200  1
  P  P194  1  0.04164284  0.25154817  0.60314368  1
  P  P195  1  0.04151799  0.25028608  0.85202672  1
  P  P196  1  0.04109865  0.58279824  0.10203814  1
  P  P197  1  0.04204527  0.58118774  0.35222819  1
  P  P198  1  0.04259130  0.58285098  0.60330773  1
  P  P199  1  0.04221782  0.58359999  0.85464833  1
  P  P200  1  0.04159731  0.91702344  0.10176910  1
  P  P201  1  0.04225112  0.91546761  0.35220471  1
  P  P202  1  0.04206914  0.91866119  0.60254047  1
  P  P203  1  0.04252137  0.91731839  0.85457513  1
  P  P204  1  0.54259460  0.24928297  0.10419052  1
  P  P205  1  0.54104496  0.24938379  0.35151344  1
  P  P206  1  0.54159961  0.24785736  0.60263059  1
  P  P207  1  0.54256069  0.24765112  0.85242491  1
  P  P208  1  0.54300760  0.58354545  0.10423690  1
  P  P209  1  0.54163933  0.58409017  0.35128753  1
  P  P210  1  0.54299336  0.58336970  0.60356397  1
  P  P211  1  0.54234021  0.58225326  0.85257784  1
  P  P212  1  0.54181065  0.91635621  0.10170379  1
  P  P213  1  0.54171200  0.91690255  0.35113895  1
  P  P214  1  0.54251524  0.91541534  0.60251173  1
  P  P215  1  0.54109039  0.91622973  0.85200330  1
  P  P216  1  0.45855659  0.08248975  0.14817629  1
  P  P217  1  0.45758161  0.08475512  0.39688152  1
  P  P218  1  0.45864290  0.08306152  0.64805362  1
  P  P219  1  0.45802884  0.08127630  0.89668222  1
  P  P220  1  0.45881027  0.41683151  0.14898074  1
  P  P221  1  0.45744262  0.41704535  0.39583331  1
  P  P222  1  0.45802747  0.41756738  0.64754605  1
  P  P223  1  0.45787982  0.41654131  0.89644650  1
  P  P224  1  0.45927599  0.75089195  0.14800615  1
  P  P225  1  0.45865480  0.75206231  0.39641593  1
  P  P226  1  0.45827712  0.75171662  0.64716803  1
  P  P227  1  0.45850296  0.75144782  0.89711408  1
  P  P228  1  0.95768080  0.08483104  0.14662556  1
  P  P229  1  0.95745607  0.08183529  0.39714559  1
  P  P230  1  0.95714320  0.08517820  0.64784520  1
  P  P231  1  0.95857277  0.08479392  0.89878607  1
  P  P232  1  0.95845149  0.41697376  0.14819134  1
  P  P233  1  0.95737893  0.41437200  0.39657821  1
  P  P234  1  0.95745445  0.41499026  0.64780459  1
  P  P235  1  0.95809643  0.41750634  0.89776312  1
  P  P236  1  0.95821492  0.75152995  0.14639306  1
  P  P237  1  0.95742848  0.74974682  0.39576290  1
  P  P238  1  0.95679325  0.75041379  0.64716901  1
  P  P239  1  0.95874153  0.75065950  0.89929092  1
  P  P240  1  0.20706711  0.08384949  0.22844900  1
  P  P241  1  0.20667666  0.08358320  0.47847838  1
  P  P242  1  0.20675033  0.08351010  0.72812471  1
  P  P243  1  0.20739328  0.08384191  0.97809803  1
  P  P244  1  0.20729517  0.41722102  0.22866660  1
  P  P245  1  0.20747537  0.41600167  0.47839948  1
  P  P246  1  0.20880835  0.41816614  0.72683572  1
  P  P247  1  0.20796716  0.41918755  0.97716628  1
  P  P248  1  0.20756450  0.74791767  0.22760652  1
  P  P249  1  0.20774970  0.74806516  0.47857899  1
  P  P250  1  0.20844077  0.74902975  0.72671203  1
  P  P251  1  0.20820340  0.74792202  0.97749369  1
  P  P252  1  0.70789900  0.08139075  0.22732765  1
  P  P253  1  0.70723658  0.08447158  0.47730787  1
  P  P254  1  0.70747826  0.08280991  0.72906018  1
  P  P255  1  0.70786229  0.08199276  0.97788186  1
  P  P256  1  0.70782096  0.41492750  0.22728830  1
  P  P257  1  0.70634858  0.41612344  0.47836358  1
  P  P258  1  0.70792786  0.41542762  0.72845710  1
  P  P259  1  0.70879465  0.41648170  0.97714307  1
  P  P260  1  0.70839975  0.74839231  0.22737461  1
  P  P261  1  0.70836344  0.74957267  0.47564442  1
  P  P262  1  0.70780651  0.74988799  0.72935687  1
  P  P263  1  0.70883235  0.74979452  0.97655046  1
  P  P264  1  0.29371806  0.25088969  0.02165908  1
  P  P265  1  0.29205025  0.25208827  0.27299613  1
  P  P266  1  0.29182913  0.25238061  0.52245587  1
  P  P267  1  0.29288060  0.25135296  0.77100001  1
  P  P268  1  0.29278939  0.58493270  0.02210551  1
  P  P269  1  0.29226002  0.58532189  0.27295760  1
  P  P270  1  0.29193331  0.58351046  0.52347614  1
  P  P271  1  0.29177579  0.58367299  0.77255795  1
  P  P272  1  0.29307967  0.91604799  0.02171133  1
  P  P273  1  0.29283100  0.91598782  0.27185755  1
  P  P274  1  0.29213049  0.91478824  0.52262377  1
  P  P275  1  0.29240012  0.91551925  0.77096539  1
  P  P276  1  0.79233336  0.25171380  0.02235975  1
  P  P277  1  0.79166397  0.24802036  0.27208954  1
  P  P278  1  0.79178636  0.25077952  0.52268555  1
  P  P279  1  0.79198260  0.25179658  0.77289725  1
  P  P280  1  0.79199232  0.58473785  0.02162422  1
  P  P281  1  0.79203948  0.58404982  0.27175832  1
  P  P282  1  0.79281495  0.58344148  0.52150432  1
  P  P283  1  0.79169978  0.58306046  0.77399427  1
  P  P284  1  0.79167231  0.91799652  0.02156813  1
  P  P285  1  0.79193559  0.91500190  0.27174492  1
  P  P286  1  0.79239201  0.91593072  0.52106883  1
  P  P287  1  0.79165507  0.91700408  0.77397737  1
  O  O288  1  0.03648725  0.24918454  0.18319560  1
  O  O289  1  0.03565255  0.25017693  0.43165611  1
  O  O290  1  0.03630864  0.25152826  0.68300857  1
  O  O291  1  0.03661582  0.24997520  0.93200385  1
  O  O292  1  0.03621765  0.58245853  0.18201363  1
  O  O293  1  0.03682499  0.58125805  0.43213910  1
  O  O294  1  0.03761239  0.58316499  0.68328144  1
  O  O295  1  0.03674694  0.58349964  0.93452326  1
  O  O296  1  0.03665625  0.91648518  0.18174344  1
  O  O297  1  0.03682451  0.91633671  0.43211400  1
  O  O298  1  0.03713408  0.91862836  0.68254659  1
  O  O299  1  0.03730715  0.91715548  0.93447108  1
  O  O300  1  0.53711041  0.24944611  0.18406776  1
  O  O301  1  0.53627542  0.24954342  0.43149280  1
  O  O302  1  0.53628213  0.24763551  0.68254756  1
  O  O303  1  0.53747425  0.24803471  0.93239926  1
  O  O304  1  0.53769184  0.58364320  0.18411812  1
  O  O305  1  0.53706047  0.58461587  0.43129533  1
  O  O306  1  0.53762511  0.58279566  0.68351050  1
  O  O307  1  0.53762067  0.58263165  0.93257864  1
  O  O308  1  0.53658596  0.91628604  0.18154569  1
  O  O309  1  0.53708501  0.91701418  0.43108475  1
  O  O310  1  0.53716169  0.91536182  0.68234506  1
  O  O311  1  0.53599321  0.91655504  0.93186862  1
  O  O312  1  0.46362742  0.08153412  0.06824756  1
  O  O313  1  0.46274435  0.08460753  0.31705327  1
  O  O314  1  0.46317119  0.08312608  0.56806816  1
  O  O315  1  0.46332651  0.08172207  0.81681770  1
  O  O316  1  0.46362626  0.41621461  0.06896692  1
  O  O317  1  0.46292347  0.41712179  0.31596484  1
  O  O318  1  0.46287283  0.41749037  0.56757631  1
  O  O319  1  0.46321900  0.41709866  0.81651643  1
  O  O320  1  0.46421216  0.75062975  0.06805044  1
  O  O321  1  0.46401481  0.75168567  0.31653522  1
  O  O322  1  0.46350331  0.75170341  0.56722638  1
  O  O323  1  0.46383040  0.75123732  0.81721139  1
  O  O324  1  0.96326482  0.08498143  0.06681067  1
  O  O325  1  0.96270679  0.08229747  0.31723374  1
  O  O326  1  0.96211716  0.08448747  0.56794033  1
  O  O327  1  0.96344218  0.08503528  0.81881636  1
  O  O328  1  0.96342242  0.41729589  0.06823860  1
  O  O329  1  0.96296873  0.41503483  0.31674429  1
  O  O330  1  0.96229651  0.41446764  0.56781859  1
  O  O331  1  0.96325104  0.41663852  0.81786977  1
  O  O332  1  0.96401672  0.75156314  0.06655523  1
  O  O333  1  0.96302651  0.75020075  0.31584038  1
  O  O334  1  0.96177097  0.75021732  0.56718023  1
  O  O335  1  0.96310645  0.75036571  0.81926979  1
  O  O336  1  0.21252052  0.08398155  0.05809482  1
  O  O337  1  0.21185451  0.08380179  0.30846985  1
  O  O338  1  0.21184075  0.08365408  0.55843292  1
  O  O339  1  0.21210775  0.08358458  0.80807141  1
  O  O340  1  0.21288806  0.41896191  0.05713491  1
  O  O341  1  0.21228844  0.41676245  0.30862560  1
  O  O342  1  0.21312265  0.41631447  0.55825795  1
  O  O343  1  0.21410946  0.41875785  0.80677799  1
  O  O344  1  0.21329651  0.74803446  0.05743142  1
  O  O345  1  0.21242015  0.74782727  0.30760951  1
  O  O346  1  0.21338177  0.74866695  0.55844266  1
  O  O347  1  0.21357132  0.74870991  0.80668809  1
  O  O348  1  0.71318857  0.08168293  0.05781138  1
  O  O349  1  0.71326664  0.08228023  0.30723645  1
  O  O350  1  0.71232217  0.08438581  0.55729401  1
  O  O351  1  0.71291235  0.08243127  0.80898021  1
  O  O352  1  0.71375504  0.41638025  0.05713128  1
  O  O353  1  0.71248154  0.41531343  0.30725497  1
  O  O354  1  0.71159936  0.41581708  0.55833432  1
  O  O355  1  0.71341551  0.41585392  0.80836130  1
  O  O356  1  0.71356226  0.74987080  0.05654347  1
  O  O357  1  0.71381490  0.74882478  0.30721414  1
  O  O358  1  0.71299284  0.74986014  0.55571339  1
  O  O359  1  0.71317613  0.75004820  0.80923645  1
  O  O360  1  0.28752167  0.25164618  0.19296149  1
  O  O361  1  0.28637163  0.25244614  0.44250210  1
  O  O362  1  0.28745142  0.25179160  0.69106173  1
  O  O363  1  0.28882704  0.25097898  0.94163061  1
  O  O364  1  0.28730488  0.58553130  0.19300552  1
  O  O365  1  0.28668720  0.58368851  0.44354013  1
  O  O366  1  0.28640640  0.58358451  0.69268440  1
  O  O367  1  0.28760145  0.58430970  0.94221526  1
  O  O368  1  0.28793130  0.91595916  0.19188304  1
  O  O369  1  0.28703999  0.91503590  0.44262649  1
  O  O370  1  0.28691760  0.91485639  0.69105973  1
  O  O371  1  0.28806634  0.91596079  0.94172709  1
  O  O372  1  0.78654481  0.24855965  0.19218502  1
  O  O373  1  0.78644470  0.24955133  0.44277196  1
  O  O374  1  0.78641518  0.25187497  0.69301003  1
  O  O375  1  0.78710162  0.25183080  0.94242550  1
  O  O376  1  0.78681835  0.58402102  0.19179616  1
  O  O377  1  0.78752332  0.58371572  0.44154655  1
  O  O378  1  0.78704787  0.58270382  0.69395698  1
  O  O379  1  0.78640073  0.58423285  0.94178369  1
  O  O380  1  0.78682799  0.91551166  0.19179181  1
  O  O381  1  0.78709954  0.91535245  0.44112515  1
  O  O382  1  0.78716792  0.91648274  0.69390456  1
  O  O383  1  0.78636791  0.91807921  0.94168851  1
  O  O384  1  0.22910196  0.25084986  0.05623025  1
  O  O385  1  0.22752891  0.25250453  0.30800505  1
  O  O386  1  0.22759987  0.25249173  0.55819440  1
  O  O387  1  0.22860042  0.25150786  0.80640308  1
  O  O388  1  0.22843574  0.58547375  0.05789340  1
  O  O389  1  0.22790885  0.58518642  0.30845493  1
  O  O390  1  0.22778013  0.58335393  0.55953604  1
  O  O391  1  0.22777645  0.58360428  0.80914918  1
  O  O392  1  0.22859788  0.91591400  0.05659866  1
  O  O393  1  0.22832131  0.91587385  0.30665599  1
  O  O394  1  0.22776690  0.91452251  0.55788606  1
  O  O395  1  0.22820714  0.91557439  0.80657556  1
  O  O396  1  0.72804986  0.25154933  0.05798418  1
  O  O397  1  0.72736683  0.24741556  0.30777830  1
  O  O398  1  0.72751933  0.25160226  0.55848355  1
  O  O399  1  0.72782677  0.25162075  0.80883285  1
  O  O400  1  0.72800021  0.58462252  0.05805799  1
  O  O401  1  0.72781216  0.58460275  0.30760319  1
  O  O402  1  0.72848528  0.58301186  0.55684206  1
  O  O403  1  0.72744724  0.58375626  0.80952379  1
  O  O404  1  0.72754854  0.91781061  0.05764654  1
  O  O405  1  0.72769637  0.91507800  0.30739892  1
  O  O406  1  0.72807104  0.91620450  0.55648758  1
  O  O407  1  0.72730276  0.91724885  0.80922016  1
  O  O408  1  0.27167025  0.08361814  0.19383451  1
  O  O409  1  0.27113124  0.08405139  0.44358658  1
  O  O410  1  0.27111848  0.08340995  0.69300592  1
  O  O411  1  0.27184553  0.08376147  0.94311075  1
  O  O412  1  0.27174575  0.41775287  0.19364323  1
  O  O413  1  0.27159322  0.41573098  0.44215225  1
  O  O414  1  0.27284205  0.41803539  0.69054506  1
  O  O415  1  0.27238566  0.41961599  0.94192288  1
  O  O416  1  0.27205160  0.74777353  0.19236906  1
  O  O417  1  0.27191357  0.74785152  0.44240704  1
  O  O418  1  0.27261069  0.74909018  0.69075924  1
  O  O419  1  0.27249330  0.74750490  0.94191279  1
  O  O420  1  0.77204722  0.08113184  0.19136389  1
  O  O421  1  0.77160510  0.08428816  0.44192889  1
  O  O422  1  0.77169891  0.08328065  0.69348203  1
  O  O423  1  0.77210416  0.08236371  0.94220004  1
  O  O424  1  0.77222345  0.41494753  0.19204027  1
  O  O425  1  0.77071313  0.41617784  0.44318076  1
  O  O426  1  0.77201061  0.41470676  0.69210258  1
  O  O427  1  0.77294830  0.41635211  0.94132795  1
  O  O428  1  0.77245333  0.74845119  0.19104936  1
  O  O429  1  0.77264284  0.74909648  0.44010188  1
  O  O430  1  0.77205419  0.74978051  0.69368423  1
  O  O431  1  0.77301763  0.74924870  0.94086150  1
  O  O432  1  0.02170039  0.08507759  0.18313001  1
  O  O433  1  0.02164793  0.08191467  0.43319198  1
  O  O434  1  0.02148040  0.08586298  0.68354692  1
  O  O435  1  0.02270287  0.08498171  0.93480582  1
  O  O436  1  0.02259336  0.41735940  0.18419396  1
  O  O437  1  0.02148593  0.41381016  0.43300079  1
  O  O438  1  0.02187859  0.41508255  0.68322340  1
  O  O439  1  0.02237229  0.41813486  0.93350851  1
  O  O440  1  0.02222407  0.75148589  0.18291647  1
  O  O441  1  0.02157618  0.74992355  0.43164775  1
  O  O442  1  0.02134577  0.75045793  0.68206358  1
  O  O443  1  0.02300536  0.75108035  0.93482198  1
  O  O444  1  0.52269488  0.08341913  0.18422479  1
  O  O445  1  0.52185201  0.08462381  0.43287562  1
  O  O446  1  0.52281949  0.08329582  0.68392924  1
  O  O447  1  0.52218291  0.08045291  0.93297686  1
  O  O448  1  0.52301678  0.41761394  0.18470810  1
  O  O449  1  0.52162033  0.41658954  0.43170640  1
  O  O450  1  0.52233868  0.41700853  0.68300235  1
  O  O451  1  0.52217130  0.41609945  0.93201014  1
  O  O452  1  0.52339296  0.75129213  0.18405058  1
  O  O453  1  0.52286819  0.75237967  0.43256149  1
  O  O454  1  0.52250371  0.75135104  0.68303977  1
  O  O455  1  0.52274057  0.75194983  0.93304100  1
  O  O456  1  0.47843161  0.24879492  0.06827224  1
  O  O457  1  0.47689362  0.24902084  0.31554795  1
  O  O458  1  0.47739829  0.24791348  0.56659080  1
  O  O459  1  0.47828041  0.24776285  0.81675261  1
  O  O460  1  0.47877678  0.58382373  0.06850288  1
  O  O461  1  0.47741402  0.58341152  0.31564097  1
  O  O462  1  0.47868336  0.58434474  0.56811546  1
  O  O463  1  0.47799245  0.58263314  0.81721982  1
  O  O464  1  0.47771615  0.91626327  0.06517711  1
  O  O465  1  0.47747753  0.91648893  0.31534337  1
  O  O466  1  0.47835617  0.91550918  0.56620898  1
  O  O467  1  0.47721186  0.91581085  0.81530835  1
  O  O468  1  0.97795909  0.24900443  0.06707822  1
  O  O469  1  0.97652359  0.24892981  0.31551787  1
  O  O470  1  0.97747113  0.25147357  0.56690285  1
  O  O471  1  0.97727818  0.25034978  0.81606647  1
  O  O472  1  0.97696650  0.58248236  0.06604395  1
  O  O473  1  0.97779705  0.58126034  0.31640481  1
  O  O474  1  0.97813849  0.58246554  0.56825946  1
  O  O475  1  0.97797761  0.58322278  0.81882746  1
  O  O476  1  0.97747191  0.91662537  0.06575365  1
  O  O477  1  0.97805741  0.91493014  0.31611655  1
  O  O478  1  0.97765245  0.91863592  0.56709960  1
  O  O479  1  0.97820126  0.91753125  0.81895024  1
  O  O480  1  0.07310049  0.31285595  0.07539023  1
  O  O481  1  0.07120961  0.31299860  0.32290191  1
  O  O482  1  0.07255721  0.31475999  0.57416782  1
  O  O483  1  0.07215123  0.31427403  0.82426039  1
  O  O484  1  0.07119006  0.64712791  0.07417519  1
  O  O485  1  0.07308780  0.64481767  0.32451489  1
  O  O486  1  0.07339337  0.64625643  0.57484689  1
  O  O487  1  0.07310763  0.64717988  0.82639188  1
  O  O488  1  0.07149470  0.98143286  0.07398085  1
  O  O489  1  0.07335149  0.97888782  0.32395163  1
  O  O490  1  0.07248632  0.98227032  0.57394310  1
  O  O491  1  0.07375247  0.98066895  0.82633103  1
  O  O492  1  0.57352581  0.31273454  0.07563797  1
  O  O493  1  0.57128749  0.31350543  0.32329245  1
  O  O494  1  0.57244446  0.31178853  0.57518352  1
  O  O495  1  0.57370900  0.31114690  0.82452257  1
  O  O496  1  0.57433787  0.64674253  0.07563441  1
  O  O497  1  0.57172888  0.64810289  0.32286571  1
  O  O498  1  0.57444435  0.64685137  0.57582876  1
  O  O499  1  0.57373996  0.64567301  0.82494144  1
  O  O500  1  0.57254690  0.97997962  0.07329716  1
  O  O501  1  0.57173065  0.98104361  0.32272306  1
  O  O502  1  0.57363475  0.97903988  0.57458377  1
  O  O503  1  0.57153269  0.97993443  0.82307298  1
  O  O504  1  0.42827077  0.01878610  0.17710538  1
  O  O505  1  0.42643689  0.02123851  0.42510049  1
  O  O506  1  0.42854063  0.01886771  0.67624939  1
  O  O507  1  0.42674304  0.01809004  0.92524249  1
  O  O508  1  0.42862240  0.35288564  0.17743563  1
  O  O509  1  0.42602568  0.35386187  0.42430013  1
  O  O510  1  0.42655007  0.35412749  0.67499299  1
  O  O511  1  0.42680527  0.35285072  0.92409809  1
  O  O512  1  0.42903858  0.68694823  0.17663545  1
  O  O513  1  0.42767230  0.68849738  0.42473208  1
  O  O514  1  0.42710026  0.68806421  0.67488489  1
  O  O515  1  0.42791395  0.68752969  0.92497900  1
  O  O516  1  0.92673328  0.02095711  0.17421948  1
  O  O517  1  0.92711625  0.01796799  0.42536633  1
  O  O518  1  0.92623044  0.02175102  0.67640021  1
  O  O519  1  0.92841705  0.02066731  0.92702088  1
  O  O520  1  0.92843133  0.35269713  0.17620634  1
  O  O521  1  0.92618732  0.35102640  0.42488332  1
  O  O522  1  0.92655388  0.35199404  0.67712578  1
  O  O523  1  0.92717548  0.35406085  0.92617916  1
  O  O524  1  0.92693702  0.68782203  0.17382629  1
  O  O525  1  0.92664754  0.68583514  0.42325132  1
  O  O526  1  0.92579653  0.68704178  0.67554271  1
  O  O527  1  0.92854282  0.68672915  0.92780731  1
  O  O528  1  0.17598678  0.02038881  0.20012657  1
  O  O529  1  0.17603512  0.01984467  0.45037188  1
  O  O530  1  0.17557087  0.01999781  0.70023828  1
  O  O531  1  0.17645227  0.02019564  0.95017957  1
  O  O532  1  0.17625240  0.35406329  0.19971136  1
  O  O533  1  0.17633529  0.35275437  0.44954232  1
  O  O534  1  0.17808920  0.35415477  0.69912277  1
  O  O535  1  0.17724963  0.35530678  0.94922314  1
  O  O536  1  0.17653738  0.68481832  0.19851008  1
  O  O537  1  0.17685514  0.68446754  0.45018791  1
  O  O538  1  0.17737291  0.68550143  0.69846920  1
  O  O539  1  0.17698291  0.68485963  0.94859153  1
  O  O540  1  0.67728470  0.01750116  0.19934773  1
  O  O541  1  0.67602287  0.02087447  0.44947575  1
  O  O542  1  0.67641150  0.01954668  0.70029487  1
  O  O543  1  0.67700628  0.01872837  0.94888124  1
  O  O544  1  0.67733595  0.35120142  0.19888453  1
  O  O545  1  0.67495731  0.35296293  0.44981092  1
  O  O546  1  0.67657289  0.35220176  0.69986656  1
  O  O547  1  0.67743018  0.35318608  0.94881448  1
  O  O548  1  0.67767536  0.68487240  0.19864990  1
  O  O549  1  0.67737691  0.68593139  0.44761549  1
  O  O550  1  0.67661660  0.68647204  0.70088959  1
  O  O551  1  0.67718119  0.68668515  0.94831191  1
  O  O552  1  0.32452179  0.31454561  0.04989541  1
  O  O553  1  0.32276391  0.31563857  0.30142999  1
  O  O554  1  0.32298389  0.31558545  0.55118962  1
  O  O555  1  0.32438314  0.31449228  0.79938342  1
  O  O556  1  0.32385774  0.64827227  0.05086690  1
  O  O557  1  0.32314336  0.64851030  0.30204220  1
  O  O558  1  0.32297046  0.64695350  0.55192126  1
  O  O559  1  0.32266603  0.64738629  0.80084221  1
  O  O560  1  0.32397412  0.97959181  0.04996255  1
  O  O561  1  0.32370848  0.97952857  0.30019264  1
  O  O562  1  0.32311538  0.97860623  0.55029129  1
  O  O563  1  0.32331493  0.97935681  0.79865523  1
  O  O564  1  0.82318571  0.31502926  0.05134813  1
  O  O565  1  0.82263994  0.31156665  0.30031053  1
  O  O566  1  0.82269009  0.31448418  0.55059597  1
  O  O567  1  0.82303233  0.31500208  0.80168369  1
  O  O568  1  0.82275272  0.64838017  0.05004587  1
  O  O569  1  0.82340812  0.64719050  0.30025337  1
  O  O570  1  0.82380856  0.64679624  0.55015784  1
  O  O571  1  0.82306124  0.64646601  0.80202322  1
  O  O572  1  0.82254132  0.98127989  0.05070202  1
  O  O573  1  0.82347750  0.97825253  0.29989947  1
  O  O574  1  0.82324251  0.97977331  0.54896358  1
  O  O575  1  0.82267356  0.98067741  0.80187519  1
  O  O576  1  0.42714417  0.14609758  0.17570979  1
  O  O577  1  0.42684311  0.14815807  0.42598510  1
  O  O578  1  0.42728294  0.14628526  0.67657846  1
  O  O579  1  0.42734322  0.14504202  0.92511728  1
  O  O580  1  0.42738567  0.48041791  0.17644094  1
  O  O581  1  0.42645029  0.48065320  0.42414436  1
  O  O582  1  0.42789310  0.48146512  0.67623871  1
  O  O583  1  0.42674978  0.47979442  0.92523015  1
  O  O584  1  0.42778643  0.81424006  0.17591110  1
  O  O585  1  0.42766305  0.81545508  0.42510729  1
  O  O586  1  0.42749358  0.81506472  0.67591561  1
  O  O587  1  0.42713802  0.81458005  0.92564897  1
  O  O588  1  0.92636806  0.14788573  0.17566404  1
  O  O589  1  0.92602390  0.14514482  0.42530670  1
  O  O590  1  0.92633505  0.14879519  0.67629297  1
  O  O591  1  0.92720307  0.14810742  0.92699334  1
  O  O592  1  0.92685414  0.48008947  0.17660637  1
  O  O593  1  0.92643384  0.47800661  0.42502999  1
  O  O594  1  0.92664308  0.47902292  0.67534293  1
  O  O595  1  0.92708625  0.48104522  0.92601663  1
  O  O596  1  0.92720781  0.81489094  0.17514952  1
  O  O597  1  0.92580709  0.81277617  0.42419852  1
  O  O598  1  0.92596872  0.81408523  0.67537167  1
  O  O599  1  0.92752875  0.81421874  0.92706210  1
  O  O600  1  0.07328531  0.18601166  0.07446795  1
  O  O601  1  0.07162491  0.18558971  0.32415748  1
  O  O602  1  0.07283575  0.18795934  0.57498204  1
  O  O603  1  0.07239747  0.18687379  0.82331845  1
  O  O604  1  0.07259681  0.51966193  0.07357243  1
  O  O605  1  0.07278744  0.51756513  0.32396179  1
  O  O606  1  0.07364517  0.51922989  0.57546581  1
  O  O607  1  0.07375735  0.52049117  0.82598700  1
  O  O608  1  0.07332526  0.85395677  0.07346565  1
  O  O609  1  0.07311017  0.85177396  0.32409145  1
  O  O610  1  0.07310425  0.85493091  0.57484155  1
  O  O611  1  0.07357444  0.85388625  0.82581525  1
  O  O612  1  0.57416759  0.18597838  0.07602308  1
  O  O613  1  0.57248303  0.18615415  0.32321255  1
  O  O614  1  0.57260612  0.18461206  0.57374513  1
  O  O615  1  0.57314764  0.18391154  0.82432683  1
  O  O616  1  0.57405429  0.52000889  0.07584831  1
  O  O617  1  0.57298393  0.52056339  0.32357637  1
  O  O618  1  0.57387737  0.52002831  0.57479606  1
  O  O619  1  0.57257093  0.51834836  0.82416691  1
  O  O620  1  0.57283565  0.85279770  0.07315668  1
  O  O621  1  0.57316220  0.85375872  0.32262119  1
  O  O622  1  0.57340661  0.85212496  0.57336372  1
  O  O623  1  0.57258740  0.85281122  0.82395295  1
  O  O624  1  0.32470263  0.18746828  0.04996300  1
  O  O625  1  0.32273940  0.18833956  0.30109421  1
  O  O626  1  0.32277018  0.18844899  0.54990839  1
  O  O627  1  0.32375850  0.18755916  0.79873895  1
  O  O628  1  0.32369960  0.52146587  0.05090651  1
  O  O629  1  0.32316116  0.52150319  0.30061716  1
  O  O630  1  0.32273877  0.51970221  0.55141266  1
  O  O631  1  0.32279249  0.52022011  0.80106390  1
  O  O632  1  0.32412518  0.85255342  0.04977879  1
  O  O633  1  0.32378490  0.85247694  0.29996647  1
  O  O634  1  0.32293949  0.85125716  0.55091194  1
  O  O635  1  0.32387031  0.85243212  0.79945685  1
  O  O636  1  0.82326378  0.18786134  0.04985196  1
  O  O637  1  0.82238077  0.18440646  0.30056465  1
  O  O638  1  0.82282170  0.18739070  0.55124358  1
  O  O639  1  0.82307747  0.18799429  0.80040343  1
  O  O640  1  0.82345847  0.52137847  0.04979462  1
  O  O641  1  0.82253478  0.51999416  0.29950307  1
  O  O642  1  0.82401905  0.51993064  0.54954838  1
  O  O643  1  0.82168147  0.51897627  0.80246095  1
  O  O644  1  0.82296717  0.85437418  0.04925615  1
  O  O645  1  0.82236249  0.85115992  0.29999901  1
  O  O646  1  0.82364582  0.85282150  0.54978052  1
  O  O647  1  0.82201296  0.85321792  0.80279473  1
  O  O648  1  0.17642646  0.14752258  0.20028929  1
  O  O649  1  0.17528642  0.14697914  0.45062791  1
  O  O650  1  0.17570706  0.14706998  0.70024984  1
  O  O651  1  0.17639346  0.14734400  0.94997559  1
  O  O652  1  0.17630804  0.48090168  0.20078691  1
  O  O653  1  0.17644714  0.47967165  0.45038275  1
  O  O654  1  0.17764408  0.48153285  0.69847898  1
  O  O655  1  0.17704954  0.48250521  0.94867341  1
  O  O656  1  0.17694070  0.81185868  0.19967813  1
  O  O657  1  0.17645511  0.81139480  0.45011614  1
  O  O658  1  0.17770488  0.81283746  0.69863411  1
  O  O659  1  0.17749345  0.81184288  0.94970514  1
  O  O660  1  0.67654936  0.14457990  0.19895778  1
  O  O661  1  0.67677802  0.14803587  0.44860195  1
  O  O662  1  0.67624478  0.14641912  0.70144503  1
  O  O663  1  0.67674316  0.14588584  0.95065282  1
  O  O664  1  0.67683651  0.47851959  0.19934269  1
  O  O665  1  0.67547140  0.47978465  0.45022296  1
  O  O666  1  0.67717272  0.47921982  0.70034125  1
  O  O667  1  0.67851911  0.48057945  0.94890877  1
  O  O668  1  0.67699833  0.81178545  0.19917152  1
  O  O669  1  0.67804109  0.81345464  0.44716183  1
  O  O670  1  0.67669297  0.81320399  0.70063049  1
  O  O671  1  0.67884823  0.81407315  0.94831037  1
