# generated using pymatgen
data_Na2MnFe(PO4)2
_symmetry_space_group_name_H-M   'P 1'
_cell_length_a   22.34307158
_cell_length_b   20.09295041
_cell_length_c   19.44954195
_cell_angle_alpha   90.00132859
_cell_angle_beta   90.04763166
_cell_angle_gamma   89.98442430
_symmetry_Int_Tables_number   1
_chemical_formula_structural   Na2MnFe(PO4)2
_chemical_formula_sum   'Na96 Mn48 Fe48 P96 O384'
_cell_volume   8731.63958470
_cell_formula_units_Z   48
loop_
 _symmetry_equiv_pos_site_id
 _symmetry_equiv_pos_as_xyz
  1  'x, y, z'
loop_
 _atom_site_type_symbol
 _atom_site_label
 _atom_site_symmetry_multiplicity
 _atom_site_fract_x
 _atom_site_fract_y
 _atom_site_fract_z
 _atom_site_occupancy
  Na  Na0  1  0.14025259  0.25088628  0.24367287  1
  Na  Na1  1  0.14031959  0.25074012  0.49364165  1
  Na  Na2  1  0.14042081  0.24979160  0.74335925  1
  Na  Na3  1  0.14053861  0.24908509  0.99287632  1
  Na  Na4  1  0.14037945  0.58432385  0.24422463  1
  Na  Na5  1  0.13945259  0.58333781  0.49387622  1
  Na  Na6  1  0.13969735  0.58191710  0.74270716  1
  Na  Na7  1  0.14074583  0.58186893  0.99361335  1
  Na  Na8  1  0.13961630  0.91746840  0.24434929  1
  Na  Na9  1  0.13952912  0.91737073  0.49386178  1
  Na  Na10  1  0.13998094  0.91700093  0.74471938  1
  Na  Na11  1  0.13965028  0.91553104  0.99410081  1
  Na  Na12  1  0.64047650  0.25013174  0.24430565  1
  Na  Na13  1  0.64005953  0.24917455  0.49369767  1
  Na  Na14  1  0.64040375  0.24987922  0.74359978  1
  Na  Na15  1  0.64104761  0.25133327  0.99351932  1
  Na  Na16  1  0.64040633  0.58296488  0.24303868  1
  Na  Na17  1  0.63982272  0.58218186  0.49263031  1
  Na  Na18  1  0.64020975  0.58345517  0.74413521  1
  Na  Na19  1  0.64065860  0.58394761  0.99442784  1
  Na  Na20  1  0.63989072  0.91608434  0.24194880  1
  Na  Na21  1  0.64014142  0.91625548  0.49380088  1
  Na  Na22  1  0.64035982  0.91747908  0.74362076  1
  Na  Na23  1  0.63958222  0.91780209  0.99392867  1
  Na  Na24  1  0.35974414  0.08143521  0.00609568  1
  Na  Na25  1  0.35983307  0.08310089  0.25584589  1
  Na  Na26  1  0.35968062  0.08418590  0.50592691  1
  Na  Na27  1  0.35931807  0.08358288  0.75549174  1
  Na  Na28  1  0.35941624  0.41608563  0.00523046  1
  Na  Na29  1  0.36064288  0.41737758  0.25674666  1
  Na  Na30  1  0.36027582  0.41706540  0.50635790  1
  Na  Na31  1  0.35973322  0.41611996  0.75520606  1
  Na  Na32  1  0.35979714  0.74892085  0.00754269  1
  Na  Na33  1  0.35986686  0.75105539  0.25663862  1
  Na  Na34  1  0.36006112  0.74996215  0.50700160  1
  Na  Na35  1  0.35930852  0.74933347  0.75636663  1
  Na  Na36  1  0.85989409  0.08419642  0.00725295  1
  Na  Na37  1  0.85996765  0.08307626  0.25638548  1
  Na  Na38  1  0.85984252  0.08266382  0.50807891  1
  Na  Na39  1  0.85962340  0.08451759  0.75592468  1
  Na  Na40  1  0.85998296  0.41739270  0.00479575  1
  Na  Na41  1  0.86047699  0.41606318  0.25597629  1
  Na  Na42  1  0.85991764  0.41586225  0.50642854  1
  Na  Na43  1  0.85952067  0.41621195  0.75668569  1
  Na  Na44  1  0.85946743  0.75112792  0.00728159  1
  Na  Na45  1  0.85989315  0.74995769  0.25588677  1
  Na  Na46  1  0.85988485  0.75067545  0.50735207  1
  Na  Na47  1  0.85945714  0.74987956  0.75576800  1
  Na  Na48  1  0.10897658  0.08182305  0.11875442  1
  Na  Na49  1  0.10921820  0.08424203  0.36962043  1
  Na  Na50  1  0.10928900  0.08262657  0.61815306  1
  Na  Na51  1  0.10943526  0.08212426  0.86942621  1
  Na  Na52  1  0.11020163  0.41583073  0.11820485  1
  Na  Na53  1  0.10960768  0.41895532  0.36864136  1
  Na  Na54  1  0.10971373  0.41743757  0.61814197  1
  Na  Na55  1  0.11023851  0.41652767  0.86627221  1
  Na  Na56  1  0.10955270  0.75041112  0.11897935  1
  Na  Na57  1  0.10888814  0.75184403  0.36955087  1
  Na  Na58  1  0.10837532  0.74948404  0.61843642  1
  Na  Na59  1  0.10903200  0.74975876  0.86951233  1
  Na  Na60  1  0.60965254  0.08229545  0.11836251  1
  Na  Na61  1  0.60943757  0.08348097  0.36882595  1
  Na  Na62  1  0.60984838  0.08348069  0.61768934  1
  Na  Na63  1  0.60989569  0.08378609  0.86865357  1
  Na  Na64  1  0.61016884  0.41687703  0.11923537  1
  Na  Na65  1  0.60979069  0.41620910  0.36875755  1
  Na  Na66  1  0.60931188  0.41567845  0.61832555  1
  Na  Na67  1  0.61027275  0.41687961  0.86840238  1
  Na  Na68  1  0.60956081  0.75126851  0.11792013  1
  Na  Na69  1  0.60919119  0.75001573  0.36882162  1
  Na  Na70  1  0.60912000  0.74921347  0.61763512  1
  Na  Na71  1  0.60943300  0.75034780  0.87031111  1
  Na  Na72  1  0.39096988  0.25000623  0.13101017  1
  Na  Na73  1  0.39120454  0.25154803  0.38143456  1
  Na  Na74  1  0.39037271  0.25046314  0.63037125  1
  Na  Na75  1  0.39026484  0.25013289  0.88051658  1
  Na  Na76  1  0.39067707  0.58302554  0.13208325  1
  Na  Na77  1  0.39082942  0.58252048  0.38231008  1
  Na  Na78  1  0.39038422  0.58143199  0.63061187  1
  Na  Na79  1  0.39022700  0.58313789  0.88150904  1
  Na  Na80  1  0.39023500  0.91615990  0.13138246  1
  Na  Na81  1  0.39055889  0.91722285  0.38099229  1
  Na  Na82  1  0.39015129  0.91659321  0.63072509  1
  Na  Na83  1  0.39053978  0.91592406  0.88223026  1
  Na  Na84  1  0.89074767  0.24926718  0.13074235  1
  Na  Na85  1  0.89084193  0.25099668  0.38188671  1
  Na  Na86  1  0.89044666  0.24988224  0.63160487  1
  Na  Na87  1  0.89023843  0.24902967  0.88176217  1
  Na  Na88  1  0.89071834  0.58315264  0.13112520  1
  Na  Na89  1  0.89082052  0.58473639  0.38113314  1
  Na  Na90  1  0.89034313  0.58322796  0.63081477  1
  Na  Na91  1  0.89040114  0.58373543  0.88064721  1
  Na  Na92  1  0.88995271  0.91606283  0.13160311  1
  Na  Na93  1  0.89045490  0.91753867  0.38223979  1
  Na  Na94  1  0.88977083  0.91676560  0.63188135  1
  Na  Na95  1  0.89017877  0.91737915  0.88183007  1
  Mn  Mn96  1  0.75074738  0.00153946  0.87437550  1
  Mn  Mn97  1  0.75041458  0.49971875  0.12465140  1
  Mn  Mn98  1  0.75000569  0.16657108  0.37510321  1
  Mn  Mn99  1  0.50070251  0.49930593  0.75016689  1
  Mn  Mn100  1  0.00019071  0.33425538  0.50071211  1
  Mn  Mn101  1  0.24940456  0.16684411  0.62482594  1
  Mn  Mn102  1  0.25004254  0.16638168  0.12431863  1
  Mn  Mn103  1  -0.00013056  0.83295063  0.75022940  1
  Mn  Mn104  1  0.24935677  0.83434927  0.62606923  1
  Mn  Mn105  1  0.74970757  0.66665957  0.37471146  1
  Mn  Mn106  1  0.25044478  0.66598582  0.12549445  1
  Mn  Mn107  1  0.50055522  0.33373431  0.00062794  1
  Mn  Mn108  1  0.24919573  0.66496157  0.87575238  1
  Mn  Mn109  1  0.24974601  0.83434584  0.37632088  1
  Mn  Mn110  1  0.25000268  0.16613608  0.87418989  1
  Mn  Mn111  1  0.74934687  0.49924116  0.62466738  1
  Mn  Mn112  1  0.00025148  0.33283679  0.74948360  1
  Mn  Mn113  1  0.49953113  0.83257094  0.75037510  1
  Mn  Mn114  1  0.24942081  0.66570884  0.62583737  1
  Mn  Mn115  1  0.00072449  0.49962629  -0.00016167  1
  Mn  Mn116  1  0.49972352  -0.00032962  0.49898917  1
  Mn  Mn117  1  -0.00004473  0.16642201  0.25047391  1
  Mn  Mn118  1  0.49944811  0.66637011  0.74955175  1
  Mn  Mn119  1  0.49949861  0.16715257  0.74927068  1
  Mn  Mn120  1  0.75010122  0.66682563  0.62501597  1
  Mn  Mn121  1  0.25080180  0.33426296  0.12404611  1
  Mn  Mn122  1  0.49999989  -0.00024630  0.74923189  1
  Mn  Mn123  1  -0.00011273  0.00059879  0.75055152  1
  Mn  Mn124  1  -0.00016704  0.83382481  0.25076287  1
  Mn  Mn125  1  0.50029908  0.16665635  0.24969202  1
  Mn  Mn126  1  0.75095649  0.49854278  0.37373390  1
  Mn  Mn127  1  0.24932503  -0.00111301  0.12564441  1
  Mn  Mn128  1  0.49985772  0.50071696  0.00040263  1
  Mn  Mn129  1  0.25054410  0.16682665  0.37503864  1
  Mn  Mn130  1  0.00061326  0.66693026  -0.00007177  1
  Mn  Mn131  1  0.24971587  0.83311094  0.87532081  1
  Mn  Mn132  1  0.00049739  0.50045951  0.24986533  1
  Mn  Mn133  1  0.74996012  -0.00043300  0.37557346  1
  Mn  Mn134  1  0.75021178  0.83333142  0.37455171  1
  Mn  Mn135  1  0.74948776  0.33194990  0.62625497  1
  Mn  Mn136  1  0.74918436  0.66675556  0.87498398  1
  Mn  Mn137  1  0.00030967  0.33182056  -0.00136986  1
  Mn  Mn138  1  0.75032162  0.16763801  0.12541245  1
  Mn  Mn139  1  0.75002645  0.83415381  0.87528864  1
  Mn  Mn140  1  0.50072993  0.16596998  0.00043094  1
  Mn  Mn141  1  0.25024901  0.33480286  0.37398810  1
  Mn  Mn142  1  0.24973974  0.66635159  0.37549351  1
  Mn  Mn143  1  0.50016882  0.66703446  0.25073383  1
  Fe  Fe144  1  0.74949333  0.00026866  0.62550809  1
  Fe  Fe145  1  0.24962640  0.00038525  0.37491249  1
  Fe  Fe146  1  0.25006769  0.33338902  0.87404700  1
  Fe  Fe147  1  -0.00061098  0.83377794  0.50014096  1
  Fe  Fe148  1  0.49985376  0.83333095  0.24943675  1
  Fe  Fe149  1  0.49976471  0.83328668  0.49931831  1
  Fe  Fe150  1  -0.00082418  0.66661923  0.74931073  1
  Fe  Fe151  1  0.25015284  0.49879760  0.87417366  1
  Fe  Fe152  1  0.49974336  0.66619233  0.49941273  1
  Fe  Fe153  1  0.49968862  0.16708355  0.49902251  1
  Fe  Fe154  1  0.00011803  0.16740279  0.49989433  1
  Fe  Fe155  1  -0.00043349  -0.00047796  0.00045120  1
  Fe  Fe156  1  0.00027323  0.66752797  0.25068478  1
  Fe  Fe157  1  0.50068732  0.50017663  0.25103311  1
  Fe  Fe158  1  0.50044309  0.49918735  0.50000733  1
  Fe  Fe159  1  -0.00064131  0.00086449  0.50067734  1
  Fe  Fe160  1  0.75058953  0.66676700  0.12440893  1
  Fe  Fe161  1  0.50018412  0.33283034  0.74928514  1
  Fe  Fe162  1  0.50089345  0.33372958  0.25105653  1
  Fe  Fe163  1  -0.00037844  0.66704247  0.50022816  1
  Fe  Fe164  1  0.75036813  0.50030754  0.87540812  1
  Fe  Fe165  1  0.75072119  0.33230996  0.37527797  1
  Fe  Fe166  1  -0.00052323  0.50095689  0.49954984  1
  Fe  Fe167  1  0.24991328  0.00032426  0.62513342  1
  Fe  Fe168  1  0.75070486  0.33368574  0.12419311  1
  Fe  Fe169  1  -0.00014205  0.16610271  0.75029241  1
  Fe  Fe170  1  0.25033383  0.50029761  0.37539575  1
  Fe  Fe171  1  0.24983570  0.33400610  0.62456056  1
  Fe  Fe172  1  0.25003292  0.49963604  0.12440516  1
  Fe  Fe173  1  0.74910518  0.83362871  0.62539067  1
  Fe  Fe174  1  0.49984882  -0.00038051  -0.00020004  1
  Fe  Fe175  1  0.00050675  0.33334998  0.25001954  1
  Fe  Fe176  1  0.25032687  -0.00064564  0.87530520  1
  Fe  Fe177  1  0.50020591  0.33333101  0.49970468  1
  Fe  Fe178  1  -0.00080780  0.83320901  0.00027470  1
  Fe  Fe179  1  0.49980711  -0.00047674  0.24960259  1
  Fe  Fe180  1  -0.00037684  0.00009162  0.25063985  1
  Fe  Fe181  1  0.75019853  0.16658218  0.62522739  1
  Fe  Fe182  1  0.74965342  0.16730932  0.87545049  1
  Fe  Fe183  1  0.74980488  0.00083001  0.12491752  1
  Fe  Fe184  1  0.00060831  0.16555640  0.00072218  1
  Fe  Fe185  1  0.50024179  0.66702486  0.00123184  1
  Fe  Fe186  1  0.49960107  0.83351563  0.00023498  1
  Fe  Fe187  1  0.74993475  0.33360914  0.87482249  1
  Fe  Fe188  1  0.74999199  0.83387791  0.12484471  1
  Fe  Fe189  1  0.24995047  0.49947966  0.62495144  1
  Fe  Fe190  1  0.24988706  0.83312083  0.12536780  1
  Fe  Fe191  1  -0.00029107  0.50042952  0.74886137  1
  P  P192  1  0.04274431  0.24827352  0.10257253  1
  P  P193  1  0.04228617  0.25152435  0.35294627  1
  P  P194  1  0.04229096  0.24868617  0.60286085  1
  P  P195  1  0.04234798  0.24767537  0.85250900  1
  P  P196  1  0.04329730  0.58343470  0.10347072  1
  P  P197  1  0.04202968  0.58548875  0.35330761  1
  P  P198  1  0.04079475  0.58347455  0.60197594  1
  P  P199  1  0.04136020  0.58368371  0.85082617  1
  P  P200  1  0.04098446  0.91620671  0.10219839  1
  P  P201  1  0.04142362  0.91864958  0.35386040  1
  P  P202  1  0.04065458  0.91674341  0.60173371  1
  P  P203  1  0.04199274  0.91665789  0.85423151  1
  P  P204  1  0.54344175  0.25009445  0.10391270  1
  P  P205  1  0.54224293  0.25103759  0.35338427  1
  P  P206  1  0.54132050  0.25007060  0.60128865  1
  P  P207  1  0.54243674  0.25099000  0.85213804  1
  P  P208  1  0.54245980  0.58462555  0.10357105  1
  P  P209  1  0.54240628  0.58225398  0.35352765  1
  P  P210  1  0.54137200  0.58271232  0.60113504  1
  P  P211  1  0.54264253  0.58399029  0.85375276  1
  P  P212  1  0.54079490  0.91680394  0.10211748  1
  P  P213  1  0.54146600  0.91621953  0.35121574  1
  P  P214  1  0.54207629  0.91530719  0.60172403  1
  P  P215  1  0.54262419  0.91661208  0.85369900  1
  P  P216  1  0.45792099  0.08149169  0.14704672  1
  P  P217  1  0.45778945  0.08445889  0.39663216  1
  P  P218  1  0.45728117  0.08368578  0.64550333  1
  P  P219  1  0.45783985  0.08220080  0.89737379  1
  P  P220  1  0.45936348  0.41684739  0.14934619  1
  P  P221  1  0.45910010  0.41666787  0.39790810  1
  P  P222  1  0.45851334  0.41500954  0.64656730  1
  P  P223  1  0.45767558  0.41654970  0.89674416  1
  P  P224  1  0.45795614  0.75102958  0.14717957  1
  P  P225  1  0.45842774  0.75019067  0.39797409  1
  P  P226  1  0.45690708  0.74956509  0.64563956  1
  P  P227  1  0.45820736  0.74947012  0.89921520  1
  P  P228  1  0.95801939  0.08155563  0.14733102  1
  P  P229  1  0.95828736  0.08403280  0.39875747  1
  P  P230  1  0.95798305  0.08473936  0.64705102  1
  P  P231  1  0.95825989  0.08328807  0.89884036  1
  P  P232  1  0.95848116  0.41495668  0.14726030  1
  P  P233  1  0.95805003  0.41841236  0.39728799  1
  P  P234  1  0.95771745  0.41800523  0.64697063  1
  P  P235  1  0.95818381  0.41682854  0.89564224  1
  P  P236  1  0.95814637  0.74930306  0.14769743  1
  P  P237  1  0.95821490  0.75042448  0.39861028  1
  P  P238  1  0.95752306  0.74891257  0.64667147  1
  P  P239  1  0.95710280  0.75092494  0.89745909  1
  P  P240  1  0.20694398  0.08331754  0.22845771  1
  P  P241  1  0.20781521  0.08222822  0.47777806  1
  P  P242  1  0.20747510  0.08188919  0.72773194  1
  P  P243  1  0.20777976  0.08147977  0.97723076  1
  P  P244  1  0.20810480  0.41865427  0.22727766  1
  P  P245  1  0.20786280  0.41821923  0.47789586  1
  P  P246  1  0.20833722  0.41644108  0.72682233  1
  P  P247  1  0.20804262  0.41636809  0.97595532  1
  P  P248  1  0.20778107  0.75129210  0.22775883  1
  P  P249  1  0.20695230  0.74994277  0.47875967  1
  P  P250  1  0.20642651  0.74974310  0.72859594  1
  P  P251  1  0.20724839  0.74937989  0.97904708  1
  P  P252  1  0.70758735  0.08256435  0.22739807  1
  P  P253  1  0.70743917  0.08314849  0.47929245  1
  P  P254  1  0.70818141  0.08428716  0.72693322  1
  P  P255  1  0.70819915  0.08493792  0.97791794  1
  P  P256  1  0.70856158  0.41457692  0.22743714  1
  P  P257  1  0.70807636  0.41455047  0.47704683  1
  P  P258  1  0.70710714  0.41646412  0.72924211  1
  P  P259  1  0.70883429  0.41692421  0.97676381  1
  P  P260  1  0.70878717  0.74978259  0.22578472  1
  P  P261  1  0.70728629  0.75055924  0.47844492  1
  P  P262  1  0.70702841  0.75119615  0.72741058  1
  P  P263  1  0.70771492  0.75060272  0.97923478  1
  P  P264  1  0.29302173  0.25002411  0.02065559  1
  P  P265  1  0.29345031  0.25055019  0.27154189  1
  P  P266  1  0.29197274  0.25174589  0.52244836  1
  P  P267  1  0.29192873  0.25143740  0.77150434  1
  P  P268  1  0.29257593  0.58107538  0.02228249  1
  P  P269  1  0.29252483  0.58214253  0.27267629  1
  P  P270  1  0.29183673  0.58169090  0.52257615  1
  P  P271  1  0.29201718  0.58116950  0.77229109  1
  P  P272  1  0.29203548  0.91499893  0.02254128  1
  P  P273  1  0.29197855  0.91771415  0.27274035  1
  P  P274  1  0.29188137  0.91855257  0.52263558  1
  P  P275  1  0.29248502  0.91800556  0.77262451  1
  P  P276  1  0.79234223  0.25179152  0.02156919  1
  P  P277  1  0.79285373  0.25100292  0.27232019  1
  P  P278  1  0.79248042  0.24867314  0.52279244  1
  P  P279  1  0.79152089  0.24960092  0.77355511  1
  P  P280  1  0.79258552  0.58419192  0.02196378  1
  P  P281  1  0.79296955  0.58358981  0.27089345  1
  P  P282  1  0.79257359  0.58282053  0.52158030  1
  P  P283  1  0.79208132  0.58226362  0.77259958  1
  P  P284  1  0.79109633  0.91783047  0.02356767  1
  P  P285  1  0.79239123  0.91683796  0.27091458  1
  P  P286  1  0.79122899  0.91670031  0.52410056  1
  P  P287  1  0.79254395  0.91727971  0.77094616  1
  O  O288  1  0.03749171  0.24912388  0.18249581  1
  O  O289  1  0.03693362  0.25114534  0.43286967  1
  O  O290  1  0.03684857  0.24839764  0.68277663  1
  O  O291  1  0.03714663  0.24748923  0.93245740  1
  O  O292  1  0.03822559  0.58373530  0.18338193  1
  O  O293  1  0.03621849  0.58516105  0.43314191  1
  O  O294  1  0.03523194  0.58322556  0.68184474  1
  O  O295  1  0.03683271  0.58338293  0.93085733  1
  O  O296  1  0.03614967  0.91658505  0.18219444  1
  O  O297  1  0.03589757  0.91818475  0.43368135  1
  O  O298  1  0.03618516  0.91685227  0.68173370  1
  O  O299  1  0.03640162  0.91659851  0.93408735  1
  O  O300  1  0.53823419  0.25041719  0.18385357  1
  O  O301  1  0.53629895  0.25069930  0.43322648  1
  O  O302  1  0.53631635  0.25025658  0.68127633  1
  O  O303  1  0.53770768  0.25046457  0.93211078  1
  O  O304  1  0.53739195  0.58396824  0.18352329  1
  O  O305  1  0.53721934  0.58226399  0.43340531  1
  O  O306  1  0.53668568  0.58302330  0.68115208  1
  O  O307  1  0.53741562  0.58465158  0.93370600  1
  O  O308  1  0.53592938  0.91664380  0.18202990  1
  O  O309  1  0.53608787  0.91554583  0.43114080  1
  O  O310  1  0.53707524  0.91555382  0.68166767  1
  O  O311  1  0.53751331  0.91697206  0.93364554  1
  O  O312  1  0.46340886  0.08136889  0.06710592  1
  O  O313  1  0.46315650  0.08376572  0.31673104  1
  O  O314  1  0.46244368  0.08435172  0.56554838  1
  O  O315  1  0.46276668  0.08269872  0.81735603  1
  O  O316  1  0.46425704  0.41735598  0.06937797  1
  O  O317  1  0.46453383  0.41682886  0.31805580  1
  O  O318  1  0.46400032  0.41521736  0.56669340  1
  O  O319  1  0.46278635  0.41612357  0.81681194  1
  O  O320  1  0.46317086  0.75056726  0.06733751  1
  O  O321  1  0.46329805  0.75026719  0.31800793  1
  O  O322  1  0.46196774  0.74967798  0.56572721  1
  O  O323  1  0.46258013  0.74960852  0.81915078  1
  O  O324  1  0.96361949  0.08161221  0.06750287  1
  O  O325  1  0.96296305  0.08326087  0.31878661  1
  O  O326  1  0.96335661  0.08492656  0.56721904  1
  O  O327  1  0.96317402  0.08366291  0.81885262  1
  O  O328  1  0.96373491  0.41497490  0.06729505  1
  O  O329  1  0.96358653  0.41755276  0.31740806  1
  O  O330  1  0.96285232  0.41819202  0.56699601  1
  O  O331  1  0.96338645  0.41742473  0.81568708  1
  O  O332  1  0.96324368  0.74990437  0.06777586  1
  O  O333  1  0.96350577  0.75028430  0.31864595  1
  O  O334  1  0.96314604  0.74930780  0.56681778  1
  O  O335  1  0.96220386  0.75034912  0.81752275  1
  O  O336  1  0.21281627  0.08192754  0.05718836  1
  O  O337  1  0.21216996  0.08314561  0.30840619  1
  O  O338  1  0.21310611  0.08235675  0.55775030  1
  O  O339  1  0.21313453  0.08165806  0.80763635  1
  O  O340  1  0.21319928  0.41698333  0.05594295  1
  O  O341  1  0.21318769  0.41891868  0.30722383  1
  O  O342  1  0.21306423  0.41753329  0.55781320  1
  O  O343  1  0.21363931  0.41623868  0.80672632  1
  O  O344  1  0.21284962  0.74981835  0.05897473  1
  O  O345  1  0.21288155  0.75125042  0.30772718  1
  O  O346  1  0.21181539  0.74989534  0.55870578  1
  O  O347  1  0.21157128  0.74945296  0.80857553  1
  O  O348  1  0.71355837  0.08427723  0.05784657  1
  O  O349  1  0.71248139  0.08258998  0.30739413  1
  O  O350  1  0.71260517  0.08316041  0.55923369  1
  O  O351  1  0.71330013  0.08481011  0.80692878  1
  O  O352  1  0.71424510  0.41639193  0.05672913  1
  O  O353  1  0.71400365  0.41435117  0.30734526  1
  O  O354  1  0.71274011  0.41481124  0.55706014  1
  O  O355  1  0.71257666  0.41684666  0.80912908  1
  O  O356  1  0.71339539  0.75029067  0.05909048  1
  O  O357  1  0.71352580  0.75003154  0.30582089  1
  O  O358  1  0.71229695  0.75117637  0.55841223  1
  O  O359  1  0.71204772  0.75084110  0.80741408  1
  O  O360  1  0.28859493  0.25042563  0.19152965  1
  O  O361  1  0.28702196  0.25157483  0.44248346  1
  O  O362  1  0.28624044  0.25155871  0.69159022  1
  O  O363  1  0.28761198  0.25040489  0.94068690  1
  O  O364  1  0.28747292  0.58220585  0.19270061  1
  O  O365  1  0.28674126  0.58167830  0.44260923  1
  O  O366  1  0.28682020  0.58134038  0.69234176  1
  O  O367  1  0.28713306  0.58087290  0.94235431  1
  O  O368  1  0.28666192  0.91644595  0.19279984  1
  O  O369  1  0.28668422  0.91862355  0.44268677  1
  O  O370  1  0.28713814  0.91831768  0.69266305  1
  O  O371  1  0.28710588  0.91572436  0.94258882  1
  O  O372  1  0.78784356  0.25112817  0.19234610  1
  O  O373  1  0.78753710  0.24943010  0.44283543  1
  O  O374  1  0.78640240  0.24873591  0.69357676  1
  O  O375  1  0.78649750  0.25136284  0.94172947  1
  O  O376  1  0.78776738  0.58408949  0.19091480  1
  O  O377  1  0.78772735  0.58284143  0.44158310  1
  O  O378  1  0.78682362  0.58253432  0.69263450  1
  O  O379  1  0.78704628  0.58350984  0.94203410  1
  O  O380  1  0.78716581  0.91719374  0.19101013  1
  O  O381  1  0.78669885  0.91665711  0.44401627  1
  O  O382  1  0.78685578  0.91716636  0.69106625  1
  O  O383  1  0.78684765  0.91782819  0.94352282  1
  O  O384  1  0.22872909  0.25036225  0.05609883  1
  O  O385  1  0.22896643  0.25057041  0.30636099  1
  O  O386  1  0.22766091  0.25169934  0.55786481  1
  O  O387  1  0.22786332  0.25117800  0.80768146  1
  O  O388  1  0.22832123  0.58142499  0.05803177  1
  O  O389  1  0.22817961  0.58192359  0.30819796  1
  O  O390  1  0.22756910  0.58141073  0.55822133  1
  O  O391  1  0.22766184  0.58090359  0.80777301  1
  O  O392  1  0.22767841  0.91426831  0.05800131  1
  O  O393  1  0.22769748  0.91846940  0.30842699  1
  O  O394  1  0.22754665  0.91876270  0.55824893  1
  O  O395  1  0.22814405  0.91796514  0.80818560  1
  O  O396  1  0.72833962  0.25201694  0.05804565  1
  O  O397  1  0.72850209  0.25116582  0.30785973  1
  O  O398  1  0.72807098  0.24782948  0.55816177  1
  O  O399  1  0.72737043  0.24996062  0.80955882  1
  O  O400  1  0.72844720  0.58460258  0.05792114  1
  O  O401  1  0.72862476  0.58282348  0.30615432  1
  O  O402  1  0.72807540  0.58328336  0.55639431  1
  O  O403  1  0.72779659  0.58165548  0.80814594  1
  O  O404  1  0.72683509  0.91787253  0.05895588  1
  O  O405  1  0.72804891  0.91665769  0.30631522  1
  O  O406  1  0.72693634  0.91685127  0.55955646  1
  O  O407  1  0.72843674  0.91773315  0.80686694  1
  O  O408  1  0.27131533  0.08304751  0.19326502  1
  O  O409  1  0.27205087  0.08187472  0.44199056  1
  O  O410  1  0.27164859  0.08208609  0.69174543  1
  O  O411  1  0.27208182  0.08155411  0.94170948  1
  O  O412  1  0.27247967  0.41865754  0.19174751  1
  O  O413  1  0.27215949  0.41857893  0.44209973  1
  O  O414  1  0.27238185  0.41661170  0.69042104  1
  O  O415  1  0.27229479  0.41609438  0.94007578  1
  O  O416  1  0.27210469  0.75141513  0.19225004  1
  O  O417  1  0.27140498  0.75007628  0.44387109  1
  O  O418  1  0.27087911  0.74990837  0.69369520  1
  O  O419  1  0.27143626  0.74894934  0.94340322  1
  O  O420  1  0.77196988  0.08255572  0.19214990  1
  O  O421  1  0.77173723  0.08326090  0.44378406  1
  O  O422  1  0.77233617  0.08413114  0.69091729  1
  O  O423  1  0.77243375  0.08571946  0.94211559  1
  O  O424  1  0.77274593  0.41496888  0.19152308  1
  O  O425  1  0.77253011  0.41436356  0.44186320  1
  O  O426  1  0.77132488  0.41625266  0.69355452  1
  O  O427  1  0.77280253  0.41686653  0.94030937  1
  O  O428  1  0.77301664  0.74976029  0.19023402  1
  O  O429  1  0.77172984  0.75011427  0.44340909  1
  O  O430  1  0.77144260  0.75155196  0.69217987  1
  O  O431  1  0.77177747  0.75026542  0.94317262  1
  O  O432  1  0.02203151  0.08166906  0.18386265  1
  O  O433  1  0.02249391  0.08445081  0.43458489  1
  O  O434  1  0.02213834  0.08483310  0.68327226  1
  O  O435  1  0.02245159  0.08271272  0.93487792  1
  O  O436  1  0.02270885  0.41517575  0.18308312  1
  O  O437  1  0.02217711  0.41876691  0.43346257  1
  O  O438  1  0.02201094  0.41772908  0.68259842  1
  O  O439  1  0.02248050  0.41618186  0.93111715  1
  O  O440  1  0.02233095  0.74925788  0.18368323  1
  O  O441  1  0.02228521  0.75057853  0.43483198  1
  O  O442  1  0.02159158  0.74829689  0.68308462  1
  O  O443  1  0.02144945  0.75195834  0.93315824  1
  O  O444  1  0.52210004  0.08145567  0.18304984  1
  O  O445  1  0.52195455  0.08440363  0.43259672  1
  O  O446  1  0.52158980  0.08372699  0.68096829  1
  O  O447  1  0.52224057  0.08177347  0.93279278  1
  O  O448  1  0.52355447  0.41624724  0.18522051  1
  O  O449  1  0.52309401  0.41634466  0.43448294  1
  O  O450  1  0.52258043  0.41466316  0.68297032  1
  O  O451  1  0.52205293  0.41719923  0.93207134  1
  O  O452  1  0.52216367  0.75115656  0.18322961  1
  O  O453  1  0.52256979  0.75061842  0.43393671  1
  O  O454  1  0.52126181  0.74967630  0.68115152  1
  O  O455  1  0.52245688  0.74917982  0.93483270  1
  O  O456  1  0.47907866  0.24979990  0.06857771  1
  O  O457  1  0.47830522  0.25143059  0.31673155  1
  O  O458  1  0.47719583  0.25048775  0.56519143  1
  O  O459  1  0.47799905  0.25156053  0.81676535  1
  O  O460  1  0.47814321  0.58500490  0.06789103  1
  O  O461  1  0.47823426  0.58234439  0.31751844  1
  O  O462  1  0.47719501  0.58212680  0.56536382  1
  O  O463  1  0.47832473  0.58303148  0.81825932  1
  O  O464  1  0.47678926  0.91722514  0.06573814  1
  O  O465  1  0.47729677  0.91667824  0.31507864  1
  O  O466  1  0.47774694  0.91511233  0.56611489  1
  O  O467  1  0.47825698  0.91660005  0.81817522  1
  O  O468  1  0.97847253  0.24785279  0.06670065  1
  O  O469  1  0.97811529  0.25164027  0.31688013  1
  O  O470  1  0.97808061  0.24891414  0.56692706  1
  O  O471  1  0.97806856  0.24815500  0.81670518  1
  O  O472  1  0.97892815  0.58322582  0.06814652  1
  O  O473  1  0.97808330  0.58544163  0.31660483  1
  O  O474  1  0.97689007  0.58363778  0.56518136  1
  O  O475  1  0.97707404  0.58386880  0.81512216  1
  O  O476  1  0.97681188  0.91615315  0.06609449  1
  O  O477  1  0.97737651  0.91846102  0.31743911  1
  O  O478  1  0.97641296  0.91652871  0.56614044  1
  O  O479  1  0.97789148  0.91667331  0.81816120  1
  O  O480  1  0.07397862  0.31152908  0.07404451  1
  O  O481  1  0.07294784  0.31520855  0.32456588  1
  O  O482  1  0.07328215  0.31264726  0.57558532  1
  O  O483  1  0.07351177  0.31136332  0.82482699  1
  O  O484  1  0.07439674  0.64669820  0.07492298  1
  O  O485  1  0.07285993  0.64911088  0.32495558  1
  O  O486  1  0.07202502  0.64703822  0.57400341  1
  O  O487  1  0.07198183  0.64754958  0.82298022  1
  O  O488  1  0.07202040  0.97961278  0.07371759  1
  O  O489  1  0.07209242  0.98215009  0.32510557  1
  O  O490  1  0.07100605  0.98069397  0.57347044  1
  O  O491  1  0.07315904  0.98007641  0.82584480  1
  O  O492  1  0.57454345  0.31337966  0.07539329  1
  O  O493  1  0.57339597  0.31443568  0.32505099  1
  O  O494  1  0.57285613  0.31330074  0.57315982  1
  O  O495  1  0.57323635  0.31443858  0.82372524  1
  O  O496  1  0.57304628  0.64831434  0.07526663  1
  O  O497  1  0.57375017  0.64573719  0.32547356  1
  O  O498  1  0.57149335  0.64667394  0.57256898  1
  O  O499  1  0.57339019  0.64736955  0.82489588  1
  O  O500  1  0.57222812  0.98010717  0.07378492  1
  O  O501  1  0.57235260  0.98011904  0.32361920  1
  O  O502  1  0.57291923  0.97908808  0.57394888  1
  O  O503  1  0.57386852  0.97979056  0.82477408  1
  O  O504  1  0.42684200  0.01830722  0.17581603  1
  O  O505  1  0.42629974  0.02115886  0.42464464  1
  O  O506  1  0.42656036  0.01986191  0.67331033  1
  O  O507  1  0.42699270  0.01871380  0.92568533  1
  O  O508  1  0.42809894  0.35328249  0.17693251  1
  O  O509  1  0.42771745  0.35328182  0.42608245  1
  O  O510  1  0.42751005  0.35165528  0.67523409  1
  O  O511  1  0.42683772  0.35316935  0.92543006  1
  O  O512  1  0.42666372  0.68772876  0.17570292  1
  O  O513  1  0.42835402  0.68595261  0.42622424  1
  O  O514  1  0.42591683  0.68602446  0.67415504  1
  O  O515  1  0.42714282  0.68600376  0.92733810  1
  O  O516  1  0.92723567  0.01815030  0.17619552  1
  O  O517  1  0.92771883  0.02045989  0.42783374  1
  O  O518  1  0.92695262  0.02101960  0.67491558  1
  O  O519  1  0.92715543  0.01962317  0.92671356  1
  O  O520  1  0.92795123  0.35131584  0.17573103  1
  O  O521  1  0.92680028  0.35509646  0.42566725  1
  O  O522  1  0.92667559  0.35415733  0.67448368  1
  O  O523  1  0.92697160  0.35319283  0.92324527  1
  O  O524  1  0.92769107  0.68553549  0.17607256  1
  O  O525  1  0.92705707  0.68701908  0.42676506  1
  O  O526  1  0.92632028  0.68558562  0.67517521  1
  O  O527  1  0.92654870  0.68715038  0.92563643  1
  O  O528  1  0.17548993  0.02009838  0.20012385  1
  O  O529  1  0.17663664  0.01908489  0.44907063  1
  O  O530  1  0.17640212  0.01869967  0.69892658  1
  O  O531  1  0.17727550  0.01764456  0.94925786  1
  O  O532  1  0.17737326  0.35470476  0.19949820  1
  O  O533  1  0.17675617  0.35478312  0.44931216  1
  O  O534  1  0.17737018  0.35287874  0.69831714  1
  O  O535  1  0.17736153  0.35249623  0.94795086  1
  O  O536  1  0.17691678  0.68750038  0.20007267  1
  O  O537  1  0.17614277  0.68644831  0.45037211  1
  O  O538  1  0.17550278  0.68629055  0.70028564  1
  O  O539  1  0.17599901  0.68572747  0.95134018  1
  O  O540  1  0.67687371  0.01913465  0.19863185  1
  O  O541  1  0.67631555  0.01970234  0.45084701  1
  O  O542  1  0.67759311  0.02027070  0.69901642  1
  O  O543  1  0.67737030  0.02141092  0.94946759  1
  O  O544  1  0.67770595  0.35138088  0.19845739  1
  O  O545  1  0.67752372  0.35086763  0.44877529  1
  O  O546  1  0.67604284  0.35287109  0.70104095  1
  O  O547  1  0.67752114  0.35364022  0.94837469  1
  O  O548  1  0.67784726  0.68611410  0.19795347  1
  O  O549  1  0.67621937  0.68695883  0.45044627  1
  O  O550  1  0.67625045  0.68737763  0.69951018  1
  O  O551  1  0.67611948  0.68746463  0.95076228  1
  O  O552  1  0.32458401  0.31311986  0.04914864  1
  O  O553  1  0.32431938  0.31416470  0.29960419  1
  O  O554  1  0.32263857  0.31531161  0.55087532  1
  O  O555  1  0.32284506  0.31474027  0.80020904  1
  O  O556  1  0.32373221  0.64470579  0.05012809  1
  O  O557  1  0.32320363  0.64614293  0.30054449  1
  O  O558  1  0.32261689  0.64559947  0.55026178  1
  O  O559  1  0.32279085  0.64498458  0.80038914  1
  O  O560  1  0.32287202  0.97857810  0.05086518  1
  O  O561  1  0.32281261  0.98146795  0.30055661  1
  O  O562  1  0.32305181  0.98174659  0.55124774  1
  O  O563  1  0.32342373  0.98123882  0.80155113  1
  O  O564  1  0.82349992  0.31524635  0.04980031  1
  O  O565  1  0.82389888  0.31409473  0.30134351  1
  O  O566  1  0.82320694  0.31223135  0.55144328  1
  O  O567  1  0.82233245  0.31361027  0.80096911  1
  O  O568  1  0.82348411  0.64778541  0.05015363  1
  O  O569  1  0.82379776  0.64693002  0.29970163  1
  O  O570  1  0.82377893  0.64613302  0.54990392  1
  O  O571  1  0.82269265  0.64624975  0.80023251  1
  O  O572  1  0.82194807  0.98146764  0.05172514  1
  O  O573  1  0.82354780  0.97998665  0.30004083  1
  O  O574  1  0.82195620  0.98046076  0.55217734  1
  O  O575  1  0.82404840  0.98064227  0.79914203  1
  O  O576  1  0.42687984  0.14537169  0.17444883  1
  O  O577  1  0.42724581  0.14832281  0.42476978  1
  O  O578  1  0.42580710  0.14673669  0.67420374  1
  O  O579  1  0.42707152  0.14598616  0.92530198  1
  O  O580  1  0.42917078  0.48087680  0.17773720  1
  O  O581  1  0.42830804  0.48033826  0.42641131  1
  O  O582  1  0.42750154  0.47868509  0.67457610  1
  O  O583  1  0.42639938  0.47996865  0.92491213  1
  O  O584  1  0.42720075  0.81461981  0.17579876  1
  O  O585  1  0.42689264  0.81345351  0.42605295  1
  O  O586  1  0.42568513  0.81273578  0.67462485  1
  O  O587  1  0.42797345  0.81354875  0.92747589  1
  O  O588  1  0.92662443  0.14513376  0.17515229  1
  O  O589  1  0.92742385  0.14792534  0.42635547  1
  O  O590  1  0.92700214  0.14794991  0.67621857  1
  O  O591  1  0.92772395  0.14695929  0.92745231  1
  O  O592  1  0.92719266  0.47858772  0.17473776  1
  O  O593  1  0.92722498  0.48221855  0.42506870  1
  O  O594  1  0.92681789  0.48131361  0.67569050  1
  O  O595  1  0.92717998  0.48010732  0.92438366  1
  O  O596  1  0.92678840  0.81263872  0.17587948  1
  O  O597  1  0.92739187  0.81434547  0.42650960  1
  O  O598  1  0.92660731  0.81256417  0.67483707  1
  O  O599  1  0.92596709  0.81428971  0.92598172  1
  O  O600  1  0.07340019  0.18441393  0.07457734  1
  O  O601  1  0.07355045  0.18802909  0.32505644  1
  O  O602  1  0.07334718  0.18560295  0.57382916  1
  O  O603  1  0.07305340  0.18421617  0.82390782  1
  O  O604  1  0.07424346  0.51980260  0.07526883  1
  O  O605  1  0.07349896  0.52207834  0.32532631  1
  O  O606  1  0.07171158  0.51984537  0.57353588  1
  O  O607  1  0.07198791  0.51994511  0.82243406  1
  O  O608  1  0.07152287  0.85225791  0.07420328  1
  O  O609  1  0.07292972  0.85526047  0.32567194  1
  O  O610  1  0.07171354  0.85314777  0.57377028  1
  O  O611  1  0.07338770  0.85343100  0.82575367  1
  O  O612  1  0.57438036  0.18643340  0.07588407  1
  O  O613  1  0.57353926  0.18748226  0.32551771  1
  O  O614  1  0.57157748  0.18598740  0.57306059  1
  O  O615  1  0.57305463  0.18718676  0.82398275  1
  O  O616  1  0.57363527  0.52116239  0.07536859  1
  O  O617  1  0.57317792  0.51877379  0.32459373  1
  O  O618  1  0.57275760  0.51913316  0.57359186  1
  O  O619  1  0.57405878  0.52055017  0.82589814  1
  O  O620  1  0.57113057  0.85287659  0.07343304  1
  O  O621  1  0.57229613  0.85271948  0.32247687  1
  O  O622  1  0.57287798  0.85188802  0.57319818  1
  O  O623  1  0.57355210  0.85295596  0.82551019  1
  O  O624  1  0.32373875  0.18619583  0.04860796  1
  O  O625  1  0.32443221  0.18714331  0.29998955  1
  O  O626  1  0.32300864  0.18803881  0.55016320  1
  O  O627  1  0.32317153  0.18759439  0.79882027  1
  O  O628  1  0.32340142  0.51768347  0.05105275  1
  O  O629  1  0.32363701  0.51900231  0.30155478  1
  O  O630  1  0.32297145  0.51848344  0.55135319  1
  O  O631  1  0.32316449  0.51786038  0.80073575  1
  O  O632  1  0.32286686  0.85144215  0.05099071  1
  O  O633  1  0.32308745  0.85435550  0.30130025  1
  O  O634  1  0.32253080  0.85456058  0.55047379  1
  O  O635  1  0.32341976  0.85405603  0.80017725  1
  O  O636  1  0.82350026  0.18829532  0.04992089  1
  O  O637  1  0.82346208  0.18694422  0.30006954  1
  O  O638  1  0.82348071  0.18522580  0.55117239  1
  O  O639  1  0.82247164  0.18622825  0.80234008  1
  O  O640  1  0.82383780  0.52067043  0.04996479  1
  O  O641  1  0.82431792  0.51999072  0.29853659  1
  O  O642  1  0.82317611  0.51908124  0.54970552  1
  O  O643  1  0.82325365  0.51896366  0.80095968  1
  O  O644  1  0.82153986  0.85389733  0.05186075  1
  O  O645  1  0.82354677  0.85329323  0.29919916  1
  O  O646  1  0.82188598  0.85292267  0.55219986  1
  O  O647  1  0.82361895  0.85388516  0.79954063  1
  O  O648  1  0.17621688  0.14698099  0.20009470  1
  O  O649  1  0.17715574  0.14630700  0.45020064  1
  O  O650  1  0.17648616  0.14580273  0.70024623  1
  O  O651  1  0.17662313  0.14498167  0.94918894  1
  O  O652  1  0.17707455  0.48183890  0.19836665  1
  O  O653  1  0.17697916  0.48171433  0.44933382  1
  O  O654  1  0.17730350  0.48006652  0.69858159  1
  O  O655  1  0.17711933  0.47982895  0.94728321  1
  O  O656  1  0.17690950  0.81481850  0.19936501  1
  O  O657  1  0.17583036  0.81344976  0.45075164  1
  O  O658  1  0.17539346  0.81339801  0.70079181  1
  O  O659  1  0.17595818  0.81257170  0.95057393  1
  O  O660  1  0.67662011  0.14634952  0.19982172  1
  O  O661  1  0.67623037  0.14637433  0.45048500  1
  O  O662  1  0.67707953  0.14762925  0.69840673  1
  O  O663  1  0.67709431  0.14847546  0.94976052  1
  O  O664  1  0.67738327  0.47842069  0.19997340  1
  O  O665  1  0.67724903  0.47821697  0.44889632  1
  O  O666  1  0.67576113  0.47958218  0.70033454  1
  O  O667  1  0.67823868  0.48111386  0.94938416  1
  O  O668  1  0.67823607  0.81369705  0.19747609  1
  O  O669  1  0.67630158  0.81377499  0.44940652  1
  O  O670  1  0.67618680  0.81472093  0.69907785  1
  O  O671  1  0.67674757  0.81427631  0.95115944  1
