# generated using pymatgen
data_Na2MnFe(PO4)2
_symmetry_space_group_name_H-M   'P 1'
_cell_length_a   22.34631117
_cell_length_b   20.09712892
_cell_length_c   19.44740121
_cell_angle_alpha   90.01126953
_cell_angle_beta   89.95640378
_cell_angle_gamma   89.99924339
_symmetry_Int_Tables_number   1
_chemical_formula_structural   Na2MnFe(PO4)2
_chemical_formula_sum   'Na96 Mn48 Fe48 P96 O384'
_cell_volume   8733.76093822
_cell_formula_units_Z   48
loop_
 _symmetry_equiv_pos_site_id
 _symmetry_equiv_pos_as_xyz
  1  'x, y, z'
loop_
 _atom_site_type_symbol
 _atom_site_label
 _atom_site_symmetry_multiplicity
 _atom_site_fract_x
 _atom_site_fract_y
 _atom_site_fract_z
 _atom_site_occupancy
  Na  Na0  1  0.14021287  0.25078032  0.24349368  1
  Na  Na1  1  0.14085572  0.25078257  0.49429167  1
  Na  Na2  1  0.14117498  0.24964312  0.74484925  1
  Na  Na3  1  0.14066275  0.25144068  0.99424866  1
  Na  Na4  1  0.14113001  0.58467750  0.24383412  1
  Na  Na5  1  0.14107116  0.58330382  0.49301027  1
  Na  Na6  1  0.14144421  0.58301010  0.74374672  1
  Na  Na7  1  0.14174435  0.58352836  0.99291598  1
  Na  Na8  1  0.14097479  0.91762455  0.24382083  1
  Na  Na9  1  0.14048130  0.91702206  0.49497731  1
  Na  Na10  1  0.14000564  0.91643261  0.74312746  1
  Na  Na11  1  0.14081389  0.91662308  0.99326769  1
  Na  Na12  1  0.63945090  0.25059365  0.24250481  1
  Na  Na13  1  0.64045843  0.24975631  0.49374806  1
  Na  Na14  1  0.64020670  0.24950446  0.74464909  1
  Na  Na15  1  0.63946450  0.25056219  0.99339046  1
  Na  Na16  1  0.64050493  0.58423758  0.24255272  1
  Na  Na17  1  0.64044442  0.58402407  0.49351802  1
  Na  Na18  1  0.64046037  0.58175158  0.74523339  1
  Na  Na19  1  0.64085510  0.58254103  0.99338486  1
  Na  Na20  1  0.63973834  0.91556249  0.24407218  1
  Na  Na21  1  0.63953790  0.91599047  0.49225933  1
  Na  Na22  1  0.63942768  0.91568170  0.74261992  1
  Na  Na23  1  0.64027651  0.91482377  0.99410253  1
  Na  Na24  1  0.35950660  0.08439943  0.00786098  1
  Na  Na25  1  0.35964146  0.08418320  0.25796510  1
  Na  Na26  1  0.35927154  0.08339561  0.50650170  1
  Na  Na27  1  0.35950302  0.08232182  0.75733274  1
  Na  Na28  1  0.36037044  0.41599819  0.00773956  1
  Na  Na29  1  0.36042673  0.41594046  0.25692838  1
  Na  Na30  1  0.35961034  0.41659286  0.50552983  1
  Na  Na31  1  0.35951754  0.41638954  0.75851906  1
  Na  Na32  1  0.35970615  0.75031928  0.00504467  1
  Na  Na33  1  0.35968885  0.75123489  0.25662340  1
  Na  Na34  1  0.35987938  0.75161664  0.50586096  1
  Na  Na35  1  0.35943090  0.75029384  0.75647635  1
  Na  Na36  1  0.85902657  0.08228880  0.00565568  1
  Na  Na37  1  0.85938143  0.08329435  0.25641529  1
  Na  Na38  1  0.85894236  0.08347118  0.50557579  1
  Na  Na39  1  0.85862538  0.08192692  0.75607002  1
  Na  Na40  1  0.85984782  0.41693282  0.00580866  1
  Na  Na41  1  0.85960950  0.41820246  0.25570358  1
  Na  Na42  1  0.85974172  0.41722652  0.50576221  1
  Na  Na43  1  0.85959470  0.41619065  0.75667540  1
  Na  Na44  1  0.85938757  0.74900800  0.00542713  1
  Na  Na45  1  0.85926068  0.75056245  0.25593401  1
  Na  Na46  1  0.85929499  0.75085445  0.50495590  1
  Na  Na47  1  0.85929155  0.74909663  0.75684938  1
  Na  Na48  1  0.10985548  0.08552575  0.11929519  1
  Na  Na49  1  0.10988416  0.08543373  0.36858337  1
  Na  Na50  1  0.10974923  0.08301142  0.61969484  1
  Na  Na51  1  0.10971095  0.08388490  0.86863120  1
  Na  Na52  1  0.11063784  0.41594565  0.11894608  1
  Na  Na53  1  0.10988199  0.41702294  0.36846801  1
  Na  Na54  1  0.11059105  0.41574906  0.61950533  1
  Na  Na55  1  0.11109834  0.41611715  0.86862465  1
  Na  Na56  1  0.11054031  0.75035157  0.11914322  1
  Na  Na57  1  0.11059512  0.75045494  0.36843465  1
  Na  Na58  1  0.11010327  0.75048277  0.61883495  1
  Na  Na59  1  0.11032382  0.75110357  0.86740875  1
  Na  Na60  1  0.60867036  0.08355297  0.12015656  1
  Na  Na61  1  0.60859961  0.08206159  0.36831414  1
  Na  Na62  1  0.60919823  0.08112910  0.61836064  1
  Na  Na63  1  0.60857321  0.08290277  0.86891027  1
  Na  Na64  1  0.60932677  0.41582951  0.11793719  1
  Na  Na65  1  0.60913568  0.41583101  0.36776485  1
  Na  Na66  1  0.60984596  0.41646563  0.62009948  1
  Na  Na67  1  0.61005135  0.41613684  0.86900014  1
  Na  Na68  1  0.61031638  0.74951829  0.11815891  1
  Na  Na69  1  0.60987831  0.75046761  0.36703266  1
  Na  Na70  1  0.60948304  0.75071416  0.61863022  1
  Na  Na71  1  0.61000589  0.74980290  0.86778559  1
  Na  Na72  1  0.39012478  0.24989427  0.13319344  1
  Na  Na73  1  0.38979059  0.24934467  0.38121260  1
  Na  Na74  1  0.39012755  0.25011784  0.63234103  1
  Na  Na75  1  0.39019079  0.25044669  0.88388624  1
  Na  Na76  1  0.39089677  0.58265294  0.13105409  1
  Na  Na77  1  0.39086542  0.58392417  0.38077228  1
  Na  Na78  1  0.39069612  0.58423975  0.63140177  1
  Na  Na79  1  0.39005449  0.58216813  0.88206275  1
  Na  Na80  1  0.39020154  0.91694208  0.13213848  1
  Na  Na81  1  0.38996788  0.91641438  0.38157113  1
  Na  Na82  1  0.38976202  0.91652290  0.63148256  1
  Na  Na83  1  0.38998678  0.91702402  0.88041971  1
  Na  Na84  1  0.89032985  0.25064273  0.13043493  1
  Na  Na85  1  0.89032424  0.25151849  0.38029226  1
  Na  Na86  1  0.89008170  0.24978729  0.63143476  1
  Na  Na87  1  0.89004813  0.25082594  0.88020556  1
  Na  Na88  1  0.89014947  0.58295153  0.13111338  1
  Na  Na89  1  0.89034349  0.58438277  0.37955893  1
  Na  Na90  1  0.89091855  0.58251509  0.63118095  1
  Na  Na91  1  0.89026729  0.58244008  0.88186240  1
  Na  Na92  1  0.89019333  0.91609742  0.13170394  1
  Na  Na93  1  0.88965011  0.91681775  0.38117055  1
  Na  Na94  1  0.88954095  0.91673210  0.63122293  1
  Na  Na95  1  0.88985796  0.91583558  0.88018553  1
  Mn  Mn96  1  0.25097343  0.49916906  0.62444699  1
  Mn  Mn97  1  -0.00005593  0.66637017  0.50035109  1
  Mn  Mn98  1  0.00085412  0.50022909  0.24946900  1
  Mn  Mn99  1  -0.00066939  0.16801915  -0.00126304  1
  Mn  Mn100  1  0.74996757  0.16654993  0.37504639  1
  Mn  Mn101  1  0.50029889  0.00062360  0.00088028  1
  Mn  Mn102  1  0.25076011  0.66736252  0.62467633  1
  Mn  Mn103  1  0.00074335  0.66645364  -0.00033856  1
  Mn  Mn104  1  0.25049976  0.16706066  0.62614576  1
  Mn  Mn105  1  0.74894627  0.83324724  0.62461074  1
  Mn  Mn106  1  0.75053642  0.49929021  0.62463951  1
  Mn  Mn107  1  0.74942876  0.33408790  0.37419485  1
  Mn  Mn108  1  0.24970018  0.00072168  0.37532492  1
  Mn  Mn109  1  0.00083210  0.66652832  0.74979839  1
  Mn  Mn110  1  0.00023717  0.83339238  0.00000822  1
  Mn  Mn111  1  0.74904104  0.16601013  0.87452805  1
  Mn  Mn112  1  0.50002599  0.49987153  0.49986393  1
  Mn  Mn113  1  -0.00005540  0.16719088  0.50004569  1
  Mn  Mn114  1  0.49944333  0.33293181  0.50018466  1
  Mn  Mn115  1  0.25108508  0.49989514  0.12486586  1
  Mn  Mn116  1  0.49985108  0.66569727  -0.00066721  1
  Mn  Mn117  1  0.00020941  0.83348012  0.49999093  1
  Mn  Mn118  1  0.74924733  0.50144765  0.37501901  1
  Mn  Mn119  1  0.50002481  0.66653645  0.24974655  1
  Mn  Mn120  1  0.50015719  0.83364713  -0.00030113  1
  Mn  Mn121  1  0.74989203  0.66634851  0.62526204  1
  Mn  Mn122  1  0.74929551  -0.00173693  0.12541879  1
  Mn  Mn123  1  0.25076368  0.66808154  0.12385381  1
  Mn  Mn124  1  0.50094404  0.66776899  0.50025715  1
  Mn  Mn125  1  -0.00020696  0.16680488  0.75007635  1
  Mn  Mn126  1  0.00027921  0.00115123  0.24998324  1
  Mn  Mn127  1  0.74951390  0.16634553  0.12468457  1
  Mn  Mn128  1  0.00050736  0.33435915  0.49993641  1
  Mn  Mn129  1  0.74863927  -0.00215441  0.87565038  1
  Mn  Mn130  1  -0.00005812  0.00051815  -0.00003177  1
  Mn  Mn131  1  0.00082039  0.49880766  0.75076150  1
  Mn  Mn132  1  0.50013619  0.66637400  0.74979306  1
  Mn  Mn133  1  0.49987913  0.16584959  0.75067029  1
  Mn  Mn134  1  0.00090936  0.83293738  0.25037444  1
  Mn  Mn135  1  0.75034001  0.33452815  0.12383439  1
  Mn  Mn136  1  0.50017731  0.16540481  0.50035901  1
  Mn  Mn137  1  0.50004940  0.33362903  0.75142429  1
  Mn  Mn138  1  0.74945400  0.16628743  0.62481778  1
  Mn  Mn139  1  0.25028771  0.00064904  0.12555159  1
  Mn  Mn140  1  0.00133729  0.49889172  0.00086783  1
  Mn  Mn141  1  -0.00023347  0.00044829  0.49969275  1
  Mn  Mn142  1  0.25052361  0.50006934  0.37457803  1
  Mn  Mn143  1  0.24964759  -0.00004026  0.87595629  1
  Fe  Fe144  1  0.25000077  0.83369343  0.12468226  1
  Fe  Fe145  1  0.24993634  0.16762645  0.12609763  1
  Fe  Fe146  1  0.49923833  -0.00040825  0.25024457  1
  Fe  Fe147  1  0.49979758  0.83384958  0.74908614  1
  Fe  Fe148  1  0.24986365  0.33315593  0.37539103  1
  Fe  Fe149  1  0.74975126  0.33314683  0.62506890  1
  Fe  Fe150  1  0.00023970  0.33329464  0.74957045  1
  Fe  Fe151  1  0.74971740  0.50081317  0.12431352  1
  Fe  Fe152  1  0.49912890  0.16647158  0.00097050  1
  Fe  Fe153  1  0.24965507  0.83346088  0.62513405  1
  Fe  Fe154  1  0.24984332  0.00012740  0.62571558  1
  Fe  Fe155  1  0.74972663  0.83337247  0.37455359  1
  Fe  Fe156  1  0.49906051  -0.00099792  0.49937894  1
  Fe  Fe157  1  -0.00062927  0.16800848  0.24909855  1
  Fe  Fe158  1  0.74942691  -0.00066514  0.62456088  1
  Fe  Fe159  1  0.49950677  0.49946139  0.75091000  1
  Fe  Fe160  1  0.75026557  0.33329356  0.87476088  1
  Fe  Fe161  1  0.00060138  0.66649932  0.25007165  1
  Fe  Fe162  1  0.75041051  0.49966612  0.87490262  1
  Fe  Fe163  1  0.49950844  -0.00055813  0.74944692  1
  Fe  Fe164  1  0.49994932  0.33277108  0.24953393  1
  Fe  Fe165  1  -0.00045517  0.33405413  0.24981989  1
  Fe  Fe166  1  -0.00058155  -0.00002715  0.74957198  1
  Fe  Fe167  1  0.24942240  0.16756517  0.37615898  1
  Fe  Fe168  1  0.25097289  0.33282524  0.87613810  1
  Fe  Fe169  1  0.50008023  0.33300241  0.00116658  1
  Fe  Fe170  1  0.00029966  0.50029360  0.49956479  1
  Fe  Fe171  1  0.25035662  0.16697483  0.87630634  1
  Fe  Fe172  1  0.25011630  0.66693930  0.87450060  1
  Fe  Fe173  1  0.25087669  0.33303030  0.62605692  1
  Fe  Fe174  1  0.50044701  0.49892033  0.00103069  1
  Fe  Fe175  1  0.49943085  0.16626608  0.25049173  1
  Fe  Fe176  1  0.75034478  0.83234372  0.12495321  1
  Fe  Fe177  1  0.00033722  0.33340449  0.00007719  1
  Fe  Fe178  1  0.75002792  0.66570559  0.87579717  1
  Fe  Fe179  1  -0.00080819  0.83368540  0.74962376  1
  Fe  Fe180  1  0.75011707  0.66688742  0.12411727  1
  Fe  Fe181  1  0.49959236  0.83400632  0.49939271  1
  Fe  Fe182  1  0.25033282  0.83426754  0.37531797  1
  Fe  Fe183  1  0.25029414  0.33329337  0.12553255  1
  Fe  Fe184  1  0.74907517  -0.00045061  0.37482069  1
  Fe  Fe185  1  0.74970741  0.83195485  0.87480275  1
  Fe  Fe186  1  0.50061414  0.49933193  0.24996216  1
  Fe  Fe187  1  0.25075244  0.66770653  0.37453093  1
  Fe  Fe188  1  0.75012239  0.66749340  0.37354011  1
  Fe  Fe189  1  0.25022185  0.83359756  0.87458288  1
  Fe  Fe190  1  0.25078924  0.49934355  0.87476482  1
  Fe  Fe191  1  0.49956110  0.83328519  0.24980003  1
  P  P192  1  0.04190319  0.25150247  0.10291159  1
  P  P193  1  0.04124742  0.25105267  0.35115893  1
  P  P194  1  0.04289988  0.25042440  0.60353891  1
  P  P195  1  0.04239152  0.25190272  0.85249759  1
  P  P196  1  0.04398359  0.58348327  0.10357025  1
  P  P197  1  0.04299306  0.58433651  0.35269918  1
  P  P198  1  0.04306610  0.58162918  0.60238189  1
  P  P199  1  0.04372785  0.58296607  0.85324069  1
  P  P200  1  0.04325167  0.91709301  0.10308092  1
  P  P201  1  0.04334875  0.91743274  0.35307332  1
  P  P202  1  0.04214710  0.91704916  0.60412174  1
  P  P203  1  0.04126818  0.91707047  0.85112512  1
  P  P204  1  0.54068815  0.24935564  0.10284529  1
  P  P205  1  0.54107243  0.24955667  0.35145107  1
  P  P206  1  0.54258240  0.24941326  0.60352611  1
  P  P207  1  0.54232750  0.24963306  0.85477213  1
  P  P208  1  0.54233472  0.58147413  0.10281102  1
  P  P209  1  0.54254280  0.58223172  0.35194350  1
  P  P210  1  0.54299280  0.58317706  0.60352881  1
  P  P211  1  0.54169984  0.58134456  0.85313290  1
  P  P212  1  0.54236682  0.91668031  0.10422583  1
  P  P213  1  0.54052803  0.91646943  0.35186466  1
  P  P214  1  0.54098471  0.91652066  0.60158943  1
  P  P215  1  0.54126590  0.91690880  0.85119970  1
  P  P216  1  0.45794678  0.08339125  0.14891418  1
  P  P217  1  0.45736989  0.08170358  0.39699544  1
  P  P218  1  0.45729393  0.08138345  0.64740023  1
  P  P219  1  0.45718472  0.08403973  0.89803606  1
  P  P220  1  0.45892751  0.41628156  0.14807738  1
  P  P221  1  0.45740224  0.41619821  0.39579033  1
  P  P222  1  0.45716796  0.41763140  0.64846881  1
  P  P223  1  0.45897143  0.41652932  0.89932834  1
  P  P224  1  0.45789851  0.75070071  0.14731709  1
  P  P225  1  0.45820962  0.75163024  0.39686036  1
  P  P226  1  0.45789183  0.75171286  0.64710400  1
  P  P227  1  0.45782585  0.75029012  0.89591407  1
  P  P228  1  0.95742610  0.08516810  0.14725076  1
  P  P229  1  0.95706329  0.08464846  0.39601205  1
  P  P230  1  0.95707620  0.08237612  0.64757084  1
  P  P231  1  0.95680562  0.08317501  0.89597506  1
  P  P232  1  0.95791413  0.41546478  0.14709179  1
  P  P233  1  0.95785163  0.41843976  0.39683365  1
  P  P234  1  0.95784635  0.41568153  0.64727936  1
  P  P235  1  0.95847630  0.41498874  0.89749235  1
  P  P236  1  0.95812624  0.74853810  0.14769687  1
  P  P237  1  0.95768182  0.74958582  0.39638343  1
  P  P238  1  0.95759292  0.75075722  0.64766562  1
  P  P239  1  0.95775578  0.75033821  0.89608842  1
  P  P240  1  0.20796921  0.08540987  0.22834850  1
  P  P241  1  0.20767863  0.08476134  0.47848035  1
  P  P242  1  0.20798667  0.08238877  0.72841863  1
  P  P243  1  0.20788919  0.08535726  0.97860334  1
  P  P244  1  0.20878640  0.41545735  0.22782292  1
  P  P245  1  0.20806438  0.41548260  0.47760329  1
  P  P246  1  0.20907335  0.41523575  0.72861249  1
  P  P247  1  0.20979603  0.41626990  0.97708065  1
  P  P248  1  0.20869596  0.75193519  0.22791710  1
  P  P249  1  0.20898098  0.75093782  0.47665475  1
  P  P250  1  0.20824231  0.75109514  0.72795636  1
  P  P251  1  0.20872721  0.75070909  0.97609390  1
  P  P252  1  0.70705501  0.08239465  0.22866309  1
  P  P253  1  0.70718530  0.08174825  0.47750133  1
  P  P254  1  0.70706001  0.08131922  0.72711358  1
  P  P255  1  0.70626315  0.08235109  0.97821175  1
  P  P256  1  0.70752628  0.41877981  0.22653259  1
  P  P257  1  0.70668479  0.41678810  0.47818798  1
  P  P258  1  0.70825265  0.41514204  0.72833674  1
  P  P259  1  0.70897998  0.41707778  0.97650569  1
  P  P260  1  0.70855870  0.74981143  0.22668332  1
  P  P261  1  0.70808182  0.74987425  0.47567091  1
  P  P262  1  0.70698134  0.74932030  0.72892090  1
  P  P263  1  0.70836817  0.74903991  0.97716641  1
  P  P264  1  0.29157876  0.25014947  0.02384929  1
  P  P265  1  0.29105324  0.24998174  0.27341713  1
  P  P266  1  0.29231061  0.25137476  0.52277535  1
  P  P267  1  0.29218605  0.24967930  0.77451268  1
  P  P268  1  0.29313016  0.58351128  0.02066462  1
  P  P269  1  0.29270882  0.58502269  0.27229326  1
  P  P270  1  0.29323720  0.58393908  0.52117955  1
  P  P271  1  0.29164070  0.58329143  0.77342538  1
  P  P272  1  0.29221015  0.91571872  0.02252781  1
  P  P273  1  0.29218230  0.91622480  0.27257971  1
  P  P274  1  0.29093747  0.91671729  0.52352201  1
  P  P275  1  0.29143461  0.91590065  0.77209291  1
  P  P276  1  0.79219738  0.25021884  0.02076546  1
  P  P277  1  0.79237777  0.25035681  0.27127899  1
  P  P278  1  0.79216870  0.25113263  0.52249710  1
  P  P279  1  0.79159350  0.25078432  0.77199426  1
  P  P280  1  0.79172873  0.58327426  0.02240369  1
  P  P281  1  0.79174721  0.58516601  0.27093634  1
  P  P282  1  0.79294608  0.58402681  0.52130469  1
  P  P283  1  0.79177269  0.58305793  0.77380069  1
  P  P284  1  0.79213932  0.91385876  0.02229651  1
  P  P285  1  0.79098498  0.91617293  0.27304866  1
  P  P286  1  0.79134016  0.91772407  0.52152333  1
  P  P287  1  0.79132574  0.91469455  0.77226872  1
  O  O288  1  0.03631822  0.25120329  0.18278780  1
  O  O289  1  0.03647733  0.25091441  0.43117130  1
  O  O290  1  0.03772880  0.25056245  0.68346842  1
  O  O291  1  0.03705545  0.25203752  0.93245889  1
  O  O292  1  0.03884516  0.58401370  0.18356047  1
  O  O293  1  0.03747437  0.58343026  0.43263225  1
  O  O294  1  0.03806764  0.58186030  0.68238960  1
  O  O295  1  0.03896631  0.58292944  0.93323895  1
  O  O296  1  0.03846775  0.91706382  0.18306449  1
  O  O297  1  0.03815989  0.91737718  0.43305657  1
  O  O298  1  0.03647462  0.91690194  0.68405197  1
  O  O299  1  0.03669816  0.91693584  0.93119618  1
  O  O300  1  0.53571726  0.24988863  0.18278469  1
  O  O301  1  0.53650083  0.24933214  0.43147439  1
  O  O302  1  0.53740904  0.24950437  0.68351287  1
  O  O303  1  0.53703197  0.24939244  0.93471157  1
  O  O304  1  0.53689430  0.58152333  0.18275589  1
  O  O305  1  0.53768799  0.58286330  0.43192743  1
  O  O306  1  0.53749994  0.58286597  0.68346691  1
  O  O307  1  0.53638287  0.58107857  0.93308723  1
  O  O308  1  0.53669991  0.91640311  0.18408761  1
  O  O309  1  0.53527375  0.91637865  0.43180038  1
  O  O310  1  0.53595741  0.91660431  0.68151604  1
  O  O311  1  0.53670530  0.91709473  0.93121948  1
  O  O312  1  0.46289961  0.08428323  0.06894739  1
  O  O313  1  0.46272355  0.08200846  0.31712078  1
  O  O314  1  0.46251798  0.08128972  0.56743606  1
  O  O315  1  0.46228957  0.08333759  0.81812100  1
  O  O316  1  0.46434049  0.41632982  0.06815083  1
  O  O317  1  0.46307546  0.41612520  0.31587254  1
  O  O318  1  0.46209782  0.41712914  0.56846946  1
  O  O319  1  0.46342508  0.41668933  0.81931959  1
  O  O320  1  0.46286830  0.75027342  0.06732681  1
  O  O321  1  0.46341313  0.75170942  0.31685866  1
  O  O322  1  0.46328563  0.75189410  0.56711531  1
  O  O323  1  0.46324898  0.75069314  0.81597512  1
  O  O324  1  0.96224528  0.08496729  0.06721626  1
  O  O325  1  0.96231369  0.08535947  0.31602497  1
  O  O326  1  0.96205034  0.08281414  0.56755631  1
  O  O327  1  0.96203939  0.08250149  0.81602305  1
  O  O328  1  0.96320021  0.41531138  0.06714953  1
  O  O329  1  0.96314481  0.41774704  0.31686917  1
  O  O330  1  0.96298968  0.41703700  0.56731932  1
  O  O331  1  0.96346242  0.41490979  0.81751804  1
  O  O332  1  0.96321833  0.74892027  0.06769500  1
  O  O333  1  0.96302419  0.74912700  0.31645269  1
  O  O334  1  0.96252896  0.75036647  0.56763877  1
  O  O335  1  0.96291902  0.75092452  0.81611995  1
  O  O336  1  0.21323863  0.08544907  0.05854161  1
  O  O337  1  0.21300277  0.08550442  0.30832857  1
  O  O338  1  0.21323061  0.08406793  0.55837687  1
  O  O339  1  0.21275214  0.08254594  0.80833615  1
  O  O340  1  0.21437006  0.41634570  0.05705903  1
  O  O341  1  0.21377556  0.41524133  0.30775088  1
  O  O342  1  0.21346120  0.41555338  0.55753017  1
  O  O343  1  0.21461935  0.41566459  0.80848707  1
  O  O344  1  0.21354446  0.75099548  0.05608350  1
  O  O345  1  0.21429550  0.75161144  0.30776260  1
  O  O346  1  0.21391246  0.75101491  0.55664943  1
  O  O347  1  0.21353720  0.75071739  0.80780528  1
  O  O348  1  0.71154845  0.08239151  0.05815335  1
  O  O349  1  0.71241940  0.08212350  0.30861428  1
  O  O350  1  0.71243016  0.08170262  0.55748265  1
  O  O351  1  0.71211209  0.08144547  0.80707548  1
  O  O352  1  0.71371479  0.41814003  0.05647228  1
  O  O353  1  0.71216703  0.41851900  0.30651828  1
  O  O354  1  0.71197155  0.41603280  0.55815579  1
  O  O355  1  0.71403868  0.41534413  0.80820768  1
  O  O356  1  0.71374362  0.74918708  0.05707113  1
  O  O357  1  0.71362540  0.74981675  0.30657737  1
  O  O358  1  0.71250719  0.75020967  0.55567558  1
  O  O359  1  0.71212493  0.74938614  0.80881984  1
  O  O360  1  0.28588169  0.24977664  0.19350476  1
  O  O361  1  0.28659324  0.25105956  0.44294457  1
  O  O362  1  0.28752496  0.25007314  0.69455122  1
  O  O363  1  0.28684350  0.25014260  0.94395296  1
  O  O364  1  0.28761511  0.58483741  0.19231263  1
  O  O365  1  0.28787275  0.58450085  0.44124638  1
  O  O366  1  0.28711318  0.58296241  0.69339765  1
  O  O367  1  0.28765962  0.58319385  0.94079342  1
  O  O368  1  0.28712115  0.91630161  0.19264243  1
  O  O369  1  0.28614074  0.91677546  0.44352234  1
  O  O370  1  0.28602374  0.91646178  0.69225140  1
  O  O371  1  0.28672442  0.91582928  0.94259727  1
  O  O372  1  0.78734029  0.25034879  0.19129959  1
  O  O373  1  0.78687168  0.25078009  0.44252056  1
  O  O374  1  0.78618879  0.25079197  0.69204076  1
  O  O375  1  0.78681425  0.25059158  0.94082218  1
  O  O376  1  0.78626527  0.58482401  0.19105189  1
  O  O377  1  0.78779821  0.58465412  0.44136126  1
  O  O378  1  0.78713567  0.58266470  0.69381753  1
  O  O379  1  0.78672979  0.58303686  0.94248597  1
  O  O380  1  0.78640237  0.91518619  0.19305874  1
  O  O381  1  0.78615319  0.91769880  0.44162459  1
  O  O382  1  0.78631045  0.91558114  0.69231950  1
  O  O383  1  0.78666407  0.91359501  0.94237773  1
  O  O384  1  0.22737992  0.25008185  0.05981170  1
  O  O385  1  0.22702186  0.25000965  0.30996483  1
  O  O386  1  0.22830481  0.25151292  0.55932685  1
  O  O387  1  0.22797502  0.24970778  0.81041883  1
  O  O388  1  0.22902621  0.58351671  0.05672750  1
  O  O389  1  0.22849774  0.58509903  0.30802006  1
  O  O390  1  0.22902260  0.58348251  0.55682498  1
  O  O391  1  0.22749803  0.58329466  0.80911270  1
  O  O392  1  0.22803039  0.91595560  0.05854718  1
  O  O393  1  0.22795068  0.91606804  0.30837555  1
  O  O394  1  0.22690088  0.91625703  0.55969377  1
  O  O395  1  0.22736055  0.91556618  0.80843797  1
  O  O396  1  0.72790733  0.25043119  0.05629034  1
  O  O397  1  0.72790871  0.25005925  0.30627153  1
  O  O398  1  0.72784954  0.25118162  0.55811910  1
  O  O399  1  0.72746029  0.25102754  0.80803288  1
  O  O400  1  0.72760829  0.58333770  0.05865081  1
  O  O401  1  0.72765750  0.58563728  0.30730478  1
  O  O402  1  0.72855903  0.58316959  0.55660619  1
  O  O403  1  0.72755490  0.58348885  0.80954735  1
  O  O404  1  0.72785369  0.91368094  0.05807447  1
  O  O405  1  0.72675273  0.91641936  0.30881503  1
  O  O406  1  0.72709108  0.91789263  0.55751895  1
  O  O407  1  0.72697481  0.91378741  0.80784297  1
  O  O408  1  0.27224597  0.08534567  0.19263624  1
  O  O409  1  0.27177335  0.08531458  0.44226573  1
  O  O410  1  0.27225670  0.08242968  0.69274921  1
  O  O411  1  0.27211781  0.08489112  0.94274754  1
  O  O412  1  0.27304254  0.41539695  0.19210901  1
  O  O413  1  0.27224176  0.41536511  0.44160913  1
  O  O414  1  0.27316716  0.41507658  0.69227791  1
  O  O415  1  0.27398777  0.41599395  0.94133777  1
  O  O416  1  0.27274286  0.75244386  0.19140654  1
  O  O417  1  0.27313690  0.75124730  0.44059129  1
  O  O418  1  0.27239562  0.75173697  0.69180754  1
  O  O419  1  0.27290495  0.75087127  0.94015794  1
  O  O420  1  0.77129752  0.08239119  0.19305385  1
  O  O421  1  0.77145144  0.08173278  0.44176480  1
  O  O422  1  0.77137050  0.08142072  0.69153631  1
  O  O423  1  0.77060156  0.08209920  0.94296949  1
  O  O424  1  0.77197355  0.41905452  0.19133392  1
  O  O425  1  0.77106342  0.41738756  0.44289197  1
  O  O426  1  0.77225502  0.41449342  0.69168333  1
  O  O427  1  0.77313719  0.41641811  0.94064202  1
  O  O428  1  0.77264501  0.74977228  0.19027206  1
  O  O429  1  0.77239177  0.74951152  0.44013389  1
  O  O430  1  0.77124065  0.74988574  0.69322463  1
  O  O431  1  0.77235188  0.74907452  0.94053381  1
  O  O432  1  0.02182626  0.08529747  0.18237127  1
  O  O433  1  0.02144849  0.08418882  0.43124104  1
  O  O434  1  0.02145161  0.08222169  0.68284888  1
  O  O435  1  0.02118743  0.08384737  0.93117785  1
  O  O436  1  0.02221773  0.41525787  0.18265327  1
  O  O437  1  0.02213914  0.41884568  0.43257045  1
  O  O438  1  0.02225127  0.41490589  0.68274326  1
  O  O439  1  0.02286332  0.41476175  0.93292412  1
  O  O440  1  0.02252061  0.74826277  0.18302358  1
  O  O441  1  0.02197393  0.74970035  0.43176659  1
  O  O442  1  0.02201133  0.75120887  0.68275029  1
  O  O443  1  0.02215439  0.75022490  0.93125289  1
  O  O444  1  0.52200023  0.08236519  0.18490784  1
  O  O445  1  0.52147725  0.08091598  0.43315636  1
  O  O446  1  0.52157213  0.08122616  0.68305721  1
  O  O447  1  0.52148315  0.08489595  0.93369487  1
  O  O448  1  0.52290210  0.41593322  0.18449242  1
  O  O449  1  0.52154986  0.41604436  0.43167736  1
  O  O450  1  0.52162050  0.41801522  0.68369053  1
  O  O451  1  0.52321191  0.41649152  0.93490848  1
  O  O452  1  0.52221968  0.75062683  0.18263804  1
  O  O453  1  0.52246925  0.75202422  0.43252119  1
  O  O454  1  0.52207104  0.75136722  0.68285191  1
  O  O455  1  0.52201464  0.74977937  0.93155609  1
  O  O456  1  0.47664981  0.24925484  0.06665537  1
  O  O457  1  0.47681662  0.25045697  0.31598913  1
  O  O458  1  0.47817322  0.24911772  0.56846043  1
  O  O459  1  0.47810848  0.24964104  0.81910290  1
  O  O460  1  0.47813733  0.58137696  0.06701604  1
  O  O461  1  0.47818057  0.58218376  0.31671827  1
  O  O462  1  0.47874715  0.58391890  0.56801122  1
  O  O463  1  0.47754919  0.58162406  0.81717691  1
  O  O464  1  0.47821623  0.91702499  0.06837741  1
  O  O465  1  0.47655554  0.91658928  0.31542471  1
  O  O466  1  0.47679561  0.91647401  0.56549329  1
  O  O467  1  0.47701986  0.91714793  0.81556838  1
  O  O468  1  0.97779230  0.25210254  0.06667207  1
  O  O469  1  0.97702899  0.25138835  0.31543676  1
  O  O470  1  0.97856582  0.25073050  0.56830686  1
  O  O471  1  0.97815468  0.25188121  0.81674423  1
  O  O472  1  0.97954495  0.58290906  0.06856981  1
  O  O473  1  0.97883832  0.58472504  0.31666972  1
  O  O474  1  0.97858822  0.58148837  0.56723691  1
  O  O475  1  0.97922492  0.58293614  0.81851893  1
  O  O476  1  0.97864124  0.91692000  0.06854841  1
  O  O477  1  0.97891026  0.91716423  0.31815153  1
  O  O478  1  0.97800112  0.91684885  0.56825819  1
  O  O479  1  0.97695041  0.91715835  0.81567819  1
  O  O480  1  0.07320607  0.31476806  0.07434829  1
  O  O481  1  0.07219254  0.31476204  0.32328607  1
  O  O482  1  0.07439336  0.31345256  0.57495240  1
  O  O483  1  0.07343317  0.31501996  0.82364051  1
  O  O484  1  0.07508562  0.64663647  0.07478822  1
  O  O485  1  0.07369837  0.64807501  0.32463644  1
  O  O486  1  0.07397760  0.64544544  0.57468827  1
  O  O487  1  0.07462952  0.64638814  0.82482779  1
  O  O488  1  0.07399392  0.98069133  0.07478894  1
  O  O489  1  0.07427547  0.98099681  0.32504942  1
  O  O490  1  0.07328855  0.98049777  0.57585140  1
  O  O491  1  0.07209383  0.98082511  0.82316256  1
  O  O492  1  0.57154423  0.31297354  0.07402425  1
  O  O493  1  0.57265904  0.31265518  0.32311643  1
  O  O494  1  0.57337767  0.31295124  0.57525800  1
  O  O495  1  0.57346857  0.31313602  0.82653278  1
  O  O496  1  0.57320420  0.64527814  0.07496608  1
  O  O497  1  0.57359407  0.64577349  0.32380596  1
  O  O498  1  0.57433523  0.64670812  0.57556433  1
  O  O499  1  0.57292105  0.64502962  0.82565634  1
  O  O500  1  0.57370715  0.98006940  0.07607391  1
  O  O501  1  0.57156500  0.98002884  0.32366410  1
  O  O502  1  0.57176257  0.97998659  0.57270474  1
  O  O503  1  0.57212766  0.98049409  0.82293840  1
  O  O504  1  0.42647319  0.01988141  0.17645279  1
  O  O505  1  0.42596718  0.01854320  0.42562485  1
  O  O506  1  0.42634259  0.01811115  0.67620726  1
  O  O507  1  0.42647448  0.02036539  0.92638409  1
  O  O508  1  0.42763968  0.35276308  0.17616293  1
  O  O509  1  0.42610135  0.35291819  0.42436404  1
  O  O510  1  0.42640277  0.35399792  0.67677652  1
  O  O511  1  0.42869298  0.35257418  0.92801242  1
  O  O512  1  0.42666421  0.68715402  0.17514784  1
  O  O513  1  0.42760298  0.68766809  0.42463719  1
  O  O514  1  0.42655015  0.68809071  0.67470557  1
  O  O515  1  0.42662714  0.68673684  0.92377248  1
  O  O516  1  0.92635252  0.02152578  0.17510395  1
  O  O517  1  0.92600494  0.02095924  0.42375288  1
  O  O518  1  0.92632869  0.01883477  0.67592538  1
  O  O519  1  0.92580931  0.01998301  0.92493993  1
  O  O520  1  0.92665088  0.35243712  0.17590043  1
  O  O521  1  0.92671293  0.35499535  0.42504557  1
  O  O522  1  0.92711195  0.35192377  0.67519439  1
  O  O523  1  0.92730113  0.35191892  0.92629374  1
  O  O524  1  0.92740236  0.68498283  0.17599844  1
  O  O525  1  0.92633668  0.68647897  0.42492457  1
  O  O526  1  0.92683573  0.68692183  0.67550942  1
  O  O527  1  0.92690947  0.68657041  0.92396046  1
  O  O528  1  0.17707044  0.02158176  0.20061512  1
  O  O529  1  0.17658871  0.02130663  0.45024553  1
  O  O530  1  0.17754247  0.01882072  0.69940061  1
  O  O531  1  0.17656506  0.02170470  0.95102590  1
  O  O532  1  0.17782006  0.35224090  0.19882973  1
  O  O533  1  0.17697522  0.35220758  0.44902791  1
  O  O534  1  0.17830466  0.35161457  0.70022175  1
  O  O535  1  0.17858859  0.35284848  0.94885825  1
  O  O536  1  0.17779027  0.68826897  0.19967610  1
  O  O537  1  0.17874713  0.68685991  0.44835567  1
  O  O538  1  0.17747063  0.68735275  0.69962885  1
  O  O539  1  0.17847731  0.68658104  0.94796457  1
  O  O540  1  0.67574595  0.01913294  0.20042904  1
  O  O541  1  0.67617411  0.01857862  0.44855187  1
  O  O542  1  0.67653314  0.01772011  0.69858184  1
  O  O543  1  0.67504927  0.01879502  0.95046410  1
  O  O544  1  0.67676293  0.35497658  0.19859183  1
  O  O545  1  0.67566085  0.35352036  0.44935683  1
  O  O546  1  0.67674187  0.35202347  0.69987827  1
  O  O547  1  0.67789130  0.35327210  0.94907761  1
  O  O548  1  0.67758196  0.68639343  0.19795568  1
  O  O549  1  0.67706639  0.68642513  0.44749302  1
  O  O550  1  0.67628242  0.68561945  0.70055940  1
  O  O551  1  0.67752975  0.68526202  0.94902605  1
  O  O552  1  0.32226079  0.31385902  0.05252944  1
  O  O553  1  0.32204216  0.31366113  0.30145800  1
  O  O554  1  0.32327369  0.31476882  0.55145745  1
  O  O555  1  0.32327262  0.31301682  0.80321485  1
  O  O556  1  0.32430476  0.64706982  0.04867817  1
  O  O557  1  0.32346358  0.64857879  0.30065366  1
  O  O558  1  0.32435275  0.64720964  0.54981929  1
  O  O559  1  0.32236523  0.64716458  0.80116959  1
  O  O560  1  0.32333480  0.97942290  0.05029024  1
  O  O561  1  0.32281844  0.98012605  0.30056724  1
  O  O562  1  0.32094813  0.98094769  0.55179907  1
  O  O563  1  0.32255038  0.97928590  0.80072566  1
  O  O564  1  0.82366998  0.31338425  0.04910187  1
  O  O565  1  0.82310842  0.31411563  0.29918065  1
  O  O566  1  0.82290432  0.31468061  0.55075900  1
  O  O567  1  0.82280306  0.31393838  0.80070363  1
  O  O568  1  0.82260906  0.64693151  0.05067864  1
  O  O569  1  0.82283491  0.64850645  0.29951642  1
  O  O570  1  0.82363331  0.64743721  0.55018122  1
  O  O571  1  0.82280960  0.64654642  0.80188263  1
  O  O572  1  0.82289427  0.97781429  0.04999060  1
  O  O573  1  0.82175419  0.98002234  0.30080397  1
  O  O574  1  0.82226846  0.98099064  0.55059758  1
  O  O575  1  0.82209153  0.97826338  0.80074030  1
  O  O576  1  0.42776002  0.14721957  0.17793631  1
  O  O577  1  0.42672077  0.14552526  0.42526032  1
  O  O578  1  0.42641913  0.14518130  0.67529832  1
  O  O579  1  0.42619315  0.14743120  0.92663223  1
  O  O580  1  0.42817266  0.48002985  0.17640557  1
  O  O581  1  0.42628294  0.47969836  0.42403583  1
  O  O582  1  0.42642876  0.48123169  0.67682034  1
  O  O583  1  0.42773572  0.47981085  0.92771509  1
  O  O584  1  0.42733983  0.81436912  0.17571962  1
  O  O585  1  0.42687753  0.81471086  0.42559836  1
  O  O586  1  0.42713865  0.81512357  0.67589484  1
  O  O587  1  0.42674002  0.81367388  0.92426418  1
  O  O588  1  0.92680356  0.14881303  0.17568157  1
  O  O589  1  0.92600467  0.14786828  0.42486176  1
  O  O590  1  0.92608824  0.14602856  0.67545930  1
  O  O591  1  0.92565533  0.14688408  0.92358285  1
  O  O592  1  0.92717670  0.47941503  0.17477969  1
  O  O593  1  0.92718511  0.48215034  0.42505102  1
  O  O594  1  0.92684345  0.47896771  0.67624733  1
  O  O595  1  0.92789600  0.47899267  0.92539978  1
  O  O596  1  0.92723245  0.81231097  0.17550856  1
  O  O597  1  0.92672841  0.81334320  0.42422289  1
  O  O598  1  0.92662567  0.81424702  0.67590549  1
  O  O599  1  0.92649708  0.81343504  0.92490303  1
  O  O600  1  0.07275130  0.18788210  0.07449340  1
  O  O601  1  0.07164002  0.18720374  0.32278856  1
  O  O602  1  0.07359689  0.18661650  0.57543435  1
  O  O603  1  0.07326053  0.18791196  0.82508310  1
  O  O604  1  0.07506891  0.51973042  0.07582547  1
  O  O605  1  0.07434682  0.52100828  0.32444943  1
  O  O606  1  0.07370830  0.51813274  0.57377349  1
  O  O607  1  0.07472284  0.51942146  0.82525188  1
  O  O608  1  0.07423444  0.85364410  0.07470440  1
  O  O609  1  0.07456820  0.85402481  0.32506097  1
  O  O610  1  0.07357931  0.85373823  0.57577757  1
  O  O611  1  0.07173622  0.85323244  0.82280973  1
  O  O612  1  0.57172574  0.18575312  0.07476219  1
  O  O613  1  0.57091828  0.18525098  0.32318807  1
  O  O614  1  0.57367828  0.18590423  0.57550408  1
  O  O615  1  0.57363847  0.18646887  0.82599333  1
  O  O616  1  0.57339177  0.51816780  0.07422861  1
  O  O617  1  0.57312071  0.51852522  0.32368343  1
  O  O618  1  0.57393746  0.51978649  0.57508422  1
  O  O619  1  0.57240787  0.51788695  0.82438174  1
  O  O620  1  0.57348503  0.85337334  0.07546510  1
  O  O621  1  0.57145719  0.85281733  0.32346300  1
  O  O622  1  0.57200975  0.85294281  0.57313964  1
  O  O623  1  0.57169404  0.85299188  0.82300230  1
  O  O624  1  0.32258671  0.18675255  0.05257114  1
  O  O625  1  0.32194716  0.18648769  0.30210589  1
  O  O626  1  0.32362208  0.18787397  0.55082850  1
  O  O627  1  0.32256229  0.18566265  0.80257490  1
  O  O628  1  0.32443896  0.52034227  0.04946650  1
  O  O629  1  0.32376487  0.52127103  0.29970919  1
  O  O630  1  0.32445158  0.52037538  0.54899383  1
  O  O631  1  0.32230848  0.51960476  0.80192740  1
  O  O632  1  0.32306808  0.85229889  0.05096111  1
  O  O633  1  0.32329247  0.85309438  0.30137083  1
  O  O634  1  0.32240656  0.85348264  0.55168085  1
  O  O635  1  0.32258026  0.85246966  0.80038525  1
  O  O636  1  0.82301060  0.18644901  0.04861361  1
  O  O637  1  0.82357080  0.18709271  0.29956159  1
  O  O638  1  0.82322487  0.18743275  0.55020549  1
  O  O639  1  0.82240589  0.18673609  0.79930806  1
  O  O640  1  0.82266797  0.51974058  0.05099908  1
  O  O641  1  0.82274569  0.52155037  0.29909372  1
  O  O642  1  0.82425896  0.52060700  0.54937033  1
  O  O643  1  0.82224046  0.51914639  0.80206227  1
  O  O644  1  0.82336711  0.85080654  0.05114104  1
  O  O645  1  0.82174852  0.85267749  0.30195126  1
  O  O646  1  0.82236169  0.85399892  0.54947818  1
  O  O647  1  0.82237435  0.85122656  0.80048724  1
  O  O648  1  0.17695181  0.14861584  0.19960039  1
  O  O649  1  0.17673772  0.14842154  0.45048512  1
  O  O650  1  0.17671369  0.14589060  0.70057900  1
  O  O651  1  0.17725101  0.14874383  0.94966459  1
  O  O652  1  0.17790606  0.47932684  0.20022440  1
  O  O653  1  0.17718326  0.47925437  0.44971185  1
  O  O654  1  0.17780253  0.47862633  0.70023157  1
  O  O655  1  0.17942022  0.48010619  0.94840222  1
  O  O656  1  0.17749328  0.81521184  0.19926521  1
  O  O657  1  0.17763554  0.81430410  0.44855984  1
  O  O658  1  0.17700079  0.81427145  0.69922643  1
  O  O659  1  0.17741141  0.81400525  0.94777820  1
  O  O660  1  0.67608620  0.14607775  0.20076303  1
  O  O661  1  0.67624223  0.14570297  0.45008141  1
  O  O662  1  0.67587963  0.14496555  0.69955193  1
  O  O663  1  0.67535734  0.14581111  0.94998851  1
  O  O664  1  0.67682137  0.48221179  0.19797828  1
  O  O665  1  0.67552952  0.48035348  0.45033251  1
  O  O666  1  0.67752221  0.47907559  0.70053552  1
  O  O667  1  0.67846883  0.48066111  0.94751804  1
  O  O668  1  0.67765155  0.81346688  0.19840793  1
  O  O669  1  0.67787141  0.81384585  0.44712637  1
  O  O670  1  0.67541999  0.81228795  0.70001481  1
  O  O671  1  0.67718639  0.81247520  0.94877813  1
