# generated using pymatgen
data_Na2MnFe(PO4)2
_symmetry_space_group_name_H-M   'P 1'
_cell_length_a   22.33837364
_cell_length_b   20.08989941
_cell_length_c   19.45330557
_cell_angle_alpha   90.01368795
_cell_angle_beta   90.04662683
_cell_angle_gamma   90.02349165
_symmetry_Int_Tables_number   1
_chemical_formula_structural   Na2MnFe(PO4)2
_chemical_formula_sum   'Na96 Mn48 Fe48 P96 O384'
_cell_volume   8730.16655304
_cell_formula_units_Z   48
loop_
 _symmetry_equiv_pos_site_id
 _symmetry_equiv_pos_as_xyz
  1  'x, y, z'
loop_
 _atom_site_type_symbol
 _atom_site_label
 _atom_site_symmetry_multiplicity
 _atom_site_fract_x
 _atom_site_fract_y
 _atom_site_fract_z
 _atom_site_occupancy
  Na  Na0  1  0.14009516  0.25039221  0.24470535  1
  Na  Na1  1  0.14015300  0.24884135  0.49417878  1
  Na  Na2  1  0.13963332  0.24900823  0.74229399  1
  Na  Na3  1  0.13986581  0.24935323  0.99301691  1
  Na  Na4  1  0.13985577  0.58490786  0.24336687  1
  Na  Na5  1  0.13992916  0.58279870  0.49394915  1
  Na  Na6  1  0.13951137  0.58363254  0.74304586  1
  Na  Na7  1  0.13981758  0.58459791  0.99324614  1
  Na  Na8  1  0.14008050  0.91806560  0.24313737  1
  Na  Na9  1  0.13977024  0.91753634  0.49342308  1
  Na  Na10  1  0.14036876  0.91729181  0.74408772  1
  Na  Na11  1  0.13995113  0.91731208  0.99386221  1
  Na  Na12  1  0.64054565  0.24884335  0.24381158  1
  Na  Na13  1  0.64068678  0.24879239  0.49385384  1
  Na  Na14  1  0.64054963  0.24874036  0.74439343  1
  Na  Na15  1  0.64041920  0.25039242  0.99359779  1
  Na  Na16  1  0.63972092  0.58302332  0.24390923  1
  Na  Na17  1  0.63950815  0.58446317  0.49282317  1
  Na  Na18  1  0.63967685  0.58284628  0.74281729  1
  Na  Na19  1  0.64006233  0.58340002  0.99313621  1
  Na  Na20  1  0.64079693  0.91612507  0.24546876  1
  Na  Na21  1  0.64111499  0.91615373  0.49312664  1
  Na  Na22  1  0.64085009  0.91525482  0.74447249  1
  Na  Na23  1  0.64046395  0.91718104  0.99275118  1
  Na  Na24  1  0.35980877  0.08364525  0.00618892  1
  Na  Na25  1  0.35973331  0.08509416  0.25544759  1
  Na  Na26  1  0.35959660  0.08309605  0.50543040  1
  Na  Na27  1  0.35937604  0.08238894  0.75585238  1
  Na  Na28  1  0.35922537  0.41740305  0.00603554  1
  Na  Na29  1  0.35950286  0.41762453  0.25591636  1
  Na  Na30  1  0.35989719  0.41582339  0.50663696  1
  Na  Na31  1  0.36000814  0.41646875  0.75658257  1
  Na  Na32  1  0.35964656  0.75106714  0.00647591  1
  Na  Na33  1  0.35958214  0.75061426  0.25598623  1
  Na  Na34  1  0.36002030  0.74986571  0.50708270  1
  Na  Na35  1  0.35986439  0.74971910  0.75548351  1
  Na  Na36  1  0.86046668  0.08357921  0.00629459  1
  Na  Na37  1  0.86009714  0.08209825  0.25742292  1
  Na  Na38  1  0.86025849  0.08321396  0.50657738  1
  Na  Na39  1  0.86012823  0.08214453  0.75710724  1
  Na  Na40  1  0.85983861  0.41726950  0.00530396  1
  Na  Na41  1  0.85923921  0.41587989  0.25637913  1
  Na  Na42  1  0.85955572  0.41691084  0.50697651  1
  Na  Na43  1  0.86039183  0.41597245  0.75721662  1
  Na  Na44  1  0.85958897  0.75070580  0.00583899  1
  Na  Na45  1  0.86000282  0.75022605  0.25799414  1
  Na  Na46  1  0.86056462  0.75099326  0.50683599  1
  Na  Na47  1  0.85957976  0.74923440  0.75644853  1
  Na  Na48  1  0.10911132  0.08243918  0.11821712  1
  Na  Na49  1  0.10987852  0.08307855  0.36945397  1
  Na  Na50  1  0.10974273  0.08419470  0.61742739  1
  Na  Na51  1  0.10986366  0.08470670  0.86828883  1
  Na  Na52  1  0.10891635  0.41610164  0.11877046  1
  Na  Na53  1  0.10950191  0.41651726  0.36941451  1
  Na  Na54  1  0.10935030  0.41709842  0.61854426  1
  Na  Na55  1  0.10857833  0.41756811  0.86736919  1
  Na  Na56  1  0.10978178  0.74981305  0.11775228  1
  Na  Na57  1  0.10931806  0.75127441  0.36852829  1
  Na  Na58  1  0.10872348  0.75070719  0.61869763  1
  Na  Na59  1  0.10960586  0.75090741  0.86947931  1
  Na  Na60  1  0.60996802  0.08263552  0.11885561  1
  Na  Na61  1  0.61021110  0.08277201  0.36848262  1
  Na  Na62  1  0.61036676  0.08179960  0.61882974  1
  Na  Na63  1  0.61022853  0.08416123  0.86877545  1
  Na  Na64  1  0.60954505  0.41572485  0.11862648  1
  Na  Na65  1  0.60909756  0.41704536  0.36830973  1
  Na  Na66  1  0.60936324  0.41756817  0.61967529  1
  Na  Na67  1  0.60891973  0.41829197  0.86861293  1
  Na  Na68  1  0.60975176  0.74818532  0.11939240  1
  Na  Na69  1  0.61001871  0.74843521  0.36909375  1
  Na  Na70  1  0.60969918  0.74798136  0.61742670  1
  Na  Na71  1  0.60933402  0.74968846  0.86807080  1
  Na  Na72  1  0.39030801  0.24993773  0.13084174  1
  Na  Na73  1  0.39041896  0.25071639  0.38083286  1
  Na  Na74  1  0.39049345  0.25011784  0.63151211  1
  Na  Na75  1  0.39025391  0.25108099  0.88075572  1
  Na  Na76  1  0.39058067  0.58317362  0.13074277  1
  Na  Na77  1  0.39046780  0.58381237  0.38119224  1
  Na  Na78  1  0.39052322  0.58208830  0.63101340  1
  Na  Na79  1  0.39033873  0.58445530  0.88035909  1
  Na  Na80  1  0.39084496  0.91580432  0.13144764  1
  Na  Na81  1  0.39025870  0.91639852  0.38137190  1
  Na  Na82  1  0.39055304  0.91545258  0.63073793  1
  Na  Na83  1  0.39045258  0.91681617  0.88157949  1
  Na  Na84  1  0.89022953  0.24846629  0.13127557  1
  Na  Na85  1  0.89042215  0.24898349  0.38223175  1
  Na  Na86  1  0.89114259  0.25064078  0.63153742  1
  Na  Na87  1  0.89098298  0.24994442  0.88176626  1
  Na  Na88  1  0.89040992  0.58279338  0.13098008  1
  Na  Na89  1  0.89051023  0.58459660  0.38216147  1
  Na  Na90  1  0.89033451  0.58375003  0.63164571  1
  Na  Na91  1  0.89041654  0.58369968  0.88043969  1
  Na  Na92  1  0.89045903  0.91552971  0.13118817  1
  Na  Na93  1  0.89096150  0.91724365  0.38325007  1
  Na  Na94  1  0.89023158  0.91757492  0.63161206  1
  Na  Na95  1  0.89032109  0.91755676  0.88259878  1
  Mn  Mn96  1  0.24946616  0.83429720  0.62489117  1
  Mn  Mn97  1  0.24914531  0.66609382  0.62535206  1
  Mn  Mn98  1  0.75059973  0.16473667  0.62513783  1
  Mn  Mn99  1  0.24965936  0.66723073  0.37493158  1
  Mn  Mn100  1  0.00005744  0.83374020  0.75029716  1
  Mn  Mn101  1  0.49964932  0.16763053  0.74964994  1
  Mn  Mn102  1  0.74982489  0.33309009  0.87480780  1
  Mn  Mn103  1  0.75035734  0.83318339  0.62503487  1
  Mn  Mn104  1  0.49995689  0.33337975  0.24955121  1
  Mn  Mn105  1  0.25010006  0.16698840  0.37506523  1
  Mn  Mn106  1  0.49946825  0.33392246  0.00045366  1
  Mn  Mn107  1  0.24953994  0.50048762  0.87550858  1
  Mn  Mn108  1  -0.00037168  0.33248504  0.24968859  1
  Mn  Mn109  1  0.74953705  0.66635403  0.87501580  1
  Mn  Mn110  1  0.00029983  0.16492948  0.25100113  1
  Mn  Mn111  1  0.50025413  0.00026173  0.00056019  1
  Mn  Mn112  1  -0.00023623  0.66649888  -0.00042975  1
  Mn  Mn113  1  0.00025418  0.83340653  0.25022594  1
  Mn  Mn114  1  0.74991710  0.83375053  0.12566088  1
  Mn  Mn115  1  0.50065905  0.83154328  0.25062271  1
  Mn  Mn116  1  -0.00084242  0.50034831  0.25038560  1
  Mn  Mn117  1  0.24966352  0.83481826  0.37520605  1
  Mn  Mn118  1  0.75032953  0.49954690  0.12512604  1
  Mn  Mn119  1  0.74958906  0.16677126  0.12535446  1
  Mn  Mn120  1  0.50053076  -0.00030892  0.75015125  1
  Mn  Mn121  1  0.50043469  0.83216700  0.74992533  1
  Mn  Mn122  1  0.75055219  -0.00011818  0.12536910  1
  Mn  Mn123  1  0.00080676  0.00133639  0.75044111  1
  Mn  Mn124  1  0.24865246  0.50120156  0.12529412  1
  Mn  Mn125  1  0.24995898  0.66797671  0.87419405  1
  Mn  Mn126  1  0.75018745  0.66702481  0.12492352  1
  Mn  Mn127  1  0.74967402  0.33226656  0.37567065  1
  Mn  Mn128  1  0.24932314  0.33310576  0.12483865  1
  Mn  Mn129  1  0.25016684  0.00110153  0.12423594  1
  Mn  Mn130  1  -0.00026563  0.33337445  -0.00075324  1
  Mn  Mn131  1  0.74946523  0.50039385  0.37542560  1
  Mn  Mn132  1  0.24999669  0.33254652  0.62546589  1
  Mn  Mn133  1  0.50033991  0.16670463  0.50031371  1
  Mn  Mn134  1  0.25006045  0.49938242  0.37423584  1
  Mn  Mn135  1  -0.00020892  0.50041770  0.50028907  1
  Mn  Mn136  1  0.24892325  0.33231548  0.87501089  1
  Mn  Mn137  1  0.50093062  0.33429340  0.50002667  1
  Mn  Mn138  1  0.74945928  0.50045060  0.62494196  1
  Mn  Mn139  1  0.24994368  0.00009362  0.87506148  1
  Mn  Mn140  1  0.75013184  0.33252975  0.62555953  1
  Mn  Mn141  1  0.49961156  -0.00118311  0.49939648  1
  Mn  Mn142  1  0.50021337  0.66619095  -0.00022405  1
  Mn  Mn143  1  0.50036280  -0.00043229  0.25005187  1
  Fe  Fe144  1  0.49966804  0.50055800  0.74947248  1
  Fe  Fe145  1  0.24976180  0.16725760  0.12519430  1
  Fe  Fe146  1  0.75038204  -0.00038079  0.87501230  1
  Fe  Fe147  1  -0.00049844  0.83318105  0.00037911  1
  Fe  Fe148  1  0.00006265  0.16715944  0.50036163  1
  Fe  Fe149  1  0.50048502  0.33426393  0.75042086  1
  Fe  Fe150  1  0.25015104  0.83460952  0.12490081  1
  Fe  Fe151  1  0.25029493  0.16586730  0.62405824  1
  Fe  Fe152  1  0.50027265  0.16655089  0.24986445  1
  Fe  Fe153  1  0.74984926  0.83293499  0.87457775  1
  Fe  Fe154  1  0.24982016  0.33318470  0.37546208  1
  Fe  Fe155  1  0.25012308  0.83386346  0.87502474  1
  Fe  Fe156  1  0.00028804  0.66721692  0.50061919  1
  Fe  Fe157  1  0.00007267  0.33367006  0.74947947  1
  Fe  Fe158  1  0.50050867  0.83193855  0.50011412  1
  Fe  Fe159  1  0.00010053  0.66689459  0.25009164  1
  Fe  Fe160  1  -0.00027003  0.33360524  0.50050800  1
  Fe  Fe161  1  0.75006089  0.49988721  0.87504001  1
  Fe  Fe162  1  -0.00000139  0.50081820  0.74928942  1
  Fe  Fe163  1  0.25016848  0.00084799  0.37427238  1
  Fe  Fe164  1  0.75039746  -0.00005646  0.37544659  1
  Fe  Fe165  1  0.49980635  0.66571689  0.49948731  1
  Fe  Fe166  1  0.50027184  0.16722954  -0.00039539  1
  Fe  Fe167  1  0.49980595  0.66609646  0.74870264  1
  Fe  Fe168  1  0.25048197  -0.00002138  0.62520285  1
  Fe  Fe169  1  -0.00033084  0.00005229  0.00021404  1
  Fe  Fe170  1  0.00052506  0.16639072  -0.00011990  1
  Fe  Fe171  1  0.00028621  0.00061642  0.50067313  1
  Fe  Fe172  1  0.75076559  0.16612157  0.87534696  1
  Fe  Fe173  1  0.75067661  0.66688596  0.37512386  1
  Fe  Fe174  1  0.24986989  0.49913525  0.62475220  1
  Fe  Fe175  1  0.49970795  0.50012586  0.24954822  1
  Fe  Fe176  1  0.24997152  0.16618937  0.87424687  1
  Fe  Fe177  1  -0.00017101  -0.00059095  0.25053072  1
  Fe  Fe178  1  0.75034566  0.33307093  0.12486531  1
  Fe  Fe179  1  0.75059213  0.83331178  0.37588204  1
  Fe  Fe180  1  0.25032096  0.66842913  0.12443667  1
  Fe  Fe181  1  -0.00049372  0.16735624  0.74985993  1
  Fe  Fe182  1  -0.00004792  0.50033986  -0.00070704  1
  Fe  Fe183  1  0.49951969  0.50024401  0.49986397  1
  Fe  Fe184  1  0.49946663  0.66581213  0.25025408  1
  Fe  Fe185  1  -0.00053083  0.66729355  0.74993261  1
  Fe  Fe186  1  0.49991631  0.50029455  -0.00088100  1
  Fe  Fe187  1  0.00016009  0.83389352  0.50006797  1
  Fe  Fe188  1  0.50040186  0.83270659  0.00014767  1
  Fe  Fe189  1  0.75015181  -0.00067099  0.62515974  1
  Fe  Fe190  1  0.75008288  0.66670039  0.62508030  1
  Fe  Fe191  1  0.75073088  0.16586291  0.37513466  1
  P  P192  1  0.04182591  0.24837867  0.10208471  1
  P  P193  1  0.04237202  0.24968003  0.35427013  1
  P  P194  1  0.04129281  0.25053900  0.60231539  1
  P  P195  1  0.04131174  0.25040646  0.85127853  1
  P  P196  1  0.04210283  0.58228431  0.10231588  1
  P  P197  1  0.04198664  0.58525143  0.35304915  1
  P  P198  1  0.04177731  0.58487962  0.60332133  1
  P  P199  1  0.04130970  0.58399575  0.85139358  1
  P  P200  1  0.04119942  0.91640334  0.10179915  1
  P  P201  1  0.04221207  0.91801159  0.35335139  1
  P  P202  1  0.04123064  0.91712384  0.60182366  1
  P  P203  1  0.04245884  0.91747865  0.85415493  1
  P  P204  1  0.54225818  0.24847568  0.10270818  1
  P  P205  1  0.54245222  0.24923673  0.35219549  1
  P  P206  1  0.54328966  0.25091492  0.60376632  1
  P  P207  1  0.54213776  0.25182755  0.85287479  1
  P  P208  1  0.54237059  0.58114275  0.10257659  1
  P  P209  1  0.54111247  0.58292931  0.35206776  1
  P  P210  1  0.54122284  0.58288686  0.60165025  1
  P  P211  1  0.54119018  0.58384006  0.85099812  1
  P  P212  1  0.54267326  0.91474374  0.10259910  1
  P  P213  1  0.54267034  0.91531387  0.35380946  1
  P  P214  1  0.54279222  0.91440446  0.60214283  1
  P  P215  1  0.54279592  0.91622128  0.85374187  1
  P  P216  1  0.45842659  0.08444333  0.14712959  1
  P  P217  1  0.45763472  0.08361276  0.39611303  1
  P  P218  1  0.45733364  0.08276584  0.64676364  1
  P  P219  1  0.45790731  0.08498693  0.89762698  1
  P  P220  1  0.45757906  0.41787360  0.14704918  1
  P  P221  1  0.45766304  0.41844341  0.39712730  1
  P  P222  1  0.45861766  0.41696473  0.64820196  1
  P  P223  1  0.45739798  0.41830863  0.89677865  1
  P  P224  1  0.45801104  0.74797831  0.14747804  1
  P  P225  1  0.45846090  0.74914517  0.39833782  1
  P  P226  1  0.45786186  0.74812290  0.64624368  1
  P  P227  1  0.45769512  0.75072396  0.89732949  1
  P  P228  1  0.95790133  0.08071834  0.14742152  1
  P  P229  1  0.95893948  0.08323211  0.39894875  1
  P  P230  1  0.95837529  0.08509793  0.64701942  1
  P  P231  1  0.95916083  0.08386255  0.89820473  1
  P  P232  1  0.95677784  0.41641511  0.14639006  1
  P  P233  1  0.95743096  0.41567249  0.39804526  1
  P  P234  1  0.95859769  0.41702535  0.64800751  1
  P  P235  1  0.95805832  0.41853207  0.89618690  1
  P  P236  1  0.95764397  0.74882592  0.14766114  1
  P  P237  1  0.95926982  0.75019751  0.39856700  1
  P  P238  1  0.95770306  0.74944129  0.64695347  1
  P  P239  1  0.95755478  0.75126472  0.89733503  1
  P  P240  1  0.20752333  0.08504736  0.22735665  1
  P  P241  1  0.20815404  0.08204069  0.47793634  1
  P  P242  1  0.20842787  0.08326782  0.72637531  1
  P  P243  1  0.20775698  0.08491016  0.97744478  1
  P  P244  1  0.20642413  0.41660814  0.22852734  1
  P  P245  1  0.20792100  0.41529711  0.47802165  1
  P  P246  1  0.20750214  0.41726512  0.72738707  1
  P  P247  1  0.20622816  0.41656917  0.97805579  1
  P  P248  1  0.20835226  0.75148124  0.22622676  1
  P  P249  1  0.20701890  0.75058148  0.47811077  1
  P  P250  1  0.20658455  0.75086864  0.72832159  1
  P  P251  1  0.20800678  0.75212191  0.97806495  1
  P  P252  1  0.70766101  0.08267222  0.22927704  1
  P  P253  1  0.70865800  0.08272313  0.47690698  1
  P  P254  1  0.70834863  0.08052373  0.72851866  1
  P  P255  1  0.70890870  0.08333547  0.97659186  1
  P  P256  1  0.70760825  0.41494373  0.22749692  1
  P  P257  1  0.70671706  0.41663137  0.47833153  1
  P  P258  1  0.70761534  0.41643715  0.72875129  1
  P  P259  1  0.70765515  0.41757745  0.97754335  1
  P  P260  1  0.70787213  0.74998748  0.22952374  1
  P  P261  1  0.70936499  0.74964850  0.47712163  1
  P  P262  1  0.70769431  0.74888987  0.72739311  1
  P  P263  1  0.70730097  0.75138411  0.97714894  1
  P  P264  1  0.29187321  0.24834612  0.02198815  1
  P  P265  1  0.29227493  0.25159413  0.27238581  1
  P  P266  1  0.29248903  0.24883552  0.52233256  1
  P  P267  1  0.29183139  0.24814716  0.77181248  1
  P  P268  1  0.29166234  0.58532724  0.02266072  1
  P  P269  1  0.29227428  0.58458407  0.27117403  1
  P  P270  1  0.29177998  0.58173782  0.52270990  1
  P  P271  1  0.29227160  0.58287416  0.77125681  1
  P  P272  1  0.29255053  0.91606822  0.02211042  1
  P  P273  1  0.29223574  0.91857092  0.27184493  1
  P  P274  1  0.29225500  0.91868392  0.52201765  1
  P  P275  1  0.29246540  0.91586654  0.77240454  1
  P  P276  1  0.79229124  0.25091886  0.02227070  1
  P  P277  1  0.79251742  0.24849404  0.27257571  1
  P  P278  1  0.79312933  0.24888926  0.52200222  1
  P  P279  1  0.79265939  0.24788290  0.77294477  1
  P  P280  1  0.79271001  0.58323296  0.02135566  1
  P  P281  1  0.79244002  0.58423258  0.27291181  1
  P  P282  1  0.79198050  0.58534842  0.52220022  1
  P  P283  1  0.79188518  0.58210917  0.77225317  1
  P  P284  1  0.79247085  0.91681376  0.02112638  1
  P  P285  1  0.79224883  0.91657695  0.27451303  1
  P  P286  1  0.79225713  0.91789863  0.52208951  1
  P  P287  1  0.79202430  0.91613290  0.77342658  1
  O  O288  1  0.03700158  0.24812725  0.18199899  1
  O  O289  1  0.03695591  0.24999619  0.43414500  1
  O  O290  1  0.03576553  0.25033744  0.68217648  1
  O  O291  1  0.03668443  0.25056863  0.93119067  1
  O  O292  1  0.03692868  0.58298931  0.18221953  1
  O  O293  1  0.03675833  0.58548406  0.43299981  1
  O  O294  1  0.03618953  0.58457270  0.68315570  1
  O  O295  1  0.03632975  0.58321453  0.93135533  1
  O  O296  1  0.03638304  0.91637358  0.18178177  1
  O  O297  1  0.03706944  0.91785672  0.43319499  1
  O  O298  1  0.03693817  0.91709335  0.68179829  1
  O  O299  1  0.03688625  0.91755004  0.93397764  1
  O  O300  1  0.53696162  0.24819823  0.18264027  1
  O  O301  1  0.53769923  0.24973007  0.43219753  1
  O  O302  1  0.53791484  0.25156087  0.68368694  1
  O  O303  1  0.53666556  0.25116922  0.93279475  1
  O  O304  1  0.53698086  0.58107729  0.18236647  1
  O  O305  1  0.53601660  0.58290439  0.43193067  1
  O  O306  1  0.53642717  0.58353422  0.68150052  1
  O  O307  1  0.53662758  0.58328533  0.93091915  1
  O  O308  1  0.53752596  0.91494408  0.18256099  1
  O  O309  1  0.53734327  0.91494895  0.43369524  1
  O  O310  1  0.53773071  0.91468217  0.68213206  1
  O  O311  1  0.53747922  0.91597825  0.93365248  1
  O  O312  1  0.46370602  0.08473103  0.06717632  1
  O  O313  1  0.46308935  0.08407010  0.31617130  1
  O  O314  1  0.46239226  0.08259992  0.56682378  1
  O  O315  1  0.46295199  0.08446769  0.81767706  1
  O  O316  1  0.46258130  0.41789096  0.06712104  1
  O  O317  1  0.46283784  0.41833026  0.31719942  1
  O  O318  1  0.46353308  0.41752575  0.56826508  1
  O  O319  1  0.46289251  0.41767111  0.81695403  1
  O  O320  1  0.46320814  0.74864779  0.06760167  1
  O  O321  1  0.46315343  0.74840137  0.31839440  1
  O  O322  1  0.46325470  0.74865181  0.56641291  1
  O  O323  1  0.46266803  0.75019126  0.81743526  1
  O  O324  1  0.96315331  0.08056475  0.06760982  1
  O  O325  1  0.96351531  0.08220177  0.31901990  1
  O  O326  1  0.96367199  0.08474707  0.56718276  1
  O  O327  1  0.96384227  0.08486321  0.81826580  1
  O  O328  1  0.96203007  0.41673157  0.06643789  1
  O  O329  1  0.96236193  0.41592221  0.31808828  1
  O  O330  1  0.96333131  0.41624696  0.56803804  1
  O  O331  1  0.96364758  0.41853189  0.81634434  1
  O  O332  1  0.96253149  0.74948627  0.06773030  1
  O  O333  1  0.96405906  0.75009992  0.31860469  1
  O  O334  1  0.96345608  0.74964742  0.56712758  1
  O  O335  1  0.96260040  0.75090526  0.81744095  1
  O  O336  1  0.21286585  0.08516530  0.05736815  1
  O  O337  1  0.21290681  0.08429981  0.30725326  1
  O  O338  1  0.21375718  0.08207873  0.55777713  1
  O  O339  1  0.21341329  0.08380244  0.80638399  1
  O  O340  1  0.21120314  0.41659051  0.05801975  1
  O  O341  1  0.21185064  0.41594506  0.30849148  1
  O  O342  1  0.21342656  0.41607690  0.55797414  1
  O  O343  1  0.21199124  0.41712892  0.80737682  1
  O  O344  1  0.21373711  0.75178278  0.05793536  1
  O  O345  1  0.21298310  0.75134117  0.30626302  1
  O  O346  1  0.21182654  0.75048434  0.55803773  1
  O  O347  1  0.21182591  0.75144232  0.80827229  1
  O  O348  1  0.71349309  0.08351191  0.05662095  1
  O  O349  1  0.71300710  0.08272332  0.30916052  1
  O  O350  1  0.71360371  0.08231465  0.55689348  1
  O  O351  1  0.71374485  0.08058654  0.80836528  1
  O  O352  1  0.71301684  0.41676362  0.05746648  1
  O  O353  1  0.71254751  0.41521084  0.30746422  1
  O  O354  1  0.71192771  0.41674143  0.55827111  1
  O  O355  1  0.71292977  0.41709667  0.80866536  1
  O  O356  1  0.71239696  0.75113143  0.05711315  1
  O  O357  1  0.71345789  0.74981473  0.30940729  1
  O  O358  1  0.71385669  0.74942720  0.55711768  1
  O  O359  1  0.71276036  0.74947343  0.80730417  1
  O  O360  1  0.28696044  0.25093505  0.19247455  1
  O  O361  1  0.28730737  0.24986820  0.44240685  1
  O  O362  1  0.28676308  0.24804111  0.69185539  1
  O  O363  1  0.28648770  0.24810259  0.94203406  1
  O  O364  1  0.28676715  0.58543745  0.19128837  1
  O  O365  1  0.28695741  0.58185891  0.44273466  1
  O  O366  1  0.28686668  0.58191392  0.69134783  1
  O  O367  1  0.28685072  0.58518982  0.94266381  1
  O  O368  1  0.28688401  0.91768519  0.19190514  1
  O  O369  1  0.28702455  0.91908859  0.44206000  1
  O  O370  1  0.28724947  0.91675377  0.69247979  1
  O  O371  1  0.28749056  0.91579076  0.94217075  1
  O  O372  1  0.78710009  0.24939899  0.19262752  1
  O  O373  1  0.78796882  0.24861962  0.44205570  1
  O  O374  1  0.78762993  0.24788933  0.69301966  1
  O  O375  1  0.78716059  0.25028537  0.94235466  1
  O  O376  1  0.78764507  0.58384864  0.19290785  1
  O  O377  1  0.78694385  0.58556557  0.44222074  1
  O  O378  1  0.78668921  0.58284276  0.69231952  1
  O  O379  1  0.78737938  0.58276805  0.94141156  1
  O  O380  1  0.78776669  0.91630235  0.19448073  1
  O  O381  1  0.78695595  0.91775413  0.44225896  1
  O  O382  1  0.78709567  0.91633561  0.69341972  1
  O  O383  1  0.78714713  0.91681926  0.94124776  1
  O  O384  1  0.22756621  0.24820433  0.05768557  1
  O  O385  1  0.22805583  0.25181226  0.30826813  1
  O  O386  1  0.22820517  0.24834230  0.55794287  1
  O  O387  1  0.22745921  0.24777538  0.80732338  1
  O  O388  1  0.22728637  0.58567289  0.05781243  1
  O  O389  1  0.22800192  0.58380708  0.30668475  1
  O  O390  1  0.22736669  0.58168817  0.55786088  1
  O  O391  1  0.22794717  0.58368142  0.80659717  1
  O  O392  1  0.22822141  0.91632158  0.05765559  1
  O  O393  1  0.22794951  0.91909808  0.30760341  1
  O  O394  1  0.22795676  0.91898387  0.55770101  1
  O  O395  1  0.22816593  0.91541984  0.80807036  1
  O  O396  1  0.72800030  0.25142492  0.05799181  1
  O  O397  1  0.72828568  0.24739504  0.30841656  1
  O  O398  1  0.72876075  0.24876808  0.55722298  1
  O  O399  1  0.72832000  0.24781373  0.80831680  1
  O  O400  1  0.72841473  0.58328193  0.05674256  1
  O  O401  1  0.72796177  0.58462103  0.30795845  1
  O  O402  1  0.72761862  0.58529786  0.55764302  1
  O  O403  1  0.72760251  0.58159132  0.80790352  1
  O  O404  1  0.72822967  0.91693805  0.05684644  1
  O  O405  1  0.72795945  0.91700240  0.30988529  1
  O  O406  1  0.72814933  0.91774986  0.55826408  1
  O  O407  1  0.72784402  0.91623795  0.80932253  1
  O  O408  1  0.27182289  0.08545584  0.19162806  1
  O  O409  1  0.27216434  0.08192214  0.44145131  1
  O  O410  1  0.27267311  0.08308147  0.69054830  1
  O  O411  1  0.27202971  0.08495015  0.94174142  1
  O  O412  1  0.27070287  0.41707721  0.19311243  1
  O  O413  1  0.27210828  0.41501273  0.44207454  1
  O  O414  1  0.27202037  0.41696165  0.69254580  1
  O  O415  1  0.27074590  0.41619680  0.94329445  1
  O  O416  1  0.27267350  0.75174920  0.19077956  1
  O  O417  1  0.27151812  0.75087692  0.44331554  1
  O  O418  1  0.27093914  0.75045858  0.69311826  1
  O  O419  1  0.27207970  0.75239485  0.94164654  1
  O  O420  1  0.77193004  0.08314207  0.19366127  1
  O  O421  1  0.77291054  0.08302023  0.44101403  1
  O  O422  1  0.77256116  0.08036485  0.69248367  1
  O  O423  1  0.77322668  0.08310937  0.94111772  1
  O  O424  1  0.77200526  0.41472776  0.19213661  1
  O  O425  1  0.77117869  0.41654981  0.44345441  1
  O  O426  1  0.77190765  0.41672418  0.69333049  1
  O  O427  1  0.77189309  0.41801819  0.94170808  1
  O  O428  1  0.77207900  0.75014144  0.19370656  1
  O  O429  1  0.77358494  0.74922678  0.44154741  1
  O  O430  1  0.77202960  0.74862541  0.69182074  1
  O  O431  1  0.77163793  0.75125370  0.94172001  1
  O  O432  1  0.02215948  0.08068164  0.18348432  1
  O  O433  1  0.02312041  0.08412098  0.43481001  1
  O  O434  1  0.02256887  0.08584668  0.68310178  1
  O  O435  1  0.02330045  0.08285095  0.93409451  1
  O  O436  1  0.02108644  0.41670234  0.18191782  1
  O  O437  1  0.02178984  0.41575727  0.43354038  1
  O  O438  1  0.02273204  0.41762260  0.68393704  1
  O  O439  1  0.02204960  0.41840051  0.93278523  1
  O  O440  1  0.02206359  0.74875182  0.18317150  1
  O  O441  1  0.02335862  0.75011704  0.43462280  1
  O  O442  1  0.02176252  0.74895497  0.68342051  1
  O  O443  1  0.02178844  0.75140774  0.93316497  1
  O  O444  1  0.52263002  0.08399448  0.18300636  1
  O  O445  1  0.52189613  0.08304839  0.43172135  1
  O  O446  1  0.52179404  0.08339290  0.68182358  1
  O  O447  1  0.52227980  0.08485626  0.93311551  1
  O  O448  1  0.52185822  0.41757471  0.18280173  1
  O  O449  1  0.52201740  0.41893347  0.43281984  1
  O  O450  1  0.52272751  0.41637325  0.68434244  1
  O  O451  1  0.52156076  0.41835363  0.93305957  1
  O  O452  1  0.52228152  0.74716973  0.18330286  1
  O  O453  1  0.52275242  0.74953544  0.43409252  1
  O  O454  1  0.52206176  0.74762493  0.68240651  1
  O  O455  1  0.52206691  0.75074176  0.93296506  1
  O  O456  1  0.47798249  0.24849059  0.06685620  1
  O  O457  1  0.47806212  0.24956938  0.31686384  1
  O  O458  1  0.47893752  0.25080773  0.56834344  1
  O  O459  1  0.47794541  0.25256750  0.81681552  1
  O  O460  1  0.47816565  0.58159143  0.06634886  1
  O  O461  1  0.47705157  0.58302600  0.31562320  1
  O  O462  1  0.47705344  0.58234640  0.56555349  1
  O  O463  1  0.47697338  0.58454852  0.81514216  1
  O  O464  1  0.47834221  0.91499345  0.06703187  1
  O  O465  1  0.47843449  0.91552832  0.31820343  1
  O  O466  1  0.47837716  0.91380652  0.56674034  1
  O  O467  1  0.47850995  0.91619689  0.81817130  1
  O  O468  1  0.97752511  0.24877833  0.06655435  1
  O  O469  1  0.97817965  0.24901214  0.31834337  1
  O  O470  1  0.97734997  0.25045994  0.56555198  1
  O  O471  1  0.97705780  0.24981530  0.81548395  1
  O  O472  1  0.97783908  0.58192750  0.06643653  1
  O  O473  1  0.97769235  0.58545552  0.31722449  1
  O  O474  1  0.97770593  0.58501488  0.56697589  1
  O  O475  1  0.97716662  0.58419123  0.81524873  1
  O  O476  1  0.97702160  0.91657861  0.06579064  1
  O  O477  1  0.97797118  0.91777764  0.31733487  1
  O  O478  1  0.97699626  0.91701187  0.56636008  1
  O  O479  1  0.97830861  0.91773309  0.81816608  1
  O  O480  1  0.07328310  0.31177690  0.07437124  1
  O  O481  1  0.07322766  0.31312382  0.32551057  1
  O  O482  1  0.07220669  0.31432791  0.57430401  1
  O  O483  1  0.07137828  0.31449441  0.82263450  1
  O  O484  1  0.07323412  0.64577932  0.07402617  1
  O  O485  1  0.07305491  0.64841463  0.32401498  1
  O  O486  1  0.07293237  0.64818563  0.57477637  1
  O  O487  1  0.07195055  0.64812811  0.82396993  1
  O  O488  1  0.07251318  0.97973624  0.07359184  1
  O  O489  1  0.07284281  0.98148932  0.32437086  1
  O  O490  1  0.07185955  0.98100039  0.57372861  1
  O  O491  1  0.07390648  0.98073516  0.82556956  1
  O  O492  1  0.57299944  0.31253929  0.07528462  1
  O  O493  1  0.57381226  0.31265848  0.32419261  1
  O  O494  1  0.57462974  0.31400131  0.57506141  1
  O  O495  1  0.57325467  0.31536520  0.82493525  1
  O  O496  1  0.57385341  0.64465668  0.07468253  1
  O  O497  1  0.57192145  0.64667223  0.32366912  1
  O  O498  1  0.57165919  0.64653405  0.57233765  1
  O  O499  1  0.57242891  0.64734410  0.82295541  1
  O  O500  1  0.57397617  0.97838810  0.07504764  1
  O  O501  1  0.57378516  0.97887594  0.32582142  1
  O  O502  1  0.57344585  0.97831551  0.57441434  1
  O  O503  1  0.57372303  0.97998499  0.82584468  1
  O  O504  1  0.42707105  0.02064137  0.17440437  1
  O  O505  1  0.42633569  0.01997439  0.42370690  1
  O  O506  1  0.42677057  0.01901785  0.67498415  1
  O  O507  1  0.42662186  0.02152248  0.92564351  1
  O  O508  1  0.42644398  0.35410733  0.17476512  1
  O  O509  1  0.42720754  0.35442286  0.42516836  1
  O  O510  1  0.42739909  0.35343893  0.67617683  1
  O  O511  1  0.42600532  0.35499063  0.92525885  1
  O  O512  1  0.42705612  0.68449088  0.17583381  1
  O  O513  1  0.42781702  0.68554498  0.42718020  1
  O  O514  1  0.42680633  0.68467632  0.67472267  1
  O  O515  1  0.42632619  0.68736676  0.92545831  1
  O  O516  1  0.92703041  0.01744156  0.17666601  1
  O  O517  1  0.92868705  0.01950969  0.42813284  1
  O  O518  1  0.92780489  0.02122336  0.67541452  1
  O  O519  1  0.92758368  0.02044743  0.92580740  1
  O  O520  1  0.92612096  0.35252447  0.17432766  1
  O  O521  1  0.92677073  0.35214754  0.42658188  1
  O  O522  1  0.92810755  0.35331789  0.67690566  1
  O  O523  1  0.92665288  0.35486896  0.92380846  1
  O  O524  1  0.92722392  0.68503266  0.17607760  1
  O  O525  1  0.92786748  0.68700963  0.42693626  1
  O  O526  1  0.92649617  0.68619988  0.67569020  1
  O  O527  1  0.92625660  0.68774736  0.92515798  1
  O  O528  1  0.17643896  0.02161809  0.19889352  1
  O  O529  1  0.17703834  0.01887975  0.44888403  1
  O  O530  1  0.17773860  0.01921482  0.69870613  1
  O  O531  1  0.17709400  0.02077149  0.94993883  1
  O  O532  1  0.17518427  0.35339785  0.19990084  1
  O  O533  1  0.17733446  0.35136087  0.45010207  1
  O  O534  1  0.17625681  0.35367775  0.69959678  1
  O  O535  1  0.17511409  0.35311409  0.94976482  1
  O  O536  1  0.17790905  0.68761753  0.19780040  1
  O  O537  1  0.17622391  0.68699119  0.44980466  1
  O  O538  1  0.17547628  0.68722227  0.70046174  1
  O  O539  1  0.17677949  0.68849566  0.94999732  1
  O  O540  1  0.67682414  0.01902407  0.20078437  1
  O  O541  1  0.67772796  0.01916105  0.44857071  1
  O  O542  1  0.67739192  0.01725697  0.69930849  1
  O  O543  1  0.67788868  0.01977034  0.94854432  1
  O  O544  1  0.67698365  0.35133728  0.19896485  1
  O  O545  1  0.67553565  0.35317386  0.45034636  1
  O  O546  1  0.67704176  0.35235416  0.70118645  1
  O  O547  1  0.67642596  0.35411376  0.94939031  1
  O  O548  1  0.67667459  0.68667511  0.20077149  1
  O  O549  1  0.67781835  0.68659819  0.44842412  1
  O  O550  1  0.67711183  0.68516648  0.69889108  1
  O  O551  1  0.67609165  0.68768589  0.94947403  1
  O  O552  1  0.32273088  0.31240544  0.04939452  1
  O  O553  1  0.32292896  0.31528185  0.30081000  1
  O  O554  1  0.32374511  0.31212160  0.55093098  1
  O  O555  1  0.32230843  0.31224363  0.79974621  1
  O  O556  1  0.32252943  0.64890233  0.05107328  1
  O  O557  1  0.32318120  0.64791519  0.30013095  1
  O  O558  1  0.32276384  0.64549414  0.55043746  1
  O  O559  1  0.32354994  0.64661341  0.79869272  1
  O  O560  1  0.32359231  0.97999105  0.04955086  1
  O  O561  1  0.32309245  0.98230428  0.29976254  1
  O  O562  1  0.32362992  0.98155195  0.55119736  1
  O  O563  1  0.32347289  0.97938610  0.80087051  1
  O  O564  1  0.82301255  0.31462850  0.05059722  1
  O  O565  1  0.82334380  0.31213437  0.30087968  1
  O  O566  1  0.82388228  0.31270074  0.55016669  1
  O  O567  1  0.82370877  0.31163122  0.80049177  1
  O  O568  1  0.82359741  0.64710130  0.04909892  1
  O  O569  1  0.82339976  0.64765659  0.30139855  1
  O  O570  1  0.82290299  0.64851497  0.55140506  1
  O  O571  1  0.82294898  0.64568936  0.80038771  1
  O  O572  1  0.82371464  0.98018544  0.04969420  1
  O  O573  1  0.82340435  0.98009333  0.30254392  1
  O  O574  1  0.82298699  0.98134823  0.55107956  1
  O  O575  1  0.82328467  0.97946960  0.80186573  1
  O  O576  1  0.42777417  0.14788922  0.17602565  1
  O  O577  1  0.42654643  0.14692111  0.42463804  1
  O  O578  1  0.42597688  0.14613426  0.67464533  1
  O  O579  1  0.42745503  0.14882085  0.92568677  1
  O  O580  1  0.42678745  0.48119180  0.17585631  1
  O  O581  1  0.42637374  0.48149456  0.42590989  1
  O  O582  1  0.42821706  0.48079208  0.67684997  1
  O  O583  1  0.42667272  0.48200154  0.92511835  1
  O  O584  1  0.42716174  0.81160170  0.17572038  1
  O  O585  1  0.42755586  0.81291922  0.42617163  1
  O  O586  1  0.42678069  0.81162313  0.67463146  1
  O  O587  1  0.42744778  0.81449878  0.92611130  1
  O  O588  1  0.92688099  0.14442515  0.17544721  1
  O  O589  1  0.92763381  0.14682065  0.42651573  1
  O  O590  1  0.92692123  0.14816970  0.67569919  1
  O  O591  1  0.92910173  0.14773105  0.92737437  1
  O  O592  1  0.92531625  0.47948280  0.17500695  1
  O  O593  1  0.92639498  0.47940221  0.42577928  1
  O  O594  1  0.92740031  0.48072987  0.67556009  1
  O  O595  1  0.92729191  0.48195557  0.92504659  1
  O  O596  1  0.92641316  0.81215061  0.17614510  1
  O  O597  1  0.92898429  0.81438119  0.42670167  1
  O  O598  1  0.92671608  0.81321497  0.67481053  1
  O  O599  1  0.92702138  0.81487684  0.92605807  1
  O  O600  1  0.07206383  0.18456354  0.07329716  1
  O  O601  1  0.07389901  0.18633839  0.32614317  1
  O  O602  1  0.07242323  0.18703091  0.57396870  1
  O  O603  1  0.07265454  0.18710543  0.82299634  1
  O  O604  1  0.07277884  0.51867505  0.07388027  1
  O  O605  1  0.07267970  0.52118798  0.32563230  1
  O  O606  1  0.07290042  0.52124554  0.57522941  1
  O  O607  1  0.07231418  0.52067402  0.82256850  1
  O  O608  1  0.07147606  0.85229765  0.07363297  1
  O  O609  1  0.07353037  0.85462052  0.32498645  1
  O  O610  1  0.07198087  0.85347930  0.57345250  1
  O  O611  1  0.07354518  0.85407882  0.82572251  1
  O  O612  1  0.57343040  0.18542426  0.07368078  1
  O  O613  1  0.57269439  0.18534754  0.32393061  1
  O  O614  1  0.57421265  0.18705074  0.57613840  1
  O  O615  1  0.57303816  0.18815609  0.82480594  1
  O  O616  1  0.57291425  0.51776824  0.07322934  1
  O  O617  1  0.57215440  0.51947486  0.32350712  1
  O  O618  1  0.57247494  0.51940912  0.57357273  1
  O  O619  1  0.57142563  0.52001824  0.82214269  1
  O  O620  1  0.57307116  0.85098986  0.07421758  1
  O  O621  1  0.57394209  0.85198603  0.32565133  1
  O  O622  1  0.57379773  0.85096622  0.57384132  1
  O  O623  1  0.57412801  0.85308111  0.82520871  1
  O  O624  1  0.32296998  0.18531432  0.05115471  1
  O  O625  1  0.32352167  0.18814516  0.30044003  1
  O  O626  1  0.32318558  0.18502647  0.55027444  1
  O  O627  1  0.32313223  0.18505721  0.80045289  1
  O  O628  1  0.32249829  0.52151532  0.05040045  1
  O  O629  1  0.32361838  0.52100641  0.29869632  1
  O  O630  1  0.32234644  0.51809509  0.55132304  1
  O  O631  1  0.32328586  0.51974943  0.80029606  1
  O  O632  1  0.32337275  0.85293595  0.05138132  1
  O  O633  1  0.32328300  0.85511210  0.30033125  1
  O  O634  1  0.32283311  0.85449536  0.54940413  1
  O  O635  1  0.32330423  0.85223583  0.80049412  1
  O  O636  1  0.82328322  0.18735788  0.05044356  1
  O  O637  1  0.82366926  0.18495560  0.30059605  1
  O  O638  1  0.82446447  0.18574032  0.55044009  1
  O  O639  1  0.82328082  0.18433239  0.80160608  1
  O  O640  1  0.82406806  0.52015296  0.04997638  1
  O  O641  1  0.82314080  0.52041582  0.30091603  1
  O  O642  1  0.82290551  0.52140359  0.54970492  1
  O  O643  1  0.82276242  0.51854918  0.80053204  1
  O  O644  1  0.82352754  0.85343187  0.04977169  1
  O  O645  1  0.82249631  0.85263820  0.30309739  1
  O  O646  1  0.82355043  0.85439141  0.55015414  1
  O  O647  1  0.82235753  0.85198622  0.80135406  1
  O  O648  1  0.17676166  0.14876982  0.19934470  1
  O  O649  1  0.17707724  0.14583363  0.45027074  1
  O  O650  1  0.17752589  0.14660521  0.69747777  1
  O  O651  1  0.17661150  0.14785154  0.94826321  1
  O  O652  1  0.17525262  0.48033623  0.20095477  1
  O  O653  1  0.17648178  0.47857432  0.44982054  1
  O  O654  1  0.17720563  0.48091127  0.69848599  1
  O  O655  1  0.17550947  0.48024485  0.94999077  1
  O  O656  1  0.17741919  0.81517831  0.19825125  1
  O  O657  1  0.17600565  0.81407895  0.44994815  1
  O  O658  1  0.17539944  0.81411205  0.69973718  1
  O  O659  1  0.17698826  0.81553959  0.94960931  1
  O  O660  1  0.67610983  0.14571888  0.20058115  1
  O  O661  1  0.67800651  0.14658236  0.44884215  1
  O  O662  1  0.67724011  0.14420595  0.70056462  1
  O  O663  1  0.67846188  0.14727626  0.94838369  1
  O  O664  1  0.67672455  0.47873940  0.19979624  1
  O  O665  1  0.67590523  0.48024474  0.45009663  1
  O  O666  1  0.67590865  0.47934314  0.70014460  1
  O  O667  1  0.67695264  0.48128387  0.94927855  1
  O  O668  1  0.67660125  0.81345340  0.20137138  1
  O  O669  1  0.67942825  0.81399558  0.44899493  1
  O  O670  1  0.67657036  0.81230287  0.69912199  1
  O  O671  1  0.67678236  0.81487563  0.94843461  1
