# generated using pymatgen
data_Na2MnFe(PO4)2
_symmetry_space_group_name_H-M   'P 1'
_cell_length_a   22.34304865
_cell_length_b   20.09250097
_cell_length_c   19.44877548
_cell_angle_alpha   89.95903691
_cell_angle_beta   89.94082554
_cell_angle_gamma   90.09593724
_symmetry_Int_Tables_number   1
_chemical_formula_structural   Na2MnFe(PO4)2
_chemical_formula_sum   'Na96 Mn48 Fe48 P96 O384'
_cell_volume   8731.07542249
_cell_formula_units_Z   48
loop_
 _symmetry_equiv_pos_site_id
 _symmetry_equiv_pos_as_xyz
  1  'x, y, z'
loop_
 _atom_site_type_symbol
 _atom_site_label
 _atom_site_symmetry_multiplicity
 _atom_site_fract_x
 _atom_site_fract_y
 _atom_site_fract_z
 _atom_site_occupancy
  Na  Na0  1  0.14093662  0.24947794  0.24302043  1
  Na  Na1  1  0.14054256  0.24981493  0.49369139  1
  Na  Na2  1  0.14045084  0.25097469  0.74357620  1
  Na  Na3  1  0.14012111  0.25058434  0.99324271  1
  Na  Na4  1  0.14045596  0.58210914  0.24389684  1
  Na  Na5  1  0.14006511  0.58340428  0.49385032  1
  Na  Na6  1  0.14037519  0.58192705  0.74388560  1
  Na  Na7  1  0.14042965  0.58256177  0.99409614  1
  Na  Na8  1  0.14062169  0.91685932  0.24359100  1
  Na  Na9  1  0.14095367  0.91748884  0.49272189  1
  Na  Na10  1  0.14034384  0.91702752  0.74375538  1
  Na  Na11  1  0.14081552  0.91726500  0.99406370  1
  Na  Na12  1  0.64036942  0.24891612  0.24369993  1
  Na  Na13  1  0.64016910  0.25075006  0.49323936  1
  Na  Na14  1  0.64096827  0.25095795  0.74251167  1
  Na  Na15  1  0.64057657  0.24902107  0.99429749  1
  Na  Na16  1  0.64040455  0.58333052  0.24470042  1
  Na  Na17  1  0.64018537  0.58438128  0.49389937  1
  Na  Na18  1  0.64060779  0.58379914  0.74231059  1
  Na  Na19  1  0.64038299  0.58335813  0.99383505  1
  Na  Na20  1  0.64113285  0.91649943  0.24344430  1
  Na  Na21  1  0.64080128  0.91706660  0.49433808  1
  Na  Na22  1  0.64042857  0.91706727  0.74325112  1
  Na  Na23  1  0.64046540  0.91665946  0.99417987  1
  Na  Na24  1  0.35930489  0.08402643  0.00598002  1
  Na  Na25  1  0.35943112  0.08298975  0.25669814  1
  Na  Na26  1  0.35978328  0.08442994  0.50542867  1
  Na  Na27  1  0.35967932  0.08391719  0.75514434  1
  Na  Na28  1  0.35988973  0.41707653  0.00720702  1
  Na  Na29  1  0.35965749  0.41618536  0.25604645  1
  Na  Na30  1  0.35930956  0.41613119  0.50728052  1
  Na  Na31  1  0.35964586  0.41681021  0.75599988  1
  Na  Na32  1  0.35915590  0.74955550  0.00680945  1
  Na  Na33  1  0.35907020  0.74953430  0.25693212  1
  Na  Na34  1  0.35938188  0.74961186  0.50609610  1
  Na  Na35  1  0.35956316  0.74964522  0.75677585  1
  Na  Na36  1  0.85921324  0.08192399  0.00706136  1
  Na  Na37  1  0.86001531  0.08190381  0.25617544  1
  Na  Na38  1  0.85973179  0.08435287  0.50627058  1
  Na  Na39  1  0.85905819  0.08315211  0.75615674  1
  Na  Na40  1  0.86014794  0.41580496  0.00730960  1
  Na  Na41  1  0.85951902  0.41634078  0.25561335  1
  Na  Na42  1  0.85881308  0.41736895  0.50770837  1
  Na  Na43  1  0.86007607  0.41689827  0.75581299  1
  Na  Na44  1  0.85879447  0.75027561  0.00589912  1
  Na  Na45  1  0.85914679  0.74922395  0.25645144  1
  Na  Na46  1  0.85954295  0.74973614  0.50690467  1
  Na  Na47  1  0.85935039  0.75114749  0.75596913  1
  Na  Na48  1  0.11046111  0.08357112  0.11802994  1
  Na  Na49  1  0.11044721  0.08381346  0.36798955  1
  Na  Na50  1  0.10988224  0.08409057  0.61846058  1
  Na  Na51  1  0.10971709  0.08509051  0.86879829  1
  Na  Na52  1  0.10945392  0.41651559  0.11824437  1
  Na  Na53  1  0.10965671  0.41670633  0.36950617  1
  Na  Na54  1  0.11023523  0.41682375  0.61854772  1
  Na  Na55  1  0.10995660  0.41703549  0.86907583  1
  Na  Na56  1  0.10968895  0.74846712  0.11906023  1
  Na  Na57  1  0.10953306  0.74938039  0.36804650  1
  Na  Na58  1  0.10963926  0.75015575  0.61966985  1
  Na  Na59  1  0.10951465  0.74847939  0.86906249  1
  Na  Na60  1  0.61025897  0.08451607  0.11863240  1
  Na  Na61  1  0.61026611  0.08370451  0.36815395  1
  Na  Na62  1  0.60982873  0.08394541  0.61829681  1
  Na  Na63  1  0.61017961  0.08262764  0.86847876  1
  Na  Na64  1  0.60976340  0.41728519  0.11886188  1
  Na  Na65  1  0.60972743  0.41647690  0.37020852  1
  Na  Na66  1  0.60992728  0.41702726  0.61644893  1
  Na  Na67  1  0.60986780  0.41696740  0.86961763  1
  Na  Na68  1  0.60958560  0.75059013  0.11907638  1
  Na  Na69  1  0.60992102  0.74966198  0.36937434  1
  Na  Na70  1  0.60998525  0.75026069  0.61863934  1
  Na  Na71  1  0.60970302  0.75138645  0.86808487  1
  Na  Na72  1  0.39018941  0.25038276  0.13091486  1
  Na  Na73  1  0.39035379  0.24980573  0.38193612  1
  Na  Na74  1  0.38988510  0.24946753  0.63092978  1
  Na  Na75  1  0.39040220  0.25025166  0.88099770  1
  Na  Na76  1  0.38974004  0.58337951  0.13155358  1
  Na  Na77  1  0.39026357  0.58212872  0.38203625  1
  Na  Na78  1  0.38992202  0.58340731  0.63138317  1
  Na  Na79  1  0.38965990  0.58276497  0.88253627  1
  Na  Na80  1  0.39006074  0.91806904  0.13231964  1
  Na  Na81  1  0.38991218  0.91650236  0.38120140  1
  Na  Na82  1  0.39055636  0.91671939  0.63026762  1
  Na  Na83  1  0.39029230  0.91720999  0.88032250  1
  Na  Na84  1  0.89072891  0.24906412  0.13100181  1
  Na  Na85  1  0.88990366  0.24945051  0.38108368  1
  Na  Na86  1  0.88993874  0.25027783  0.63144646  1
  Na  Na87  1  0.89061597  0.25099327  0.88119343  1
  Na  Na88  1  0.88994187  0.58175128  0.13095512  1
  Na  Na89  1  0.88991584  0.58255289  0.38160298  1
  Na  Na90  1  0.89007192  0.58398576  0.63183946  1
  Na  Na91  1  0.89000136  0.58180255  0.88063625  1
  Na  Na92  1  0.88973527  0.91637256  0.13182344  1
  Na  Na93  1  0.89050483  0.91652748  0.38128348  1
  Na  Na94  1  0.89047125  0.91635172  0.63142567  1
  Na  Na95  1  0.88965625  0.91680191  0.88189093  1
  Mn  Mn96  1  0.74955718  0.66648860  0.12506890  1
  Mn  Mn97  1  0.74993194  0.49968912  0.87414128  1
  Mn  Mn98  1  -0.00046226  -0.00018126  0.74989813  1
  Mn  Mn99  1  0.75021883  0.66749037  0.87448649  1
  Mn  Mn100  1  0.75010423  0.66682399  0.37537701  1
  Mn  Mn101  1  -0.00020193  0.66660676  0.75050603  1
  Mn  Mn102  1  0.74978359  0.33246427  0.12577057  1
  Mn  Mn103  1  0.25067784  0.33345440  0.87497547  1
  Mn  Mn104  1  0.25018233  0.66573366  0.37544204  1
  Mn  Mn105  1  -0.00064268  0.83323638  0.24991009  1
  Mn  Mn106  1  0.75010944  0.33352354  0.37479278  1
  Mn  Mn107  1  0.50030735  0.33360019  0.74965090  1
  Mn  Mn108  1  0.49951349  0.33284817  0.25000704  1
  Mn  Mn109  1  0.50090066  0.00020244  0.49966967  1
  Mn  Mn110  1  0.49968470  0.16770808  -0.00089276  1
  Mn  Mn111  1  0.50057258  0.66698381  0.25024102  1
  Mn  Mn112  1  0.50039251  0.00061275  0.25055543  1
  Mn  Mn113  1  -0.00066030  0.33278467  0.49966258  1
  Mn  Mn114  1  0.25006535  0.83347291  0.62494297  1
  Mn  Mn115  1  0.50021193  0.00058957  0.00018468  1
  Mn  Mn116  1  -0.00075897  0.50034664  0.50007133  1
  Mn  Mn117  1  0.24925899  0.66574761  0.62525975  1
  Mn  Mn118  1  0.50030521  0.66711882  0.75054393  1
  Mn  Mn119  1  0.50092711  0.16636933  0.75018841  1
  Mn  Mn120  1  0.50048429  0.83264596  0.50047920  1
  Mn  Mn121  1  0.49990438  0.49972876  0.25083361  1
  Mn  Mn122  1  0.00090510  0.83306776  0.49986393  1
  Mn  Mn123  1  0.24998241  0.33321198  0.12490276  1
  Mn  Mn124  1  0.24987598  0.00151873  0.87431814  1
  Mn  Mn125  1  0.75027622  -0.00021574  0.37517366  1
  Mn  Mn126  1  0.75037133  0.00034857  0.62483621  1
  Mn  Mn127  1  0.25028953  0.83303656  0.87532408  1
  Mn  Mn128  1  0.24992861  0.83305122  0.12496293  1
  Mn  Mn129  1  0.49981399  0.83405480  -0.00035052  1
  Mn  Mn130  1  0.50006243  0.50002740  0.74968133  1
  Mn  Mn131  1  0.00046510  0.33345328  0.25008215  1
  Mn  Mn132  1  0.25050723  0.00130992  0.62373854  1
  Mn  Mn133  1  0.49920485  0.66674006  0.00003353  1
  Mn  Mn134  1  -0.00015898  0.83280524  0.00030889  1
  Mn  Mn135  1  0.00071511  0.00017177  -0.00027770  1
  Mn  Mn136  1  0.74994065  0.33307147  0.87486844  1
  Mn  Mn137  1  -0.00116592  0.66491025  -0.00101028  1
  Mn  Mn138  1  -0.00051859  0.66492288  0.24902358  1
  Mn  Mn139  1  0.00065851  0.00082159  0.50078331  1
  Mn  Mn140  1  0.75072371  0.16567171  0.87456229  1
  Mn  Mn141  1  0.00089425  0.16612975  0.24983825  1
  Mn  Mn142  1  -0.00057663  0.16780358  0.75014116  1
  Mn  Mn143  1  0.24999091  0.33354673  0.37477619  1
  Fe  Fe144  1  0.49919168  0.66675258  0.50004277  1
  Fe  Fe145  1  0.24995288  0.66588347  0.12594018  1
  Fe  Fe146  1  0.75005737  0.50071701  0.62498452  1
  Fe  Fe147  1  0.74949101  0.83389683  0.87523499  1
  Fe  Fe148  1  -0.00023745  0.16699009  -0.00022045  1
  Fe  Fe149  1  0.49953283  0.83351248  0.74938219  1
  Fe  Fe150  1  0.00017289  0.49977718  0.75010313  1
  Fe  Fe151  1  0.00015503  0.16678151  0.49999241  1
  Fe  Fe152  1  0.25020957  0.16635944  0.12474565  1
  Fe  Fe153  1  0.24945443  0.16722474  0.62426911  1
  Fe  Fe154  1  0.24986826  0.16728123  0.87451834  1
  Fe  Fe155  1  0.24995535  0.00030981  0.37438737  1
  Fe  Fe156  1  0.74999164  0.50032273  0.37579832  1
  Fe  Fe157  1  0.49968985  0.33281322  0.49982003  1
  Fe  Fe158  1  0.49977242  0.50001431  0.50001876  1
  Fe  Fe159  1  0.50045222  0.50003583  0.00037803  1
  Fe  Fe160  1  0.49981935  0.83328218  0.25049710  1
  Fe  Fe161  1  0.75004081  0.33382052  0.62430772  1
  Fe  Fe162  1  0.24994326  0.49950393  0.37510348  1
  Fe  Fe163  1  0.25042361  0.16671330  0.37445590  1
  Fe  Fe164  1  0.49967731  0.00003126  0.74905119  1
  Fe  Fe165  1  0.75035560  0.83407823  0.62541048  1
  Fe  Fe166  1  0.74942187  -0.00050864  0.87559348  1
  Fe  Fe167  1  0.25029122  0.00010189  0.12523548  1
  Fe  Fe168  1  0.00051973  0.33403378  0.75075480  1
  Fe  Fe169  1  0.25050184  0.49980194  0.62546719  1
  Fe  Fe170  1  0.74984045  0.83324814  0.12518813  1
  Fe  Fe171  1  0.24965083  0.66586280  0.87578205  1
  Fe  Fe172  1  0.00015095  0.49885740  -0.00025389  1
  Fe  Fe173  1  0.00033919  0.00029942  0.25001314  1
  Fe  Fe174  1  -0.00047957  0.49924966  0.25003315  1
  Fe  Fe175  1  0.75007702  0.83328149  0.37527380  1
  Fe  Fe176  1  0.74959324  0.16721443  0.62508057  1
  Fe  Fe177  1  0.25003604  0.50002545  0.12506491  1
  Fe  Fe178  1  0.75029646  0.16536737  0.12463561  1
  Fe  Fe179  1  0.25021002  0.50011128  0.87539800  1
  Fe  Fe180  1  0.75013026  0.16653613  0.37494311  1
  Fe  Fe181  1  -0.00014485  0.33360052  -0.00014011  1
  Fe  Fe182  1  0.75017554  -0.00080869  0.12533330  1
  Fe  Fe183  1  0.74975158  0.66768496  0.62459133  1
  Fe  Fe184  1  0.74980494  0.49964411  0.12521371  1
  Fe  Fe185  1  0.00020685  0.83325937  0.75006257  1
  Fe  Fe186  1  0.24997100  0.33334459  0.62492615  1
  Fe  Fe187  1  0.50043043  0.16725320  0.25003884  1
  Fe  Fe188  1  0.49978011  0.16658617  0.49989404  1
  Fe  Fe189  1  0.50066255  0.33375578  0.00039816  1
  Fe  Fe190  1  0.24944669  0.83303210  0.37430731  1
  Fe  Fe191  1  0.00001257  0.66663664  0.50044543  1
  P  P192  1  0.04165723  0.25004336  0.10119663  1
  P  P193  1  0.04326878  0.24971223  0.35327899  1
  P  P194  1  0.04215569  0.24934502  0.60269206  1
  P  P195  1  0.04213397  0.25201554  0.85339515  1
  P  P196  1  0.04173954  0.58099139  0.10226167  1
  P  P197  1  0.04197951  0.58171430  0.35254766  1
  P  P198  1  0.04200415  0.58436636  0.60296808  1
  P  P199  1  0.04190831  0.58114372  0.85272738  1
  P  P200  1  0.04283820  0.91680482  0.10365544  1
  P  P201  1  0.04237101  0.91805243  0.35230251  1
  P  P202  1  0.04347688  0.91643355  0.60364436  1
  P  P203  1  0.04227583  0.91555408  0.85241584  1
  P  P204  1  0.54236053  0.25108418  0.10269544  1
  P  P205  1  0.54199849  0.24907885  0.35338860  1
  P  P206  1  0.54154686  0.24992347  0.60118345  1
  P  P207  1  0.54350649  0.25089815  0.85327270  1
  P  P208  1  0.54216230  0.58274870  0.10258321  1
  P  P209  1  0.54252332  0.58327615  0.35452263  1
  P  P210  1  0.54103220  0.58387859  0.60142546  1
  P  P211  1  0.54291031  0.58293531  0.85354380  1
  P  P212  1  0.54249470  0.91685819  0.10391162  1
  P  P213  1  0.54263668  0.91527422  0.35249887  1
  P  P214  1  0.54295678  0.91668533  0.60384893  1
  P  P215  1  0.54126655  0.91700978  0.85075400  1
  P  P216  1  0.45792278  0.08535731  0.14781098  1
  P  P217  1  0.45843375  0.08463253  0.39709870  1
  P  P218  1  0.45809776  0.08284371  0.64678861  1
  P  P219  1  0.45729329  0.08309347  0.89605025  1
  P  P220  1  0.45744869  0.41685526  0.14631703  1
  P  P221  1  0.45820346  0.41610488  0.39889315  1
  P  P222  1  0.45769050  0.41656169  0.64560705  1
  P  P223  1  0.45850983  0.41662975  0.89882673  1
  P  P224  1  0.45727253  0.75142424  0.14801779  1
  P  P225  1  0.45745216  0.74907094  0.39734067  1
  P  P226  1  0.45755770  0.75056359  0.64733322  1
  P  P227  1  0.45682337  0.75068132  0.89636088  1
  P  P228  1  0.95820826  0.08229208  0.14709497  1
  P  P229  1  0.95813071  0.08429551  0.39737719  1
  P  P230  1  0.95698129  0.08402883  0.64672012  1
  P  P231  1  0.95755764  0.08482566  0.89771246  1
  P  P232  1  0.95794114  0.41716011  0.14681069  1
  P  P233  1  0.95629916  0.41663777  0.39679944  1
  P  P234  1  0.95891935  0.41644249  0.64865730  1
  P  P235  1  0.95837678  0.41644656  0.89772062  1
  P  P236  1  0.95649627  0.74913054  0.14667171  1
  P  P237  1  0.95781574  0.74829049  0.39769716  1
  P  P238  1  0.95793882  0.75096344  0.64744530  1
  P  P239  1  0.95669186  0.74983181  0.89626821  1
  P  P240  1  0.20903340  0.08321404  0.22697825  1
  P  P241  1  0.20878978  0.08398927  0.47609557  1
  P  P242  1  0.20763068  0.08547020  0.72700820  1
  P  P243  1  0.20773806  0.08537424  0.97778864  1
  P  P244  1  0.20789782  0.41778053  0.22751182  1
  P  P245  1  0.20792823  0.41776535  0.47834579  1
  P  P246  1  0.20900531  0.41675790  0.72689472  1
  P  P247  1  0.20843299  0.41803517  0.97778917  1
  P  P248  1  0.20775509  0.74865330  0.22804659  1
  P  P249  1  0.20758974  0.75076732  0.47711535  1
  P  P250  1  0.20747534  0.74915033  0.72895042  1
  P  P251  1  0.20786925  0.74822662  0.97830778  1
  P  P252  1  0.70903992  0.08290420  0.22686832  1
  P  P253  1  0.70799500  0.08489397  0.47765681  1
  P  P254  1  0.70761168  0.08421804  0.72745106  1
  P  P255  1  0.70798401  0.08156406  0.97823301  1
  P  P256  1  0.70777450  0.41777140  0.22820447  1
  P  P257  1  0.70835279  0.41812025  0.47845461  1
  P  P258  1  0.70842547  0.41699504  0.72580196  1
  P  P259  1  0.70776145  0.41650202  0.97874259  1
  P  P260  1  0.70778953  0.75102905  0.22785923  1
  P  P261  1  0.70808783  0.75155691  0.47839807  1
  P  P262  1  0.70861863  0.75101819  0.72671493  1
  P  P263  1  0.70746818  0.75157555  0.97759815  1
  P  P264  1  0.29203854  0.24880172  0.02220626  1
  P  P265  1  0.29224784  0.24864518  0.27213451  1
  P  P266  1  0.29118459  0.25007868  0.52279073  1
  P  P267  1  0.29225917  0.24922587  0.77146617  1
  P  P268  1  0.29115834  0.58357632  0.02316591  1
  P  P269  1  0.29235418  0.58141819  0.27227038  1
  P  P270  1  0.29197700  0.58161711  0.52254297  1
  P  P271  1  0.29149314  0.58266347  0.77357681  1
  P  P272  1  0.29230340  0.91814450  0.02276693  1
  P  P273  1  0.29113832  0.91693001  0.27293684  1
  P  P274  1  0.29256415  0.91695275  0.52035555  1
  P  P275  1  0.29265985  0.91727138  0.77166471  1
  P  P276  1  0.79242048  0.24813225  0.02282620  1
  P  P277  1  0.79204269  0.24807243  0.27213298  1
  P  P278  1  0.79113525  0.25002372  0.52298468  1
  P  P279  1  0.79263868  0.25019515  0.77073745  1
  P  P280  1  0.79197185  0.58217074  0.02255327  1
  P  P281  1  0.79185309  0.58169849  0.27257864  1
  P  P282  1  0.79125304  0.58377146  0.52341019  1
  P  P283  1  0.79236539  0.58383047  0.77048973  1
  P  P284  1  0.79112683  0.91619478  0.02308629  1
  P  P285  1  0.79225330  0.91502565  0.27226168  1
  P  P286  1  0.79253605  0.91561394  0.52235991  1
  P  P287  1  0.79121690  0.91697432  0.77348455  1
  O  O288  1  0.03697657  0.24992094  0.18122885  1
  O  O289  1  0.03808715  0.24921129  0.43320633  1
  O  O290  1  0.03708157  0.25008757  0.68262355  1
  O  O291  1  0.03656005  0.25168875  0.93327101  1
  O  O292  1  0.03654463  0.58078004  0.18221192  1
  O  O293  1  0.03672584  0.58290970  0.43249185  1
  O  O294  1  0.03680560  0.58372922  0.68290230  1
  O  O295  1  0.03659227  0.58071962  0.93264341  1
  O  O296  1  0.03744906  0.91744602  0.18361710  1
  O  O297  1  0.03754475  0.91776031  0.43231331  1
  O  O298  1  0.03810495  0.91591712  0.68359990  1
  O  O299  1  0.03722234  0.91598650  0.93242089  1
  O  O300  1  0.53708389  0.25021430  0.18266106  1
  O  O301  1  0.53639549  0.24919636  0.43327962  1
  O  O302  1  0.53692765  0.24990202  0.68119759  1
  O  O303  1  0.53833975  0.25152872  0.93323078  1
  O  O304  1  0.53742377  0.58286482  0.18261082  1
  O  O305  1  0.53697450  0.58365104  0.43440658  1
  O  O306  1  0.53660623  0.58365974  0.68148806  1
  O  O307  1  0.53781817  0.58252432  0.93352415  1
  O  O308  1  0.53726264  0.91623679  0.18385192  1
  O  O309  1  0.53780644  0.91557089  0.43249499  1
  O  O310  1  0.53732709  0.91687479  0.68371749  1
  O  O311  1  0.53641390  0.91709397  0.93080383  1
  O  O312  1  0.46289222  0.08498781  0.06780368  1
  O  O313  1  0.46372625  0.08488387  0.31715996  1
  O  O314  1  0.46343891  0.08359655  0.56681993  1
  O  O315  1  0.46254781  0.08245793  0.81609730  1
  O  O316  1  0.46291787  0.41691038  0.06642557  1
  O  O317  1  0.46279647  0.41630284  0.31887699  1
  O  O318  1  0.46288799  0.41621028  0.56571693  1
  O  O319  1  0.46332941  0.41689457  0.81876507  1
  O  O320  1  0.46206874  0.75116092  0.06799080  1
  O  O321  1  0.46291554  0.74982374  0.31740236  1
  O  O322  1  0.46273215  0.74957967  0.56736138  1
  O  O323  1  0.46199854  0.75107932  0.81638040  1
  O  O324  1  0.96325789  0.08313854  0.06716086  1
  O  O325  1  0.96344568  0.08337257  0.31740773  1
  O  O326  1  0.96234335  0.08442622  0.56677098  1
  O  O327  1  0.96238145  0.08460386  0.81772647  1
  O  O328  1  0.96344224  0.41673149  0.06690935  1
  O  O329  1  0.96140093  0.41687810  0.31686015  1
  O  O330  1  0.96329775  0.41655589  0.56866494  1
  O  O331  1  0.96356465  0.41648652  0.81778945  1
  O  O332  1  0.96139875  0.74913956  0.06670166  1
  O  O333  1  0.96267335  0.74837671  0.31770055  1
  O  O334  1  0.96352599  0.75017818  0.56752284  1
  O  O335  1  0.96209953  0.75052398  0.81632194  1
  O  O336  1  0.21322177  0.08489975  0.05763308  1
  O  O337  1  0.21433547  0.08290079  0.30684175  1
  O  O338  1  0.21357479  0.08450285  0.55605199  1
  O  O339  1  0.21277908  0.08560540  0.80694292  1
  O  O340  1  0.21354913  0.41806667  0.05769297  1
  O  O341  1  0.21309979  0.41765027  0.30745828  1
  O  O342  1  0.21345560  0.41744434  0.55820167  1
  O  O343  1  0.21384237  0.41662208  0.80684373  1
  O  O344  1  0.21305863  0.74803116  0.05829989  1
  O  O345  1  0.21332518  0.74941187  0.30796535  1
  O  O346  1  0.21236202  0.75059820  0.55711933  1
  O  O347  1  0.21289630  0.74849430  0.80889061  1
  O  O348  1  0.71347238  0.08175572  0.05809400  1
  O  O349  1  0.71369775  0.08310324  0.30685784  1
  O  O350  1  0.71318710  0.08491146  0.55755928  1
  O  O351  1  0.71283229  0.08326049  0.80734742  1
  O  O352  1  0.71294575  0.41682562  0.05870371  1
  O  O353  1  0.71331111  0.41787227  0.30814162  1
  O  O354  1  0.71398761  0.41781878  0.55830296  1
  O  O355  1  0.71296181  0.41636430  0.80585339  1
  O  O356  1  0.71259833  0.75138733  0.05754399  1
  O  O357  1  0.71309838  0.75088850  0.30779960  1
  O  O358  1  0.71357249  0.75141601  0.55825106  1
  O  O359  1  0.71331371  0.75085405  0.80667936  1
  O  O360  1  0.28702061  0.24856291  0.19222358  1
  O  O361  1  0.28666513  0.25049333  0.44281995  1
  O  O362  1  0.28652207  0.24959852  0.69162401  1
  O  O363  1  0.28695227  0.24904676  0.94225981  1
  O  O364  1  0.28681937  0.58188566  0.19239265  1
  O  O365  1  0.28690912  0.58160606  0.44262666  1
  O  O366  1  0.28672602  0.58229013  0.69358242  1
  O  O367  1  0.28599074  0.58379629  0.94325155  1
  O  O368  1  0.28635940  0.91709560  0.19293629  1
  O  O369  1  0.28698114  0.91673417  0.44044991  1
  O  O370  1  0.28760735  0.91725539  0.69169404  1
  O  O371  1  0.28711024  0.91811169  0.94283541  1
  O  O372  1  0.78664060  0.24787341  0.19223699  1
  O  O373  1  0.78650822  0.25011566  0.44297607  1
  O  O374  1  0.78710174  0.25035506  0.69084678  1
  O  O375  1  0.78743768  0.24856141  0.94285271  1
  O  O376  1  0.78627701  0.58162306  0.19266970  1
  O  O377  1  0.78655898  0.58361363  0.44340434  1
  O  O378  1  0.78690433  0.58400178  0.69061001  1
  O  O379  1  0.78702004  0.58276281  0.94255634  1
  O  O380  1  0.78684745  0.91518715  0.19241179  1
  O  O381  1  0.78713249  0.91555325  0.44246822  1
  O  O382  1  0.78645132  0.91686408  0.69350678  1
  O  O383  1  0.78600079  0.91659509  0.94319193  1
  O  O384  1  0.22780253  0.24867840  0.05805827  1
  O  O385  1  0.22798997  0.24909732  0.30786801  1
  O  O386  1  0.22702365  0.24958739  0.55875432  1
  O  O387  1  0.22821797  0.24923635  0.80804415  1
  O  O388  1  0.22715322  0.58374612  0.05969231  1
  O  O389  1  0.22819154  0.58108060  0.30853373  1
  O  O390  1  0.22766732  0.58114517  0.55824764  1
  O  O391  1  0.22725446  0.58224627  0.80945615  1
  O  O392  1  0.22801747  0.91793256  0.05843442  1
  O  O393  1  0.22701296  0.91744507  0.30896170  1
  O  O394  1  0.22841100  0.91726744  0.55635962  1
  O  O395  1  0.22831960  0.91705984  0.80696005  1
  O  O396  1  0.72809287  0.24788230  0.05838652  1
  O  O397  1  0.72788980  0.24835014  0.30823080  1
  O  O398  1  0.72695715  0.24959438  0.55890577  1
  O  O399  1  0.72845563  0.24961429  0.80667031  1
  O  O400  1  0.72764641  0.58191980  0.05810958  1
  O  O401  1  0.72774079  0.58199894  0.30880148  1
  O  O402  1  0.72706169  0.58308052  0.55923577  1
  O  O403  1  0.72819503  0.58377844  0.80644075  1
  O  O404  1  0.72713411  0.91590091  0.05957747  1
  O  O405  1  0.72812452  0.91490877  0.30858222  1
  O  O406  1  0.72832785  0.91555956  0.55831130  1
  O  O407  1  0.72698122  0.91729354  0.80946584  1
  O  O408  1  0.27305933  0.08358181  0.19045104  1
  O  O409  1  0.27296887  0.08323585  0.44014472  1
  O  O410  1  0.27192883  0.08590854  0.69122090  1
  O  O411  1  0.27190198  0.08583804  0.94151671  1
  O  O412  1  0.27213726  0.41751229  0.19170905  1
  O  O413  1  0.27204563  0.41814231  0.44191754  1
  O  O414  1  0.27313700  0.41710758  0.69085719  1
  O  O415  1  0.27266762  0.41815046  0.94188965  1
  O  O416  1  0.27187299  0.74837263  0.19186617  1
  O  O417  1  0.27196997  0.75056369  0.44185901  1
  O  O418  1  0.27166298  0.74922240  0.69315584  1
  O  O419  1  0.27206503  0.74825590  0.94240662  1
  O  O420  1  0.77318442  0.08311803  0.19090133  1
  O  O421  1  0.77225120  0.08466928  0.44179558  1
  O  O422  1  0.77186949  0.08525726  0.69159033  1
  O  O423  1  0.77211134  0.08093492  0.94192523  1
  O  O424  1  0.77191352  0.41760071  0.19205199  1
  O  O425  1  0.77233778  0.41817201  0.44190264  1
  O  O426  1  0.77278614  0.41789590  0.69046716  1
  O  O427  1  0.77205947  0.41644577  0.94317328  1
  O  O428  1  0.77197021  0.75091404  0.19189268  1
  O  O429  1  0.77218709  0.75183783  0.44200819  1
  O  O430  1  0.77278693  0.75128227  0.69075307  1
  O  O431  1  0.77176287  0.75188304  0.94184034  1
  O  O432  1  0.02257454  0.08160956  0.18258306  1
  O  O433  1  0.02240931  0.08525988  0.43308872  1
  O  O434  1  0.02126328  0.08381066  0.68201780  1
  O  O435  1  0.02201879  0.08523359  0.93277369  1
  O  O436  1  0.02206511  0.41807133  0.18300509  1
  O  O437  1  0.02073516  0.41665909  0.43177657  1
  O  O438  1  0.02319145  0.41612680  0.68416402  1
  O  O439  1  0.02250732  0.41632225  0.93394204  1
  O  O440  1  0.02094921  0.74928704  0.18152040  1
  O  O441  1  0.02225273  0.74794011  0.43289521  1
  O  O442  1  0.02206232  0.75144706  0.68350976  1
  O  O443  1  0.02102000  0.74907005  0.93157134  1
  O  O444  1  0.52230340  0.08530478  0.18316062  1
  O  O445  1  0.52266841  0.08503425  0.43277029  1
  O  O446  1  0.52230270  0.08201450  0.68256991  1
  O  O447  1  0.52166301  0.08373428  0.93127787  1
  O  O448  1  0.52162496  0.41649532  0.18207019  1
  O  O449  1  0.52242482  0.41566893  0.43441571  1
  O  O450  1  0.52204247  0.41684959  0.68101095  1
  O  O451  1  0.52277081  0.41635758  0.93447674  1
  O  O452  1  0.52178190  0.75195816  0.18301975  1
  O  O453  1  0.52170611  0.74801710  0.43307681  1
  O  O454  1  0.52185584  0.75140453  0.68289683  1
  O  O455  1  0.52120712  0.75022685  0.93150197  1
  O  O456  1  0.47816005  0.25204927  0.06683670  1
  O  O457  1  0.47786569  0.24827808  0.31723676  1
  O  O458  1  0.47721935  0.25017845  0.56571569  1
  O  O459  1  0.47906725  0.25019472  0.81826670  1
  O  O460  1  0.47774977  0.58236283  0.06745623  1
  O  O461  1  0.47835713  0.58361226  0.31875543  1
  O  O462  1  0.47677889  0.58408149  0.56595663  1
  O  O463  1  0.47845014  0.58325750  0.81859160  1
  O  O464  1  0.47814359  0.91717142  0.06865139  1
  O  O465  1  0.47823031  0.91563322  0.31732486  1
  O  O466  1  0.47881949  0.91674570  0.56802952  1
  O  O467  1  0.47704691  0.91692465  0.81503860  1
  O  O468  1  0.97741897  0.25001428  0.06559295  1
  O  O469  1  0.97891549  0.24966471  0.31815062  1
  O  O470  1  0.97782892  0.24827537  0.56703714  1
  O  O471  1  0.97801351  0.25262551  0.81727294  1
  O  O472  1  0.97746213  0.58051603  0.06662016  1
  O  O473  1  0.97764736  0.58086455  0.31693241  1
  O  O474  1  0.97769933  0.58497705  0.56732039  1
  O  O475  1  0.97772094  0.58156560  0.81700651  1
  O  O476  1  0.97849141  0.91683093  0.06838682  1
  O  O477  1  0.97799196  0.91831088  0.31702729  1
  O  O478  1  0.97914584  0.91655832  0.56839256  1
  O  O479  1  0.97787838  0.91504974  0.81709499  1
  O  O480  1  0.07248790  0.31389581  0.07331515  1
  O  O481  1  0.07414396  0.31353240  0.32525515  1
  O  O482  1  0.07284343  0.31311311  0.57438008  1
  O  O483  1  0.07347283  0.31529912  0.82464257  1
  O  O484  1  0.07227334  0.64516216  0.07454237  1
  O  O485  1  0.07307854  0.64511772  0.32385524  1
  O  O486  1  0.07288981  0.64798539  0.57452113  1
  O  O487  1  0.07327818  0.64488268  0.82537110  1
  O  O488  1  0.07441402  0.97978719  0.07478447  1
  O  O489  1  0.07316183  0.98166106  0.32391012  1
  O  O490  1  0.07449323  0.98023949  0.57578546  1
  O  O491  1  0.07308055  0.97950030  0.82464131  1
  O  O492  1  0.57358924  0.31465405  0.07476180  1
  O  O493  1  0.57276764  0.31303190  0.32542485  1
  O  O494  1  0.57255579  0.31353074  0.57298471  1
  O  O495  1  0.57448105  0.31419849  0.82423486  1
  O  O496  1  0.57297161  0.64664764  0.07477365  1
  O  O497  1  0.57423931  0.64630938  0.32572332  1
  O  O498  1  0.57205632  0.64759385  0.57360118  1
  O  O499  1  0.57404508  0.64657825  0.82537365  1
  O  O500  1  0.57346364  0.98068376  0.07602364  1
  O  O501  1  0.57402810  0.97891460  0.32485605  1
  O  O502  1  0.57441441  0.97992740  0.57514894  1
  O  O503  1  0.57209347  0.98077151  0.82262916  1
  O  O504  1  0.42676277  0.02176289  0.17586848  1
  O  O505  1  0.42772564  0.02048601  0.42449679  1
  O  O506  1  0.42692471  0.01923557  0.67480456  1
  O  O507  1  0.42624630  0.01987054  0.92506952  1
  O  O508  1  0.42595786  0.35351630  0.17480050  1
  O  O509  1  0.42686455  0.35252269  0.42667220  1
  O  O510  1  0.42663767  0.35318345  0.67451152  1
  O  O511  1  0.42752844  0.35289503  0.92675361  1
  O  O512  1  0.42666439  0.68743929  0.17586174  1
  O  O513  1  0.42612744  0.68563404  0.42559018  1
  O  O514  1  0.42653539  0.68704612  0.67582024  1
  O  O515  1  0.42570923  0.68704620  0.92452596  1
  O  O516  1  0.92732312  0.01871194  0.17562151  1
  O  O517  1  0.92711045  0.02073138  0.42571996  1
  O  O518  1  0.92590294  0.02023317  0.67463134  1
  O  O519  1  0.92673622  0.02094522  0.92551098  1
  O  O520  1  0.92725363  0.35319026  0.17494130  1
  O  O521  1  0.92540985  0.35289013  0.42501783  1
  O  O522  1  0.92785146  0.35289186  0.67681171  1
  O  O523  1  0.92728727  0.35294736  0.92645702  1
  O  O524  1  0.92553218  0.68546670  0.17468720  1
  O  O525  1  0.92691102  0.68484054  0.42641109  1
  O  O526  1  0.92663638  0.68750601  0.67554851  1
  O  O527  1  0.92536199  0.68607125  0.92378313  1
  O  O528  1  0.17836047  0.01946680  0.19831726  1
  O  O529  1  0.17744040  0.02045732  0.44821448  1
  O  O530  1  0.17701825  0.02142868  0.69927037  1
  O  O531  1  0.17660338  0.02171057  0.94964352  1
  O  O532  1  0.17670241  0.35401589  0.19980031  1
  O  O533  1  0.17694894  0.35404148  0.45016802  1
  O  O534  1  0.17869019  0.35276971  0.69829118  1
  O  O535  1  0.17756992  0.35417352  0.95006985  1
  O  O536  1  0.17693977  0.68482050  0.20028077  1
  O  O537  1  0.17631221  0.68713109  0.44951095  1
  O  O538  1  0.17607296  0.68590260  0.70043726  1
  O  O539  1  0.17679011  0.68496563  0.94950992  1
  O  O540  1  0.67871201  0.01877545  0.19877622  1
  O  O541  1  0.67686768  0.02108699  0.45001720  1
  O  O542  1  0.67696649  0.02057282  0.69893936  1
  O  O543  1  0.67665642  0.01831370  0.94954296  1
  O  O544  1  0.67666502  0.35379070  0.20100253  1
  O  O545  1  0.67697073  0.35462133  0.45042326  1
  O  O546  1  0.67836713  0.35300536  0.69701284  1
  O  O547  1  0.67684452  0.35273360  0.95083989  1
  O  O548  1  0.67662984  0.68723159  0.20016216  1
  O  O549  1  0.67710680  0.68777675  0.45039256  1
  O  O550  1  0.67824355  0.68703720  0.69812442  1
  O  O551  1  0.67663200  0.68774021  0.94967686  1
  O  O552  1  0.32289431  0.31268143  0.05003811  1
  O  O553  1  0.32359913  0.31227055  0.29984343  1
  O  O554  1  0.32132891  0.31403131  0.55166072  1
  O  O555  1  0.32370070  0.31274031  0.79956133  1
  O  O556  1  0.32243117  0.64689237  0.05187692  1
  O  O557  1  0.32340609  0.64508046  0.30040829  1
  O  O558  1  0.32250076  0.64572206  0.55028901  1
  O  O559  1  0.32179255  0.64669592  0.80183736  1
  O  O560  1  0.32293200  0.98176662  0.05133745  1
  O  O561  1  0.32282378  0.98006167  0.30121637  1
  O  O562  1  0.32401000  0.98043145  0.54837994  1
  O  O563  1  0.32359284  0.98094245  0.79950201  1
  O  O564  1  0.82346013  0.31170788  0.05086799  1
  O  O565  1  0.82324055  0.31190601  0.29957987  1
  O  O566  1  0.82132907  0.31428057  0.55121426  1
  O  O567  1  0.82353920  0.31377013  0.79927028  1
  O  O568  1  0.82293920  0.64588031  0.05050217  1
  O  O569  1  0.82309930  0.64550970  0.30008348  1
  O  O570  1  0.82114355  0.64812659  0.55162793  1
  O  O571  1  0.82367910  0.64710998  0.79900279  1
  O  O572  1  0.82179786  0.97990505  0.05197522  1
  O  O573  1  0.82333381  0.97876698  0.30023776  1
  O  O574  1  0.82342591  0.97962804  0.54984352  1
  O  O575  1  0.82213415  0.98066022  0.80165137  1
  O  O576  1  0.42744762  0.14901252  0.17604494  1
  O  O577  1  0.42715680  0.14761237  0.42604866  1
  O  O578  1  0.42732896  0.14642843  0.67502984  1
  O  O579  1  0.42621024  0.14673932  0.92375940  1
  O  O580  1  0.42646131  0.48018204  0.17500478  1
  O  O581  1  0.42810876  0.48009019  0.42730306  1
  O  O582  1  0.42654861  0.47992389  0.67405661  1
  O  O583  1  0.42815460  0.48048908  0.92715621  1
  O  O584  1  0.42643323  0.81477842  0.17667325  1
  O  O585  1  0.42679432  0.81272725  0.42554344  1
  O  O586  1  0.42668363  0.81424958  0.67521054  1
  O  O587  1  0.42580083  0.81396343  0.92482721  1
  O  O588  1  0.92736871  0.14579849  0.17548122  1
  O  O589  1  0.92721181  0.14788900  0.42541715  1
  O  O590  1  0.92567675  0.14707874  0.67521693  1
  O  O591  1  0.92689065  0.14832275  0.92620173  1
  O  O592  1  0.92652904  0.48019861  0.17541630  1
  O  O593  1  0.92510786  0.47966991  0.42566519  1
  O  O594  1  0.92870799  0.48047920  0.67685663  1
  O  O595  1  0.92750284  0.48000208  0.92616258  1
  O  O596  1  0.92554630  0.81249832  0.17505887  1
  O  O597  1  0.92720065  0.81218458  0.42539109  1
  O  O598  1  0.92720538  0.81465127  0.67550917  1
  O  O599  1  0.92579985  0.81305654  0.92504318  1
  O  O600  1  0.07229460  0.18631301  0.07305689  1
  O  O601  1  0.07468907  0.18680527  0.32440437  1
  O  O602  1  0.07314313  0.18593556  0.57430644  1
  O  O603  1  0.07294666  0.18839199  0.82515903  1
  O  O604  1  0.07307130  0.51804085  0.07343611  1
  O  O605  1  0.07272743  0.51801694  0.32459377  1
  O  O606  1  0.07288068  0.52082791  0.57477249  1
  O  O607  1  0.07258484  0.51784655  0.82363033  1
  O  O608  1  0.07359766  0.85292874  0.07602638  1
  O  O609  1  0.07307139  0.85421481  0.32458654  1
  O  O610  1  0.07479748  0.85341440  0.57491325  1
  O  O611  1  0.07315827  0.85202965  0.82439242  1
  O  O612  1  0.57308829  0.18750437  0.07435934  1
  O  O613  1  0.57337431  0.18608342  0.32444579  1
  O  O614  1  0.57191952  0.18601842  0.57315171  1
  O  O615  1  0.57464857  0.18734542  0.82541310  1
  O  O616  1  0.57295100  0.51934578  0.07400603  1
  O  O617  1  0.57332111  0.51955664  0.32646203  1
  O  O618  1  0.57131553  0.51998693  0.57299104  1
  O  O619  1  0.57397717  0.51979375  0.82466342  1
  O  O620  1  0.57361396  0.85378720  0.07498480  1
  O  O621  1  0.57285478  0.85154543  0.32406264  1
  O  O622  1  0.57407462  0.85325680  0.57563643  1
  O  O623  1  0.57192538  0.85317280  0.82287523  1
  O  O624  1  0.32309514  0.18562639  0.05087740  1
  O  O625  1  0.32280060  0.18522094  0.30111854  1
  O  O626  1  0.32241956  0.18662478  0.55065636  1
  O  O627  1  0.32315006  0.18583851  0.80002806  1
  O  O628  1  0.32181017  0.51968702  0.05126774  1
  O  O629  1  0.32341550  0.51810555  0.30084657  1
  O  O630  1  0.32320985  0.51864476  0.55144030  1
  O  O631  1  0.32276195  0.51936196  0.80208935  1
  O  O632  1  0.32347079  0.85452174  0.05035638  1
  O  O633  1  0.32102837  0.85260379  0.30104630  1
  O  O634  1  0.32364479  0.85363153  0.54902470  1
  O  O635  1  0.32371590  0.85388634  0.79986091  1
  O  O636  1  0.82310126  0.18449118  0.05094304  1
  O  O637  1  0.82285814  0.18477388  0.30096561  1
  O  O638  1  0.82241573  0.18684029  0.55138900  1
  O  O639  1  0.82419417  0.18703568  0.79903513  1
  O  O640  1  0.82263019  0.51857735  0.05080050  1
  O  O641  1  0.82270882  0.51844846  0.30136564  1
  O  O642  1  0.82298594  0.52078812  0.55175445  1
  O  O643  1  0.82348263  0.52031999  0.79869339  1
  O  O644  1  0.82241546  0.85277358  0.05124164  1
  O  O645  1  0.82326588  0.85177340  0.30104225  1
  O  O646  1  0.82361696  0.85255121  0.55126100  1
  O  O647  1  0.82173791  0.85329728  0.80198917  1
  O  O648  1  0.17779355  0.14672554  0.19889008  1
  O  O649  1  0.17849736  0.14779182  0.44739640  1
  O  O650  1  0.17638936  0.14853871  0.69825296  1
  O  O651  1  0.17672459  0.14865066  0.94902992  1
  O  O652  1  0.17715652  0.48107596  0.19870169  1
  O  O653  1  0.17671618  0.48094360  0.44967796  1
  O  O654  1  0.17767712  0.48005930  0.69873697  1
  O  O655  1  0.17744002  0.48121669  0.94897190  1
  O  O656  1  0.17646778  0.81199051  0.19990800  1
  O  O657  1  0.17718758  0.81436684  0.44830376  1
  O  O658  1  0.17656432  0.81284434  0.70121280  1
  O  O659  1  0.17698684  0.81217357  0.95084791  1
  O  O660  1  0.67778980  0.14615931  0.19837205  1
  O  O661  1  0.67730105  0.14820580  0.44874971  1
  O  O662  1  0.67643211  0.14765701  0.69941793  1
  O  O663  1  0.67715360  0.14523361  0.95008883  1
  O  O664  1  0.67684392  0.48101871  0.19943154  1
  O  O665  1  0.67747150  0.48166500  0.45017072  1
  O  O666  1  0.67699376  0.48041041  0.69815173  1
  O  O667  1  0.67657407  0.47967549  0.95012568  1
  O  O668  1  0.67695093  0.81429600  0.19912815  1
  O  O669  1  0.67693605  0.81474337  0.44966845  1
  O  O670  1  0.67751333  0.81445985  0.69861356  1
  O  O671  1  0.67651831  0.81484849  0.94878488  1
