# generated using pymatgen
data_Na2MnFe(PO4)2
_symmetry_space_group_name_H-M   'P 1'
_cell_length_a   22.34566223
_cell_length_b   20.09739441
_cell_length_c   19.44668198
_cell_angle_alpha   89.95099451
_cell_angle_beta   90.01514699
_cell_angle_gamma   89.98530822
_symmetry_Int_Tables_number   1
_chemical_formula_structural   Na2MnFe(PO4)2
_chemical_formula_sum   'Na96 Mn48 Fe48 P96 O384'
_cell_volume   8733.29859341
_cell_formula_units_Z   48
loop_
 _symmetry_equiv_pos_site_id
 _symmetry_equiv_pos_as_xyz
  1  'x, y, z'
loop_
 _atom_site_type_symbol
 _atom_site_label
 _atom_site_symmetry_multiplicity
 _atom_site_fract_x
 _atom_site_fract_y
 _atom_site_fract_z
 _atom_site_occupancy
  Na  Na0  1  0.13995755  0.25040694  0.24419374  1
  Na  Na1  1  0.14008570  0.25035705  0.49334369  1
  Na  Na2  1  0.14026110  0.25021599  0.74453240  1
  Na  Na3  1  0.14000721  0.24939387  0.99442307  1
  Na  Na4  1  0.13962273  0.58384690  0.24249591  1
  Na  Na5  1  0.14048945  0.58351937  0.49439190  1
  Na  Na6  1  0.14065552  0.58483637  0.74356599  1
  Na  Na7  1  0.13977335  0.58437031  0.99396788  1
  Na  Na8  1  0.14007688  0.91729690  0.24270353  1
  Na  Na9  1  0.14063977  0.91672282  0.49406600  1
  Na  Na10  1  0.14091108  0.91518597  0.74459897  1
  Na  Na11  1  0.14030905  0.91756070  0.99395169  1
  Na  Na12  1  0.63951314  0.25005272  0.24301713  1
  Na  Na13  1  0.64042437  0.24910679  0.49359418  1
  Na  Na14  1  0.63986487  0.25000450  0.74443041  1
  Na  Na15  1  0.63979166  0.24908709  0.99215395  1
  Na  Na16  1  0.63998960  0.58394846  0.24313494  1
  Na  Na17  1  0.64057436  0.58315472  0.49183184  1
  Na  Na18  1  0.64083208  0.58465217  0.74440927  1
  Na  Na19  1  0.63984829  0.58365804  0.99385861  1
  Na  Na20  1  0.64071596  0.91565365  0.24368093  1
  Na  Na21  1  0.64062872  0.91606342  0.49365357  1
  Na  Na22  1  0.64074502  0.91884409  0.74423977  1
  Na  Na23  1  0.64080106  0.91613915  0.99248527  1
  Na  Na24  1  0.36050770  0.08373812  0.00611512  1
  Na  Na25  1  0.36014206  0.08497443  0.25612541  1
  Na  Na26  1  0.35984044  0.08268032  0.50622809  1
  Na  Na27  1  0.36040388  0.08255162  0.75745054  1
  Na  Na28  1  0.35939152  0.41593862  0.00730354  1
  Na  Na29  1  0.35934663  0.41619985  0.25626501  1
  Na  Na30  1  0.35971764  0.41623352  0.50534342  1
  Na  Na31  1  0.35959461  0.41578698  0.75628758  1
  Na  Na32  1  0.36044188  0.74950036  0.00681348  1
  Na  Na33  1  0.36009455  0.74893939  0.25491370  1
  Na  Na34  1  0.35951620  0.74900926  0.50622146  1
  Na  Na35  1  0.36038744  0.74957473  0.75589664  1
  Na  Na36  1  0.86017850  0.08245367  0.00691355  1
  Na  Na37  1  0.85979092  0.08285138  0.25695359  1
  Na  Na38  1  0.85916108  0.08196400  0.50541395  1
  Na  Na39  1  0.85948519  0.08476577  0.75768395  1
  Na  Na40  1  0.85889115  0.41748967  0.00590075  1
  Na  Na41  1  0.85888518  0.41742530  0.25658367  1
  Na  Na42  1  0.85901287  0.41581400  0.50525911  1
  Na  Na43  1  0.85925630  0.41748629  0.75640782  1
  Na  Na44  1  0.86013985  0.74938269  0.00700348  1
  Na  Na45  1  0.85958550  0.74992538  0.25699396  1
  Na  Na46  1  0.85970352  0.74946259  0.50532334  1
  Na  Na47  1  0.86025544  0.75156140  0.75645135  1
  Na  Na48  1  0.10962797  0.08413520  0.11964857  1
  Na  Na49  1  0.10933635  0.08313116  0.36780111  1
  Na  Na50  1  0.10935675  0.08404341  0.61944614  1
  Na  Na51  1  0.10960595  0.08332806  0.86987854  1
  Na  Na52  1  0.10880961  0.41732854  0.11843263  1
  Na  Na53  1  0.10921384  0.41584698  0.36880286  1
  Na  Na54  1  0.10943586  0.41795957  0.61839601  1
  Na  Na55  1  0.10915364  0.41853392  0.86945720  1
  Na  Na56  1  0.10935500  0.75006291  0.11834910  1
  Na  Na57  1  0.10939681  0.75021349  0.36873091  1
  Na  Na58  1  0.11042547  0.75023874  0.61936984  1
  Na  Na59  1  0.11017670  0.75007076  0.86867647  1
  Na  Na60  1  0.60954078  0.08399656  0.11749289  1
  Na  Na61  1  0.60939151  0.08301035  0.36874501  1
  Na  Na62  1  0.61017535  0.08384524  0.61981647  1
  Na  Na63  1  0.60997411  0.08383931  0.86818347  1
  Na  Na64  1  0.60908522  0.41612677  0.11929432  1
  Na  Na65  1  0.60942128  0.41636281  0.36628455  1
  Na  Na66  1  0.60967669  0.41573341  0.61895264  1
  Na  Na67  1  0.60913061  0.41461619  0.86898419  1
  Na  Na68  1  0.61019149  0.75002765  0.11757006  1
  Na  Na69  1  0.61000145  0.74940117  0.36761577  1
  Na  Na70  1  0.61022048  0.75118614  0.61817051  1
  Na  Na71  1  0.61029929  0.75049561  0.86945749  1
  Na  Na72  1  0.39057328  0.25009712  0.13138414  1
  Na  Na73  1  0.38987602  0.24925269  0.38067415  1
  Na  Na74  1  0.39052301  0.24868707  0.63157667  1
  Na  Na75  1  0.39060910  0.24855309  0.88190712  1
  Na  Na76  1  0.39034635  0.58288213  0.13198787  1
  Na  Na77  1  0.39009091  0.58287657  0.37981591  1
  Na  Na78  1  0.39035153  0.58216379  0.63177654  1
  Na  Na79  1  0.39069440  0.58289398  0.88184792  1
  Na  Na80  1  0.39130497  0.91669024  0.12980854  1
  Na  Na81  1  0.39056700  0.91654074  0.38092659  1
  Na  Na82  1  0.39067320  0.91727017  0.63158181  1
  Na  Na83  1  0.39148451  0.91653411  0.88186614  1
  Na  Na84  1  0.88995514  0.24890383  0.13069310  1
  Na  Na85  1  0.88995052  0.24928173  0.38132836  1
  Na  Na86  1  0.88981596  0.25078791  0.63127497  1
  Na  Na87  1  0.88989556  0.25001491  0.88253619  1
  Na  Na88  1  0.88976911  0.58497546  0.13149145  1
  Na  Na89  1  0.88967879  0.58338742  0.38145421  1
  Na  Na90  1  0.89030310  0.58498396  0.63034091  1
  Na  Na91  1  0.89048946  0.58509569  0.88136537  1
  Na  Na92  1  0.89069760  0.91657604  0.13281243  1
  Na  Na93  1  0.88997794  0.91551937  0.38085358  1
  Na  Na94  1  0.89008941  0.91570249  0.63147485  1
  Na  Na95  1  0.89084779  0.91646923  0.88223513  1
  Mn  Mn96  1  0.49965554  0.83409556  0.49940238  1
  Mn  Mn97  1  0.25042536  -0.00022953  0.87519378  1
  Mn  Mn98  1  -0.00047706  -0.00062157  0.75041257  1
  Mn  Mn99  1  0.75028405  0.66804804  0.62379391  1
  Mn  Mn100  1  0.74992809  0.50092697  0.87532732  1
  Mn  Mn101  1  0.74927000  0.16622387  0.37481047  1
  Mn  Mn102  1  0.25053329  0.00073736  0.37455430  1
  Mn  Mn103  1  0.24942815  -0.00100436  0.62578488  1
  Mn  Mn104  1  -0.00093688  0.16711289  0.49967422  1
  Mn  Mn105  1  -0.00025593  0.50059034  0.49955202  1
  Mn  Mn106  1  0.74882647  0.50085317  0.12522439  1
  Mn  Mn107  1  0.49963118  0.49921217  0.00051746  1
  Mn  Mn108  1  0.75065553  0.83358044  0.87519687  1
  Mn  Mn109  1  0.25071405  0.00121939  0.12427093  1
  Mn  Mn110  1  0.74969349  0.50018082  0.62454568  1
  Mn  Mn111  1  0.24913519  0.33256022  0.87596772  1
  Mn  Mn112  1  0.50062939  0.00044026  0.24920713  1
  Mn  Mn113  1  0.00003211  -0.00050687  0.49985215  1
  Mn  Mn114  1  0.25068693  0.83322035  0.12481040  1
  Mn  Mn115  1  0.24980545  0.66596954  0.37541594  1
  Mn  Mn116  1  0.74968826  0.33337900  0.12468052  1
  Mn  Mn117  1  0.50038267  0.66624664  0.49955406  1
  Mn  Mn118  1  0.24950114  0.33318079  0.12530435  1
  Mn  Mn119  1  -0.00036014  0.33393056  0.00010537  1
  Mn  Mn120  1  -0.00028486  0.33460667  0.75086489  1
  Mn  Mn121  1  0.50029781  0.16559849  0.50071460  1
  Mn  Mn122  1  -0.00121003  0.33250654  0.24858748  1
  Mn  Mn123  1  0.74917239  0.33269792  0.62523768  1
  Mn  Mn124  1  0.50068332  0.66646535  0.75030429  1
  Mn  Mn125  1  0.25022715  0.49954329  0.37466936  1
  Mn  Mn126  1  0.00028908  0.83355066  0.00099426  1
  Mn  Mn127  1  0.00049997  0.83255868  0.50033180  1
  Mn  Mn128  1  0.50012271  0.33250952  0.49921461  1
  Mn  Mn129  1  0.25035872  0.50020484  0.87528220  1
  Mn  Mn130  1  0.25143605  0.66710511  0.87450715  1
  Mn  Mn131  1  0.50047437  0.83437389  0.74994584  1
  Mn  Mn132  1  -0.00011121  0.16710740  0.75020290  1
  Mn  Mn133  1  0.25069824  0.33372068  0.62495585  1
  Mn  Mn134  1  -0.00092493  0.50059529  0.24991069  1
  Mn  Mn135  1  -0.00051816  0.50214272  0.74886675  1
  Mn  Mn136  1  0.24973105  0.83309870  0.37447388  1
  Mn  Mn137  1  0.50067514  0.83279098  0.24955867  1
  Mn  Mn138  1  0.75045999  0.00022359  0.62501260  1
  Mn  Mn139  1  0.25017198  0.16640607  0.62490217  1
  Mn  Mn140  1  0.74987919  0.16619125  0.12503980  1
  Mn  Mn141  1  0.74940016  -0.00123319  0.12534129  1
  Mn  Mn142  1  0.50101865  0.49825841  0.75127994  1
  Mn  Mn143  1  0.50008613  0.49930868  0.49956149  1
  Fe  Fe144  1  0.24942149  0.16713838  0.37558212  1
  Fe  Fe145  1  -0.00001023  0.66726721  0.49987847  1
  Fe  Fe146  1  0.75046326  0.83280724  0.12496378  1
  Fe  Fe147  1  -0.00033154  0.33336445  0.49959747  1
  Fe  Fe148  1  0.74958415  -0.00100349  0.37553113  1
  Fe  Fe149  1  0.00082756  0.83299631  0.75098729  1
  Fe  Fe150  1  -0.00022103  -0.00003615  0.24999858  1
  Fe  Fe151  1  -0.00028703  0.16607795  0.25008376  1
  Fe  Fe152  1  0.49975824  0.49990153  0.24891967  1
  Fe  Fe153  1  0.00054087  0.66753220  0.75059901  1
  Fe  Fe154  1  0.50066701  0.83341799  -0.00011517  1
  Fe  Fe155  1  0.25060134  0.83274686  0.87471520  1
  Fe  Fe156  1  0.24945518  0.66680325  0.12450355  1
  Fe  Fe157  1  0.25053450  0.66659259  0.62497346  1
  Fe  Fe158  1  0.74955501  0.33337443  0.87482485  1
  Fe  Fe159  1  0.00037354  0.00019455  0.00127509  1
  Fe  Fe160  1  0.00008374  0.83312586  0.25014145  1
  Fe  Fe161  1  0.50066341  0.00035402  0.75091813  1
  Fe  Fe162  1  0.49962015  0.16664596  0.24884924  1
  Fe  Fe163  1  0.25108360  0.83293323  0.62470760  1
  Fe  Fe164  1  0.74983117  0.83263919  0.37446676  1
  Fe  Fe165  1  0.25010616  0.16734600  0.12579482  1
  Fe  Fe166  1  0.00014640  0.16618586  0.00088143  1
  Fe  Fe167  1  0.75022937  0.66687141  0.12554449  1
  Fe  Fe168  1  0.50047211  0.66648326  0.00050484  1
  Fe  Fe169  1  0.24929688  0.33350196  0.37502172  1
  Fe  Fe170  1  0.75031631  0.16675984  0.87493909  1
  Fe  Fe171  1  0.24929136  0.50007194  0.12539014  1
  Fe  Fe172  1  -0.00068712  0.50137590  -0.00032887  1
  Fe  Fe173  1  0.75059529  0.16704206  0.62563094  1
  Fe  Fe174  1  0.25018558  0.16634848  0.87523851  1
  Fe  Fe175  1  0.75016354  0.83381068  0.62487488  1
  Fe  Fe176  1  0.49971454  0.66654217  0.24906189  1
  Fe  Fe177  1  0.49946269  0.33209118  0.75019941  1
  Fe  Fe178  1  -0.00019039  0.66744898  0.00014280  1
  Fe  Fe179  1  0.74940537  0.50020651  0.37463455  1
  Fe  Fe180  1  0.50038965  0.16693537  -0.00070840  1
  Fe  Fe181  1  0.49942518  0.33270703  0.00037588  1
  Fe  Fe182  1  0.50013256  0.00044660  0.50015822  1
  Fe  Fe183  1  0.50008314  0.16583619  0.75052104  1
  Fe  Fe184  1  0.75087543  0.00020867  0.87481754  1
  Fe  Fe185  1  0.00015154  0.66678815  0.24996203  1
  Fe  Fe186  1  0.50073779  0.00073094  -0.00000717  1
  Fe  Fe187  1  0.74986286  0.33287344  0.37509710  1
  Fe  Fe188  1  0.24978515  0.49972501  0.62516062  1
  Fe  Fe189  1  0.74946702  0.66726580  0.37436734  1
  Fe  Fe190  1  0.75009808  0.66771133  0.87497987  1
  Fe  Fe191  1  0.49959022  0.33255810  0.24946473  1
  P  P192  1  0.04152680  0.24860467  0.10282786  1
  P  P193  1  0.04144448  0.24907733  0.35226168  1
  P  P194  1  0.04200268  0.25161298  0.60232301  1
  P  P195  1  0.04229809  0.25013259  0.85424621  1
  P  P196  1  0.04075324  0.58422525  0.10171391  1
  P  P197  1  0.04195669  0.58473196  0.35255051  1
  P  P198  1  0.04213958  0.58563728  0.60235556  1
  P  P199  1  0.04228730  0.58521171  0.85308790  1
  P  P200  1  0.04218353  0.91820698  0.10392864  1
  P  P201  1  0.04148604  0.91650714  0.35133625  1
  P  P202  1  0.04280154  0.91602891  0.60388689  1
  P  P203  1  0.04255395  0.91562555  0.85350929  1
  P  P204  1  0.54146781  0.24972426  0.10180794  1
  P  P205  1  0.54119794  0.24907348  0.35084953  1
  P  P206  1  0.54275148  0.24960733  0.60385554  1
  P  P207  1  0.54090603  0.24927518  0.85243131  1
  P  P208  1  0.54175403  0.58402968  0.10326331  1
  P  P209  1  0.54111510  0.58323433  0.35051123  1
  P  P210  1  0.54341287  0.58253158  0.60296118  1
  P  P211  1  0.54301123  0.58300158  0.85435924  1
  P  P212  1  0.54218231  0.91700530  0.10101994  1
  P  P213  1  0.54289066  0.91697810  0.35301078  1
  P  P214  1  0.54238537  0.91871095  0.60274016  1
  P  P215  1  0.54260959  0.91813267  0.85366910  1
  P  P216  1  0.45820655  0.08459608  0.14604162  1
  P  P217  1  0.45773407  0.08232569  0.39712225  1
  P  P218  1  0.45875815  0.08255850  0.64872609  1
  P  P219  1  0.45915220  0.08315717  0.89785277  1
  P  P220  1  0.45829963  0.41574374  0.14802013  1
  P  P221  1  0.45754199  0.41613915  0.39520989  1
  P  P222  1  0.45780458  0.41476675  0.64783048  1
  P  P223  1  0.45746880  0.41430007  0.89766954  1
  P  P224  1  0.45856970  0.74885419  0.14610882  1
  P  P225  1  0.45724321  0.74947238  0.39595495  1
  P  P226  1  0.45788409  0.75038303  0.64691867  1
  P  P227  1  0.45936440  0.74985674  0.89869315  1
  P  P228  1  0.95833830  0.08312208  0.14811744  1
  P  P229  1  0.95715108  0.08272898  0.39590870  1
  P  P230  1  0.95654259  0.08344054  0.64724467  1
  P  P231  1  0.95875590  0.08290224  0.89923027  1
  P  P232  1  0.95629595  0.41773114  0.14594258  1
  P  P233  1  0.95735534  0.41547779  0.39718097  1
  P  P234  1  0.95686005  0.41727390  0.64621902  1
  P  P235  1  0.95730457  0.41908309  0.89763064  1
  P  P236  1  0.95862658  0.74991789  0.14848157  1
  P  P237  1  0.95806107  0.74888266  0.39662861  1
  P  P238  1  0.95886709  0.75005994  0.64872112  1
  P  P239  1  0.95841647  0.74958182  0.89749672  1
  P  P240  1  0.20815736  0.08522894  0.22789895  1
  P  P241  1  0.20732623  0.08420339  0.47740139  1
  P  P242  1  0.20729982  0.08323579  0.72897633  1
  P  P243  1  0.20822076  0.08492020  0.97799523  1
  P  P244  1  0.20707654  0.41743328  0.22775594  1
  P  P245  1  0.20751874  0.41597243  0.47777465  1
  P  P246  1  0.20733384  0.41762098  0.72761817  1
  P  P247  1  0.20698243  0.41713920  0.97908603  1
  P  P248  1  0.20751359  0.74894480  0.22698271  1
  P  P249  1  0.20752439  0.74987564  0.47901229  1
  P  P250  1  0.20973335  0.75039118  0.72667546  1
  P  P251  1  0.20833661  0.75073925  0.97753728  1
  P  P252  1  0.70699602  0.08238560  0.22856557  1
  P  P253  1  0.70768048  0.08163481  0.47780704  1
  P  P254  1  0.70878489  0.08509792  0.72842042  1
  P  P255  1  0.70900942  0.08275536  0.97627530  1
  P  P256  1  0.70728257  0.41696621  0.22896112  1
  P  P257  1  0.70785599  0.41624639  0.47594340  1
  P  P258  1  0.70724045  0.41682167  0.72865915  1
  P  P259  1  0.70717220  0.41574970  0.97723933  1
  P  P260  1  0.70860632  0.75017394  0.22699087  1
  P  P261  1  0.70822408  0.75048123  0.47634963  1
  P  P262  1  0.70806128  0.75197052  0.72745755  1
  P  P263  1  0.70851911  0.74901181  0.97834465  1
  P  P264  1  0.29216111  0.24849771  0.02272123  1
  P  P265  1  0.29078660  0.25024580  0.27345500  1
  P  P266  1  0.29283652  0.25000682  0.52102042  1
  P  P267  1  0.29231903  0.24880352  0.77310959  1
  P  P268  1  0.29155222  0.58320473  0.02375156  1
  P  P269  1  0.29189072  0.58323252  0.27065048  1
  P  P270  1  0.29173200  0.58254075  0.52371582  1
  P  P271  1  0.29327379  0.58312340  0.77098977  1
  P  P272  1  0.29304042  0.91661913  0.02111919  1
  P  P273  1  0.29319481  0.91689621  0.27135855  1
  P  P274  1  0.29266861  0.91571281  0.52253510  1
  P  P275  1  0.29287636  0.91465189  0.77244732  1
  P  P276  1  0.79212366  0.24952217  0.02082254  1
  P  P277  1  0.79190378  0.25093474  0.27261448  1
  P  P278  1  0.79179702  0.24880126  0.52219533  1
  P  P279  1  0.79154227  0.25023709  0.77342629  1
  P  P280  1  0.79150507  0.58505799  0.02255760  1
  P  P281  1  0.79078145  0.58403387  0.27319730  1
  P  P282  1  0.79222674  0.58329756  0.52036504  1
  P  P283  1  0.79234059  0.58573779  0.77255830  1
  P  P284  1  0.79278756  0.91521899  0.02273565  1
  P  P285  1  0.79128411  0.91587798  0.27331852  1
  P  P286  1  0.79212308  0.91509870  0.52180420  1
  P  P287  1  0.79288852  0.91830299  0.77254259  1
  O  O288  1  0.03620199  0.24810625  0.18275273  1
  O  O289  1  0.03615188  0.25001499  0.43222536  1
  O  O290  1  0.03713862  0.25147117  0.68236911  1
  O  O291  1  0.03694121  0.24951755  0.93419803  1
  O  O292  1  0.03583077  0.58462085  0.18168679  1
  O  O293  1  0.03679048  0.58477762  0.43249058  1
  O  O294  1  0.03694830  0.58582028  0.68230109  1
  O  O295  1  0.03683498  0.58463815  0.93296418  1
  O  O296  1  0.03672215  0.91786688  0.18379857  1
  O  O297  1  0.03690375  0.91602505  0.43137243  1
  O  O298  1  0.03753164  0.91544459  0.68383433  1
  O  O299  1  0.03749681  0.91619607  0.93349568  1
  O  O300  1  0.53605097  0.24966243  0.18170959  1
  O  O301  1  0.53644322  0.24895032  0.43083292  1
  O  O302  1  0.53756991  0.24977213  0.68374645  1
  O  O303  1  0.53570115  0.24909960  0.93236410  1
  O  O304  1  0.53616511  0.58399994  0.18314934  1
  O  O305  1  0.53674692  0.58278323  0.43056597  1
  O  O306  1  0.53870873  0.58246263  0.68300738  1
  O  O307  1  0.53733838  0.58348565  0.93430596  1
  O  O308  1  0.53734245  0.91661023  0.18100735  1
  O  O309  1  0.53750770  0.91738355  0.43294358  1
  O  O310  1  0.53722492  0.91880134  0.68277253  1
  O  O311  1  0.53713073  0.91787451  0.93352632  1
  O  O312  1  0.46393684  0.08443722  0.06618908  1
  O  O313  1  0.46288773  0.08310074  0.31718831  1
  O  O314  1  0.46352839  0.08237691  0.56870922  1
  O  O315  1  0.46426364  0.08297914  0.81792344  1
  O  O316  1  0.46309261  0.41560008  0.06802069  1
  O  O317  1  0.46281699  0.41625862  0.31528894  1
  O  O318  1  0.46293110  0.41528760  0.56780430  1
  O  O319  1  0.46298802  0.41421569  0.81775081  1
  O  O320  1  0.46425421  0.74902563  0.06622684  1
  O  O321  1  0.46245414  0.74898045  0.31593754  1
  O  O322  1  0.46280179  0.75046121  0.56692977  1
  O  O323  1  0.46416989  0.75032943  0.81868665  1
  O  O324  1  0.96375957  0.08301577  0.06819518  1
  O  O325  1  0.96247950  0.08279475  0.31596627  1
  O  O326  1  0.96146611  0.08342217  0.56725835  1
  O  O327  1  0.96350091  0.08309054  0.81924581  1
  O  O328  1  0.96165200  0.41851679  0.06602168  1
  O  O329  1  0.96230133  0.41573531  0.31717148  1
  O  O330  1  0.96225518  0.41641694  0.56625879  1
  O  O331  1  0.96256525  0.41906154  0.81764995  1
  O  O332  1  0.96326564  0.75002388  0.06848942  1
  O  O333  1  0.96343652  0.74921992  0.31676744  1
  O  O334  1  0.96376929  0.74987183  0.56872237  1
  O  O335  1  0.96384945  0.75002578  0.81765022  1
  O  O336  1  0.21345425  0.08526394  0.05795808  1
  O  O337  1  0.21332108  0.08520630  0.30786492  1
  O  O338  1  0.21206320  0.08362941  0.55742777  1
  O  O339  1  0.21275844  0.08372535  0.80894118  1
  O  O340  1  0.21226525  0.41756756  0.05905572  1
  O  O341  1  0.21231118  0.41661352  0.30772078  1
  O  O342  1  0.21299067  0.41665447  0.55771700  1
  O  O343  1  0.21228353  0.41725387  0.80763409  1
  O  O344  1  0.21334791  0.74979085  0.05749755  1
  O  O345  1  0.21214192  0.74895475  0.30700196  1
  O  O346  1  0.21329136  0.75009779  0.55888854  1
  O  O347  1  0.21464850  0.75052582  0.80668253  1
  O  O348  1  0.71345534  0.08240370  0.05633959  1
  O  O349  1  0.71199149  0.08203413  0.30851460  1
  O  O350  1  0.71322611  0.08225241  0.55768077  1
  O  O351  1  0.71434157  0.08492917  0.80830954  1
  O  O352  1  0.71210465  0.41588991  0.05725246  1
  O  O353  1  0.71276160  0.41690632  0.30885901  1
  O  O354  1  0.71277750  0.41624415  0.55602173  1
  O  O355  1  0.71269744  0.41649017  0.80857427  1
  O  O356  1  0.71387223  0.74923621  0.05822889  1
  O  O357  1  0.71357646  0.75034938  0.30692031  1
  O  O358  1  0.71298086  0.75061078  0.55629762  1
  O  O359  1  0.71329581  0.75142631  0.80740540  1
  O  O360  1  0.28567176  0.24985912  0.19346105  1
  O  O361  1  0.28721836  0.25009124  0.44110138  1
  O  O362  1  0.28765108  0.24924065  0.69309826  1
  O  O363  1  0.28691103  0.24844243  0.94278237  1
  O  O364  1  0.28636158  0.58338102  0.19076188  1
  O  O365  1  0.28690382  0.58281845  0.44367048  1
  O  O366  1  0.28793873  0.58288564  0.69112200  1
  O  O367  1  0.28735238  0.58330460  0.94364345  1
  O  O368  1  0.28836128  0.91715177  0.19134309  1
  O  O369  1  0.28750918  0.91643756  0.44254740  1
  O  O370  1  0.28746298  0.91464467  0.69246975  1
  O  O371  1  0.28767540  0.91606150  0.94118306  1
  O  O372  1  0.78706603  0.25057382  0.19260136  1
  O  O373  1  0.78635187  0.24960024  0.44224964  1
  O  O374  1  0.78658532  0.24957294  0.69340276  1
  O  O375  1  0.78679925  0.24947722  0.94086362  1
  O  O376  1  0.78582406  0.58472004  0.19320057  1
  O  O377  1  0.78657227  0.58303752  0.44048399  1
  O  O378  1  0.78714044  0.58546706  0.69258474  1
  O  O379  1  0.78658056  0.58529867  0.94261470  1
  O  O380  1  0.78618262  0.91541562  0.19335229  1
  O  O381  1  0.78653602  0.91526077  0.44195187  1
  O  O382  1  0.78781522  0.91784461  0.69265087  1
  O  O383  1  0.78797483  0.91596971  0.94280913  1
  O  O384  1  0.22785200  0.24854692  0.05833197  1
  O  O385  1  0.22672359  0.25057780  0.30965172  1
  O  O386  1  0.22862540  0.25027683  0.55676135  1
  O  O387  1  0.22784934  0.24830069  0.80824750  1
  O  O388  1  0.22711558  0.58300610  0.05890282  1
  O  O389  1  0.22776272  0.58292992  0.30653821  1
  O  O390  1  0.22754840  0.58230983  0.55945285  1
  O  O391  1  0.22901981  0.58372288  0.80664865  1
  O  O392  1  0.22879544  0.91691376  0.05661401  1
  O  O393  1  0.22866547  0.91716193  0.30612485  1
  O  O394  1  0.22831349  0.91484034  0.55797337  1
  O  O395  1  0.22864448  0.91469147  0.80828638  1
  O  O396  1  0.72785913  0.24941814  0.05643674  1
  O  O397  1  0.72750402  0.25110854  0.30784268  1
  O  O398  1  0.72761739  0.24797298  0.55816599  1
  O  O399  1  0.72734064  0.25022728  0.80931107  1
  O  O400  1  0.72722058  0.58553731  0.05817768  1
  O  O401  1  0.72666218  0.58333779  0.30911079  1
  O  O402  1  0.72811247  0.58380070  0.55637633  1
  O  O403  1  0.72807902  0.58561432  0.80823339  1
  O  O404  1  0.72829142  0.91425040  0.05792576  1
  O  O405  1  0.72719441  0.91579108  0.30942732  1
  O  O406  1  0.72807910  0.91531745  0.55821314  1
  O  O407  1  0.72862322  0.91839638  0.80824322  1
  O  O408  1  0.27243787  0.08538848  0.19216963  1
  O  O409  1  0.27180265  0.08467821  0.44235929  1
  O  O410  1  0.27160707  0.08273818  0.69358595  1
  O  O411  1  0.27245933  0.08459787  0.94222455  1
  O  O412  1  0.27135143  0.41785286  0.19211106  1
  O  O413  1  0.27170178  0.41489873  0.44179450  1
  O  O414  1  0.27178158  0.41838490  0.69233272  1
  O  O415  1  0.27133024  0.41633445  0.94381435  1
  O  O416  1  0.27196931  0.74851238  0.19193669  1
  O  O417  1  0.27167615  0.75000493  0.44304967  1
  O  O418  1  0.27378772  0.75046372  0.69060972  1
  O  O419  1  0.27272560  0.75152100  0.94203237  1
  O  O420  1  0.77139370  0.08239923  0.19341927  1
  O  O421  1  0.77173633  0.08169531  0.44160534  1
  O  O422  1  0.77277478  0.08500094  0.69198882  1
  O  O423  1  0.77332016  0.08315114  0.94088672  1
  O  O424  1  0.77136991  0.41722773  0.19300125  1
  O  O425  1  0.77209961  0.41651425  0.44027762  1
  O  O426  1  0.77141896  0.41666565  0.69292814  1
  O  O427  1  0.77148614  0.41560017  0.94178429  1
  O  O428  1  0.77279212  0.75050167  0.19093503  1
  O  O429  1  0.77242988  0.75053017  0.44055668  1
  O  O430  1  0.77236312  0.75215483  0.69174948  1
  O  O431  1  0.77266033  0.74887910  0.94223674  1
  O  O432  1  0.02235941  0.08312006  0.18462133  1
  O  O433  1  0.02135317  0.08330326  0.43168738  1
  O  O434  1  0.02105450  0.08325024  0.68213856  1
  O  O435  1  0.02294328  0.08260081  0.93506265  1
  O  O436  1  0.02061877  0.41708630  0.18130708  1
  O  O437  1  0.02164145  0.41554822  0.43274075  1
  O  O438  1  0.02118565  0.41773041  0.68165137  1
  O  O439  1  0.02152314  0.41908690  0.93339493  1
  O  O440  1  0.02287823  0.74939653  0.18408418  1
  O  O441  1  0.02220937  0.74829795  0.43281268  1
  O  O442  1  0.02308452  0.74997279  0.68476486  1
  O  O443  1  0.02251545  0.74941046  0.93369659  1
  O  O444  1  0.52230292  0.08522720  0.18229750  1
  O  O445  1  0.52204107  0.08162245  0.43291999  1
  O  O446  1  0.52298868  0.08278976  0.68457946  1
  O  O447  1  0.52323746  0.08327881  0.93415804  1
  O  O448  1  0.52237889  0.41521954  0.18396481  1
  O  O449  1  0.52183390  0.41626848  0.43086017  1
  O  O450  1  0.52212272  0.41382684  0.68344565  1
  O  O451  1  0.52163355  0.41446224  0.93365971  1
  O  O452  1  0.52260684  0.74835336  0.18250566  1
  O  O453  1  0.52162763  0.74997071  0.43118840  1
  O  O454  1  0.52230924  0.75056157  0.68198894  1
  O  O455  1  0.52352925  0.74915318  0.93441315  1
  O  O456  1  0.47740487  0.24937519  0.06538717  1
  O  O457  1  0.47696867  0.24891670  0.31497096  1
  O  O458  1  0.47848505  0.24931233  0.56817926  1
  O  O459  1  0.47699968  0.24929137  0.81578445  1
  O  O460  1  0.47770946  0.58424272  0.06692999  1
  O  O461  1  0.47686133  0.58374726  0.31503537  1
  O  O462  1  0.47880879  0.58272818  0.56826961  1
  O  O463  1  0.47883291  0.58257030  0.81864561  1
  O  O464  1  0.47802592  0.91773114  0.06526807  1
  O  O465  1  0.47869713  0.91671724  0.31736252  1
  O  O466  1  0.47810243  0.91886898  0.56695844  1
  O  O467  1  0.47852724  0.91848272  0.81737279  1
  O  O468  1  0.97741332  0.24908647  0.06695833  1
  O  O469  1  0.97721934  0.24830707  0.31641808  1
  O  O470  1  0.97754676  0.25179878  0.56707773  1
  O  O471  1  0.97796756  0.25044866  0.81884063  1
  O  O472  1  0.97662458  0.58413633  0.06567017  1
  O  O473  1  0.97758935  0.58518555  0.31698457  1
  O  O474  1  0.97791693  0.58546013  0.56643628  1
  O  O475  1  0.97809826  0.58616618  0.81697117  1
  O  O476  1  0.97809503  0.91831285  0.06769923  1
  O  O477  1  0.97722927  0.91693005  0.31578233  1
  O  O478  1  0.97849033  0.91610111  0.56840544  1
  O  O479  1  0.97825579  0.91484851  0.81788417  1
  O  O480  1  0.07289196  0.31233130  0.07556350  1
  O  O481  1  0.07237966  0.31256533  0.32381696  1
  O  O482  1  0.07266077  0.31509527  0.57359127  1
  O  O483  1  0.07328913  0.31394038  0.82661644  1
  O  O484  1  0.07166691  0.64776513  0.07319126  1
  O  O485  1  0.07326341  0.64773217  0.32362492  1
  O  O486  1  0.07296690  0.64898889  0.57372396  1
  O  O487  1  0.07370120  0.64846110  0.82462131  1
  O  O488  1  0.07316528  0.98160641  0.07524957  1
  O  O489  1  0.07265606  0.98002385  0.32346656  1
  O  O490  1  0.07365700  0.97977960  0.57589356  1
  O  O491  1  0.07337989  0.97922103  0.82524404  1
  O  O492  1  0.57197162  0.31366027  0.07351210  1
  O  O493  1  0.57170709  0.31295553  0.32274985  1
  O  O494  1  0.57382119  0.31282612  0.57480148  1
  O  O495  1  0.57192910  0.31284419  0.82423763  1
  O  O496  1  0.57297371  0.64724393  0.07454481  1
  O  O497  1  0.57228327  0.64682501  0.32269115  1
  O  O498  1  0.57438693  0.64600482  0.57455903  1
  O  O499  1  0.57423594  0.64624960  0.82587008  1
  O  O500  1  0.57363965  0.98041808  0.07327948  1
  O  O501  1  0.57410644  0.98014314  0.32441982  1
  O  O502  1  0.57332520  0.98201791  0.57404123  1
  O  O503  1  0.57370824  0.98142327  0.82493626  1
  O  O504  1  0.42733224  0.02082607  0.17399950  1
  O  O505  1  0.42688913  0.01878698  0.42553054  1
  O  O506  1  0.42783210  0.01919361  0.67741029  1
  O  O507  1  0.42818073  0.01966217  0.92642098  1
  O  O508  1  0.42668024  0.35259665  0.17625595  1
  O  O509  1  0.42660708  0.35261659  0.42365053  1
  O  O510  1  0.42652151  0.35140596  0.67591246  1
  O  O511  1  0.42651176  0.35101837  0.92640075  1
  O  O512  1  0.42723438  0.68566069  0.17473179  1
  O  O513  1  0.42621180  0.68614485  0.42461786  1
  O  O514  1  0.42710509  0.68674804  0.67502938  1
  O  O515  1  0.42785391  0.68645091  0.92644381  1
  O  O516  1  0.92726203  0.01960269  0.17659790  1
  O  O517  1  0.92644432  0.01904080  0.42430235  1
  O  O518  1  0.92556489  0.01999547  0.67556100  1
  O  O519  1  0.92786006  0.01923501  0.92726084  1
  O  O520  1  0.92504784  0.35405228  0.17346576  1
  O  O521  1  0.92678659  0.35184763  0.42557354  1
  O  O522  1  0.92562831  0.35429171  0.67537274  1
  O  O523  1  0.92622348  0.35535245  0.92509196  1
  O  O524  1  0.92714586  0.68676146  0.17682892  1
  O  O525  1  0.92682892  0.68572847  0.42544669  1
  O  O526  1  0.92774440  0.68664048  0.67700998  1
  O  O527  1  0.92753029  0.68609793  0.92618352  1
  O  O528  1  0.17740679  0.02141881  0.19997776  1
  O  O529  1  0.17646723  0.02061832  0.44917192  1
  O  O530  1  0.17618058  0.01952095  0.70135411  1
  O  O531  1  0.17712771  0.02111067  0.95059356  1
  O  O532  1  0.17587518  0.35403921  0.19958607  1
  O  O533  1  0.17631313  0.35265333  0.44945115  1
  O  O534  1  0.17686990  0.35371509  0.69969067  1
  O  O535  1  0.17566281  0.35359663  0.95141204  1
  O  O536  1  0.17665689  0.68566735  0.19808822  1
  O  O537  1  0.17653330  0.68625829  0.45096945  1
  O  O538  1  0.17940789  0.68629123  0.69854193  1
  O  O539  1  0.17761769  0.68722080  0.94894623  1
  O  O540  1  0.67576375  0.01923814  0.19994171  1
  O  O541  1  0.67730817  0.01779716  0.44953831  1
  O  O542  1  0.67736102  0.02166721  0.70054498  1
  O  O543  1  0.67869193  0.01887838  0.94791685  1
  O  O544  1  0.67611349  0.35363003  0.20053169  1
  O  O545  1  0.67739159  0.35224817  0.44806417  1
  O  O546  1  0.67581103  0.35366420  0.70028795  1
  O  O547  1  0.67644435  0.35226001  0.94875350  1
  O  O548  1  0.67801657  0.68636361  0.19872492  1
  O  O549  1  0.67787727  0.68654526  0.44778773  1
  O  O550  1  0.67669202  0.68875059  0.69920500  1
  O  O551  1  0.67757417  0.68574653  0.94943459  1
  O  O552  1  0.32299196  0.31230910  0.05062105  1
  O  O553  1  0.32157838  0.31414553  0.30106159  1
  O  O554  1  0.32432202  0.31315115  0.54951372  1
  O  O555  1  0.32287973  0.31254038  0.80127774  1
  O  O556  1  0.32182271  0.64723354  0.05175084  1
  O  O557  1  0.32306885  0.64649839  0.29925590  1
  O  O558  1  0.32215108  0.64644256  0.55198796  1
  O  O559  1  0.32476349  0.64639361  0.79935611  1
  O  O560  1  0.32403250  0.98034691  0.04878345  1
  O  O561  1  0.32438979  0.98022147  0.29956321  1
  O  O562  1  0.32311325  0.97950509  0.55088788  1
  O  O563  1  0.32381738  0.97846894  0.80006683  1
  O  O564  1  0.82327191  0.31294503  0.04904183  1
  O  O565  1  0.82260363  0.31447376  0.30102166  1
  O  O566  1  0.82256106  0.31241932  0.55049786  1
  O  O567  1  0.82206469  0.31427713  0.80113829  1
  O  O568  1  0.82291379  0.64791001  0.05166548  1
  O  O569  1  0.82121799  0.64779269  0.30182367  1
  O  O570  1  0.82375560  0.64661647  0.54840751  1
  O  O571  1  0.82281049  0.64942561  0.80089702  1
  O  O572  1  0.82327008  0.97887404  0.05132354  1
  O  O573  1  0.82166990  0.97988847  0.30131267  1
  O  O574  1  0.82367792  0.97839970  0.54983350  1
  O  O575  1  0.82337760  0.98199968  0.80109823  1
  O  O576  1  0.42690024  0.14774601  0.17480536  1
  O  O577  1  0.42691573  0.14583206  0.42559884  1
  O  O578  1  0.42805948  0.14638560  0.67690840  1
  O  O579  1  0.42817082  0.14678162  0.92600305  1
  O  O580  1  0.42825948  0.48003119  0.17604732  1
  O  O581  1  0.42623535  0.47937845  0.42390130  1
  O  O582  1  0.42739099  0.47861752  0.67596905  1
  O  O583  1  0.42634937  0.47805447  0.92529855  1
  O  O584  1  0.42761334  0.81267683  0.17382827  1
  O  O585  1  0.42607093  0.81302103  0.42379209  1
  O  O586  1  0.42683172  0.81380409  0.67509973  1
  O  O587  1  0.42931963  0.81398359  0.92706718  1
  O  O588  1  0.92724119  0.14673508  0.17618730  1
  O  O589  1  0.92545630  0.14581383  0.42422412  1
  O  O590  1  0.92581931  0.14705729  0.67551082  1
  O  O591  1  0.92826106  0.14675370  0.92744681  1
  O  O592  1  0.92530270  0.48090978  0.17494844  1
  O  O593  1  0.92629944  0.47919498  0.42468583  1
  O  O594  1  0.92582538  0.48114815  0.67358454  1
  O  O595  1  0.92651866  0.48265719  0.92582714  1
  O  O596  1  0.92861951  0.81407296  0.17693283  1
  O  O597  1  0.92734780  0.81262038  0.42496013  1
  O  O598  1  0.92844314  0.81396265  0.67700556  1
  O  O599  1  0.92703138  0.81285794  0.92589953  1
  O  O600  1  0.07226645  0.18518910  0.07402458  1
  O  O601  1  0.07238653  0.18542397  0.32433609  1
  O  O602  1  0.07290571  0.18785483  0.57456471  1
  O  O603  1  0.07348626  0.18695544  0.82557784  1
  O  O604  1  0.07154086  0.52043142  0.07376631  1
  O  O605  1  0.07245202  0.52066348  0.32476219  1
  O  O606  1  0.07313173  0.52185965  0.57468838  1
  O  O607  1  0.07300116  0.52162881  0.82442945  1
  O  O608  1  0.07342821  0.85469842  0.07585132  1
  O  O609  1  0.07180076  0.85258147  0.32290422  1
  O  O610  1  0.07409868  0.85295370  0.57520438  1
  O  O611  1  0.07352182  0.85212704  0.82514193  1
  O  O612  1  0.57296051  0.18656432  0.07321196  1
  O  O613  1  0.57216143  0.18554685  0.32269183  1
  O  O614  1  0.57395369  0.18618268  0.57551432  1
  O  O615  1  0.57179617  0.18562635  0.82400798  1
  O  O616  1  0.57281906  0.52020736  0.07569525  1
  O  O617  1  0.57132027  0.51933794  0.32187533  1
  O  O618  1  0.57412930  0.51899881  0.57448559  1
  O  O619  1  0.57420860  0.51930451  0.82689146  1
  O  O620  1  0.57225429  0.85287937  0.07275623  1
  O  O621  1  0.57397484  0.85336512  0.32504974  1
  O  O622  1  0.57318662  0.85483430  0.57502461  1
  O  O623  1  0.57366613  0.85448972  0.82561656  1
  O  O624  1  0.32323156  0.18536871  0.05164151  1
  O  O625  1  0.32167019  0.18667929  0.30186994  1
  O  O626  1  0.32391091  0.18646234  0.54940146  1
  O  O627  1  0.32313537  0.18522094  0.80145722  1
  O  O628  1  0.32236799  0.51956996  0.05206708  1
  O  O629  1  0.32329196  0.51986826  0.29896200  1
  O  O630  1  0.32275079  0.51885779  0.55148781  1
  O  O631  1  0.32420700  0.51978169  0.79998457  1
  O  O632  1  0.32441847  0.85349698  0.04964541  1
  O  O633  1  0.32379825  0.85309113  0.29935641  1
  O  O634  1  0.32394274  0.85230855  0.55049859  1
  O  O635  1  0.32386609  0.85135408  0.80117667  1
  O  O636  1  0.82332730  0.18617001  0.04951617  1
  O  O637  1  0.82282666  0.18722137  0.30043374  1
  O  O638  1  0.82287667  0.18525004  0.55027504  1
  O  O639  1  0.82269291  0.18692056  0.80214525  1
  O  O640  1  0.82185900  0.52086892  0.05030330  1
  O  O641  1  0.82206731  0.52042342  0.30091389  1
  O  O642  1  0.82324977  0.51987176  0.54902060  1
  O  O643  1  0.82355590  0.52215638  0.80040320  1
  O  O644  1  0.82383288  0.85183109  0.05130642  1
  O  O645  1  0.82253617  0.85247832  0.30161097  1
  O  O646  1  0.82276004  0.85148510  0.55070195  1
  O  O647  1  0.82415900  0.85495896  0.80082831  1
  O  O648  1  0.17705460  0.14853603  0.19934407  1
  O  O649  1  0.17658012  0.14784901  0.44911363  1
  O  O650  1  0.17605270  0.14640789  0.70030888  1
  O  O651  1  0.17737366  0.14819192  0.94902574  1
  O  O652  1  0.17623211  0.48106043  0.19944267  1
  O  O653  1  0.17673258  0.47969498  0.44963252  1
  O  O654  1  0.17627548  0.48099537  0.69917816  1
  O  O655  1  0.17615517  0.48053048  0.95039767  1
  O  O656  1  0.17685634  0.81285688  0.19923988  1
  O  O657  1  0.17604832  0.81304001  0.45030150  1
  O  O658  1  0.17834709  0.81363214  0.69837120  1
  O  O659  1  0.17739086  0.81435294  0.94944602  1
  O  O660  1  0.67624154  0.14610129  0.20027860  1
  O  O661  1  0.67599798  0.14490844  0.44983623  1
  O  O662  1  0.67803381  0.14862878  0.69962860  1
  O  O663  1  0.67793649  0.14635475  0.94830953  1
  O  O664  1  0.67596302  0.48035918  0.20056402  1
  O  O665  1  0.67684890  0.47983751  0.44781743  1
  O  O666  1  0.67642171  0.48058329  0.70063158  1
  O  O667  1  0.67627736  0.47964118  0.94987991  1
  O  O668  1  0.67748341  0.81355445  0.19825552  1
  O  O669  1  0.67695331  0.81374597  0.44790903  1
  O  O670  1  0.67765903  0.81590029  0.69911195  1
  O  O671  1  0.67739496  0.81258051  0.95009198  1
