# generated using pymatgen
data_Na2MnFe(PO4)2
_symmetry_space_group_name_H-M   'P 1'
_cell_length_a   22.34217744
_cell_length_b   20.09534781
_cell_length_c   19.45220490
_cell_angle_alpha   90.01147740
_cell_angle_beta   89.94032686
_cell_angle_gamma   89.96171633
_symmetry_Int_Tables_number   1
_chemical_formula_structural   Na2MnFe(PO4)2
_chemical_formula_sum   'Na96 Mn48 Fe48 P96 O384'
_cell_volume   8733.52400722
_cell_formula_units_Z   48
loop_
 _symmetry_equiv_pos_site_id
 _symmetry_equiv_pos_as_xyz
  1  'x, y, z'
loop_
 _atom_site_type_symbol
 _atom_site_label
 _atom_site_symmetry_multiplicity
 _atom_site_fract_x
 _atom_site_fract_y
 _atom_site_fract_z
 _atom_site_occupancy
  Na  Na0  1  0.14080552  0.24956582  0.24388162  1
  Na  Na1  1  0.14015205  0.24886201  0.49484963  1
  Na  Na2  1  0.14002095  0.24912832  0.74410627  1
  Na  Na3  1  0.14059769  0.24960969  0.99441666  1
  Na  Na4  1  0.14034813  0.58329741  0.24466276  1
  Na  Na5  1  0.14009497  0.58290174  0.49354157  1
  Na  Na6  1  0.14035319  0.58385141  0.74410572  1
  Na  Na7  1  0.14071628  0.58511452  0.99453426  1
  Na  Na8  1  0.14076735  0.91778777  0.24374737  1
  Na  Na9  1  0.14061211  0.91648357  0.49414917  1
  Na  Na10  1  0.14088499  0.91796128  0.74487805  1
  Na  Na11  1  0.14120042  0.91841221  0.99401047  1
  Na  Na12  1  0.64086744  0.24844068  0.24293930  1
  Na  Na13  1  0.64063466  0.24788237  0.49304643  1
  Na  Na14  1  0.64047981  0.25069474  0.74347525  1
  Na  Na15  1  0.64105371  0.25051545  0.99335336  1
  Na  Na16  1  0.64020357  0.58326412  0.24228526  1
  Na  Na17  1  0.64053714  0.58164841  0.49332937  1
  Na  Na18  1  0.64013349  0.58350513  0.74380356  1
  Na  Na19  1  0.64022984  0.58317332  0.99207353  1
  Na  Na20  1  0.64049484  0.91702648  0.24245040  1
  Na  Na21  1  0.64067833  0.91528921  0.49248433  1
  Na  Na22  1  0.64065718  0.91814055  0.74338293  1
  Na  Na23  1  0.64066055  0.91715161  0.99350081  1
  Na  Na24  1  0.35936368  0.08426861  0.00629093  1
  Na  Na25  1  0.36054991  0.08370611  0.25560099  1
  Na  Na26  1  0.36051946  0.08267782  0.50519737  1
  Na  Na27  1  0.35998965  0.08245754  0.75671491  1
  Na  Na28  1  0.35982908  0.41692177  0.00725594  1
  Na  Na29  1  0.35948439  0.41704831  0.25504920  1
  Na  Na30  1  0.35921548  0.41619898  0.50538081  1
  Na  Na31  1  0.35952939  0.41579611  0.75662236  1
  Na  Na32  1  0.36037694  0.75195172  0.00736597  1
  Na  Na33  1  0.36041250  0.74965925  0.25706694  1
  Na  Na34  1  0.36018064  0.74972055  0.50516274  1
  Na  Na35  1  0.36019250  0.75048455  0.75732312  1
  Na  Na36  1  0.85926599  0.08471420  0.00574647  1
  Na  Na37  1  0.85933241  0.08390911  0.25710917  1
  Na  Na38  1  0.85937395  0.08356883  0.50681971  1
  Na  Na39  1  0.85912200  0.08514219  0.75679593  1
  Na  Na40  1  0.85873987  0.41680097  0.00578815  1
  Na  Na41  1  0.85846839  0.41592499  0.25678163  1
  Na  Na42  1  0.85856058  0.41503062  0.50745559  1
  Na  Na43  1  0.85854519  0.41629933  0.75683378  1
  Na  Na44  1  0.85924643  0.75032265  0.00606473  1
  Na  Na45  1  0.85919374  0.74970411  0.25633992  1
  Na  Na46  1  0.85876851  0.74840868  0.50625867  1
  Na  Na47  1  0.85903040  0.75036384  0.75686815  1
  Na  Na48  1  0.11039698  0.08311684  0.11876996  1
  Na  Na49  1  0.10999136  0.08406102  0.36920475  1
  Na  Na50  1  0.11010050  0.08353809  0.62019671  1
  Na  Na51  1  0.11019762  0.08453177  0.86785225  1
  Na  Na52  1  0.10931748  0.41674962  0.11964284  1
  Na  Na53  1  0.10938483  0.41843347  0.36925623  1
  Na  Na54  1  0.10899879  0.41537941  0.61955855  1
  Na  Na55  1  0.10924407  0.41669589  0.86921323  1
  Na  Na56  1  0.11004497  0.74984452  0.12007430  1
  Na  Na57  1  0.10944604  0.75068673  0.36845506  1
  Na  Na58  1  0.10927122  0.74861594  0.61968705  1
  Na  Na59  1  0.10999070  0.75143949  0.86887545  1
  Na  Na60  1  0.61087786  0.08326688  0.11783204  1
  Na  Na61  1  0.61054402  0.08262005  0.36684101  1
  Na  Na62  1  0.61000284  0.08169765  0.61784894  1
  Na  Na63  1  0.61064273  0.08337357  0.86814988  1
  Na  Na64  1  0.60956820  0.41691566  0.11714388  1
  Na  Na65  1  0.60964735  0.41561832  0.36802832  1
  Na  Na66  1  0.61012477  0.41512368  0.61800301  1
  Na  Na67  1  0.61001681  0.41754312  0.86833619  1
  Na  Na68  1  0.60959464  0.74883505  0.11810520  1
  Na  Na69  1  0.60971030  0.75045165  0.36753686  1
  Na  Na70  1  0.60995869  0.74937745  0.61890116  1
  Na  Na71  1  0.60979799  0.75026493  0.86873484  1
  Na  Na72  1  0.39040571  0.24991410  0.13121964  1
  Na  Na73  1  0.39045706  0.24895222  0.38008353  1
  Na  Na74  1  0.39051714  0.24747858  0.63121114  1
  Na  Na75  1  0.39026758  0.24986233  0.88193176  1
  Na  Na76  1  0.39061001  0.58475123  0.13151390  1
  Na  Na77  1  0.39012631  0.58481117  0.38110069  1
  Na  Na78  1  0.39044550  0.58322344  0.63015806  1
  Na  Na79  1  0.39121285  0.58409214  0.88260780  1
  Na  Na80  1  0.39113238  0.91693568  0.13200193  1
  Na  Na81  1  0.39081039  0.91759521  0.38018890  1
  Na  Na82  1  0.39105004  0.91473556  0.63110048  1
  Na  Na83  1  0.39043982  0.91618861  0.88204930  1
  Na  Na84  1  0.88916396  0.24945047  0.13250260  1
  Na  Na85  1  0.88939822  0.25072244  0.38267984  1
  Na  Na86  1  0.88939986  0.24905022  0.63248295  1
  Na  Na87  1  0.88913255  0.25033300  0.88090591  1
  Na  Na88  1  0.88955225  0.58396855  0.13082114  1
  Na  Na89  1  0.88956472  0.58423398  0.38138406  1
  Na  Na90  1  0.88965688  0.58131559  0.63181989  1
  Na  Na91  1  0.88928884  0.58427124  0.88124749  1
  Na  Na92  1  0.89026342  0.91678832  0.13168820  1
  Na  Na93  1  0.89021164  0.91841848  0.38095173  1
  Na  Na94  1  0.89002698  0.91638316  0.63180470  1
  Na  Na95  1  0.89016951  0.91815545  0.88046873  1
  Mn  Mn96  1  0.00058259  0.16649126  0.25095683  1
  Mn  Mn97  1  0.25008522  0.49981012  0.62515025  1
  Mn  Mn98  1  0.25020171  0.50051967  0.87612043  1
  Mn  Mn99  1  -0.00082620  0.33308362  -0.00000273  1
  Mn  Mn100  1  -0.00030170  0.66716803  0.00008827  1
  Mn  Mn101  1  -0.00020186  0.16690928  0.00003252  1
  Mn  Mn102  1  0.50085985  0.66753663  0.49974626  1
  Mn  Mn103  1  0.74996699  0.66597035  0.62525082  1
  Mn  Mn104  1  0.75020220  0.00040333  0.62438086  1
  Mn  Mn105  1  0.24959105  0.33249178  0.87567224  1
  Mn  Mn106  1  0.49949364  0.50029374  0.74967786  1
  Mn  Mn107  1  0.75022168  0.83438638  0.87523565  1
  Mn  Mn108  1  0.50049581  0.83265744  0.75041401  1
  Mn  Mn109  1  0.24989232  0.50075080  0.12552777  1
  Mn  Mn110  1  0.75008497  0.83262202  0.37401147  1
  Mn  Mn111  1  0.74958678  0.49994834  0.12488864  1
  Mn  Mn112  1  0.50021553  -0.00071103  0.00032976  1
  Mn  Mn113  1  -0.00050891  0.33400712  0.25123461  1
  Mn  Mn114  1  0.74953502  0.49840455  0.37445652  1
  Mn  Mn115  1  0.49957407  0.50087020  0.24864281  1
  Mn  Mn116  1  0.50003598  0.16683373  -0.00058381  1
  Mn  Mn117  1  -0.00075302  0.66603109  0.49985389  1
  Mn  Mn118  1  -0.00006006  0.00056588  0.00004297  1
  Mn  Mn119  1  0.24978617  0.33200369  0.62562788  1
  Mn  Mn120  1  0.00066267  0.00135019  0.50139771  1
  Mn  Mn121  1  0.24993022  0.83359789  0.62482875  1
  Mn  Mn122  1  -0.00041977  0.49975934  0.75037525  1
  Mn  Mn123  1  0.25134959  0.00045641  0.62542800  1
  Mn  Mn124  1  -0.00034525  0.83363935  0.50041512  1
  Mn  Mn125  1  -0.00006275  0.83407913  0.25043000  1
  Mn  Mn126  1  0.50079790  0.16517617  0.75032500  1
  Mn  Mn127  1  0.25040278  0.33309492  0.37489545  1
  Mn  Mn128  1  0.25083580  0.16547775  0.37393111  1
  Mn  Mn129  1  0.00000386  0.83383264  0.00004796  1
  Mn  Mn130  1  -0.00029960  0.83323993  0.75003846  1
  Mn  Mn131  1  -0.00138605  0.50127736  0.24981671  1
  Mn  Mn132  1  0.25043139  0.66688904  0.62543438  1
  Mn  Mn133  1  0.50009212  0.49983115  0.49944509  1
  Mn  Mn134  1  0.50083105  -0.00082973  0.49886147  1
  Mn  Mn135  1  0.49963882  0.33155265  0.49847309  1
  Mn  Mn136  1  0.74995624  0.83357634  0.12448378  1
  Mn  Mn137  1  0.25070551  0.66841184  0.87498782  1
  Mn  Mn138  1  0.49973734  0.33295263  0.74966552  1
  Mn  Mn139  1  0.25038904  0.83411523  0.12563614  1
  Mn  Mn140  1  0.25047221  0.83339075  0.37473034  1
  Mn  Mn141  1  -0.00025554  0.33314509  0.50052719  1
  Mn  Mn142  1  0.49972888  0.33287013  0.24908949  1
  Mn  Mn143  1  -0.00027771  0.50040548  -0.00038583  1
  Fe  Fe144  1  0.50010077  -0.00122555  0.74960236  1
  Fe  Fe145  1  0.74963988  0.50006571  0.87483948  1
  Fe  Fe146  1  -0.00040244  0.49988642  0.50075584  1
  Fe  Fe147  1  0.75066468  0.00088913  0.12411972  1
  Fe  Fe148  1  0.50004972  0.66673405  0.75053590  1
  Fe  Fe149  1  0.49993311  0.66722510  0.00037686  1
  Fe  Fe150  1  0.74960484  0.33281648  0.12506444  1
  Fe  Fe151  1  0.74985954  0.66642173  0.12448864  1
  Fe  Fe152  1  0.75014403  -0.00022090  0.37425297  1
  Fe  Fe153  1  0.24951415  0.66618272  0.37541049  1
  Fe  Fe154  1  0.74941969  0.33361183  0.87484935  1
  Fe  Fe155  1  0.00019991  0.00075008  0.25083565  1
  Fe  Fe156  1  0.50072232  -0.00026001  0.24979007  1
  Fe  Fe157  1  0.74906554  0.33186989  0.37547127  1
  Fe  Fe158  1  -0.00012916  0.00036452  0.75012524  1
  Fe  Fe159  1  0.50101210  0.16647463  0.24915567  1
  Fe  Fe160  1  0.50008069  0.50063000  -0.00063039  1
  Fe  Fe161  1  0.74955065  0.49915041  0.62511833  1
  Fe  Fe162  1  0.74949781  0.33259128  0.62553336  1
  Fe  Fe163  1  0.25015341  0.00008503  0.37467571  1
  Fe  Fe164  1  0.75031332  0.16603449  0.37488534  1
  Fe  Fe165  1  0.75023702  0.00109473  0.87434739  1
  Fe  Fe166  1  0.74992220  0.83327889  0.62450668  1
  Fe  Fe167  1  0.74937258  0.66556196  0.37501795  1
  Fe  Fe168  1  0.25036606  0.66736220  0.12577323  1
  Fe  Fe169  1  0.50071988  0.66711487  0.24914722  1
  Fe  Fe170  1  0.25006431  0.83463199  0.87640827  1
  Fe  Fe171  1  0.24960806  0.33322004  0.12540035  1
  Fe  Fe172  1  -0.00083110  0.33280517  0.74955244  1
  Fe  Fe173  1  0.74921410  0.16697959  0.62539834  1
  Fe  Fe174  1  0.50047126  0.33371856  0.00006267  1
  Fe  Fe175  1  0.50085075  0.83307237  0.00061584  1
  Fe  Fe176  1  0.25070999  0.00080168  0.12432113  1
  Fe  Fe177  1  0.75024653  0.16678858  0.12487145  1
  Fe  Fe178  1  0.25029698  0.16592137  0.62493797  1
  Fe  Fe179  1  -0.00044566  0.16672838  0.50118844  1
  Fe  Fe180  1  0.25023292  0.00083309  0.87535086  1
  Fe  Fe181  1  0.24988613  0.49970599  0.37479121  1
  Fe  Fe182  1  -0.00027461  0.66723898  0.25045144  1
  Fe  Fe183  1  -0.00035815  0.16680274  0.75012939  1
  Fe  Fe184  1  0.50027446  0.83326934  0.49958352  1
  Fe  Fe185  1  0.74971811  0.16757016  0.87541026  1
  Fe  Fe186  1  0.50025921  0.16519568  0.49951374  1
  Fe  Fe187  1  0.25058317  0.16682821  0.87573560  1
  Fe  Fe188  1  0.50037986  0.83309799  0.24980756  1
  Fe  Fe189  1  0.74959291  0.66711838  0.87453434  1
  Fe  Fe190  1  0.25009888  0.16630985  0.12453944  1
  Fe  Fe191  1  -0.00064077  0.66624679  0.74983617  1
  P  P192  1  0.04249803  0.25000444  0.10362111  1
  P  P193  1  0.04287795  0.25033457  0.35438979  1
  P  P194  1  0.04143460  0.24840535  0.60390478  1
  P  P195  1  0.04094905  0.25033573  0.85140978  1
  P  P196  1  0.04253608  0.58386845  0.10362773  1
  P  P197  1  0.04174548  0.58479141  0.35295272  1
  P  P198  1  0.04181645  0.58193680  0.60308222  1
  P  P199  1  0.04217091  0.58479704  0.85239449  1
  P  P200  1  0.04296014  0.91716641  0.10382864  1
  P  P201  1  0.04262384  0.91875779  0.35301066  1
  P  P202  1  0.04278944  0.91693102  0.60419434  1
  P  P203  1  0.04231689  0.91830617  0.85235491  1
  P  P204  1  0.54237266  0.25071249  0.10212033  1
  P  P205  1  0.54243330  0.24800109  0.35191656  1
  P  P206  1  0.54220374  0.24747787  0.60171309  1
  P  P207  1  0.54268894  0.25035359  0.85343369  1
  P  P208  1  0.54147678  0.58370187  0.10111795  1
  P  P209  1  0.54239299  0.58482523  0.35146035  1
  P  P210  1  0.54312545  0.58332547  0.60314804  1
  P  P211  1  0.54180210  0.58459132  0.85318158  1
  P  P212  1  0.54260397  0.91504783  0.10342416  1
  P  P213  1  0.54205102  0.91618167  0.35122545  1
  P  P214  1  0.54270124  0.91484892  0.60213613  1
  P  P215  1  0.54273417  0.91724866  0.85267998  1
  P  P216  1  0.45967690  0.08324768  0.14816712  1
  P  P217  1  0.45879987  0.08398904  0.39604820  1
  P  P218  1  0.45829192  0.08096725  0.64712810  1
  P  P219  1  0.45763525  0.08225617  0.89657668  1
  P  P220  1  0.45749177  0.41685837  0.14513459  1
  P  P221  1  0.45707027  0.41655158  0.39594988  1
  P  P222  1  0.45701154  0.41603514  0.64636975  1
  P  P223  1  0.45846451  0.41689248  0.89852914  1
  P  P224  1  0.45892618  0.75027501  0.14774243  1
  P  P225  1  0.45846794  0.75197343  0.39641580  1
  P  P226  1  0.45790428  0.74863242  0.64774294  1
  P  P227  1  0.45891971  0.75037885  0.89881236  1
  P  P228  1  0.95760504  0.08234070  0.14827877  1
  P  P229  1  0.95781711  0.08484934  0.39813279  1
  P  P230  1  0.95802152  0.08360203  0.64881999  1
  P  P231  1  0.95740844  0.08396916  0.89590834  1
  P  P232  1  0.95608195  0.41678461  0.14719480  1
  P  P233  1  0.95686545  0.41839096  0.39837127  1
  P  P234  1  0.95709673  0.41527418  0.64755950  1
  P  P235  1  0.95674808  0.41642018  0.89615457  1
  P  P236  1  0.95732902  0.74930749  0.14798570  1
  P  P237  1  0.95681121  0.75051792  0.39663730  1
  P  P238  1  0.95692158  0.74826454  0.64769456  1
  P  P239  1  0.95678333  0.75039936  0.89633486  1
  P  P240  1  0.20913971  0.08308413  0.22642691  1
  P  P241  1  0.20806145  0.08214869  0.47754043  1
  P  P242  1  0.20855982  0.08464490  0.72856573  1
  P  P243  1  0.20879208  0.08404589  0.97724800  1
  P  P244  1  0.20784561  0.41596176  0.22793488  1
  P  P245  1  0.20752254  0.41722197  0.47746237  1
  P  P246  1  0.20689846  0.41621301  0.72867862  1
  P  P247  1  0.20721685  0.41645199  0.97926894  1
  P  P248  1  0.20845647  0.74887698  0.22847159  1
  P  P249  1  0.20750888  0.74903352  0.47729215  1
  P  P250  1  0.20741049  0.75116935  0.72897514  1
  P  P251  1  0.20802365  0.75215474  0.97847087  1
  P  P252  1  0.70927231  0.08320545  0.22655520  1
  P  P253  1  0.70870195  0.08255616  0.47611573  1
  P  P254  1  0.70775100  0.08485731  0.72774912  1
  P  P255  1  0.70899996  0.08366677  0.97684231  1
  P  P256  1  0.70718201  0.41460487  0.22730643  1
  P  P257  1  0.70738060  0.41407940  0.47797074  1
  P  P258  1  0.70840021  0.41625904  0.72729721  1
  P  P259  1  0.70850610  0.41662177  0.97650452  1
  P  P260  1  0.70802687  0.74857405  0.22710589  1
  P  P261  1  0.70770484  0.74819077  0.47724343  1
  P  P262  1  0.70812265  0.75145942  0.72757584  1
  P  P263  1  0.70799356  0.74902353  0.97746046  1
  P  P264  1  0.29153207  0.24970679  0.02350814  1
  P  P265  1  0.29285316  0.24984493  0.27049235  1
  P  P266  1  0.29258239  0.24797123  0.52249951  1
  P  P267  1  0.29240503  0.24799145  0.77267189  1
  P  P268  1  0.29250978  0.58556859  0.02319933  1
  P  P269  1  0.29140651  0.58343378  0.27330245  1
  P  P270  1  0.29245349  0.58331561  0.52093688  1
  P  P271  1  0.29348738  0.58350216  0.77243395  1
  P  P272  1  0.29270672  0.91862818  0.02224097  1
  P  P273  1  0.29245940  0.91855563  0.27181774  1
  P  P274  1  0.29341215  0.91689354  0.52129182  1
  P  P275  1  0.29177006  0.91692008  0.77415917  1
  P  P276  1  0.79100166  0.25037723  0.02291829  1
  P  P277  1  0.79123967  0.24960567  0.27327736  1
  P  P278  1  0.79090788  0.24933989  0.52338132  1
  P  P279  1  0.79037440  0.25067086  0.77309808  1
  P  P280  1  0.79145401  0.58447610  0.02153002  1
  P  P281  1  0.79137100  0.58397648  0.27208736  1
  P  P282  1  0.79152564  0.58098146  0.52247614  1
  P  P283  1  0.79064323  0.58322367  0.77308581  1
  P  P284  1  0.79229348  0.91865047  0.02186564  1
  P  P285  1  0.79216365  0.91812597  0.27160290  1
  P  P286  1  0.79212502  0.91523382  0.52183744  1
  P  P287  1  0.79219844  0.91862632  0.77195598  1
  O  O288  1  0.03792220  0.25005668  0.18361871  1
  O  O289  1  0.03783894  0.24980481  0.43437618  1
  O  O290  1  0.03582416  0.24864507  0.68378740  1
  O  O291  1  0.03616549  0.25022637  0.93142294  1
  O  O292  1  0.03727148  0.58447550  0.18357873  1
  O  O293  1  0.03654574  0.58368401  0.43287135  1
  O  O294  1  0.03658592  0.58274025  0.68302597  1
  O  O295  1  0.03718118  0.58450721  0.93237439  1
  O  O296  1  0.03785165  0.91778013  0.18380581  1
  O  O297  1  0.03755154  0.91838558  0.43297748  1
  O  O298  1  0.03740858  0.91730650  0.68410510  1
  O  O299  1  0.03720474  0.91797810  0.93234868  1
  O  O300  1  0.53727493  0.25006312  0.18207538  1
  O  O301  1  0.53716750  0.24748729  0.43184992  1
  O  O302  1  0.53711432  0.24789924  0.68167862  1
  O  O303  1  0.53733609  0.25107834  0.93335346  1
  O  O304  1  0.53671493  0.58429841  0.18108592  1
  O  O305  1  0.53754675  0.58449192  0.43142035  1
  O  O306  1  0.53781202  0.58358990  0.68309577  1
  O  O307  1  0.53631734  0.58412501  0.93305914  1
  O  O308  1  0.53717243  0.91547209  0.18328168  1
  O  O309  1  0.53735124  0.91601889  0.43120108  1
  O  O310  1  0.53749424  0.91546918  0.68206199  1
  O  O311  1  0.53790895  0.91667703  0.93261243  1
  O  O312  1  0.46414749  0.08289002  0.06819187  1
  O  O313  1  0.46425549  0.08406573  0.31620167  1
  O  O314  1  0.46355615  0.08152072  0.56716408  1
  O  O315  1  0.46272023  0.08166069  0.81665007  1
  O  O316  1  0.46308582  0.41690136  0.06522959  1
  O  O317  1  0.46223771  0.41667561  0.31595381  1
  O  O318  1  0.46205582  0.41587310  0.56640706  1
  O  O319  1  0.46321542  0.41688264  0.81847937  1
  O  O320  1  0.46402840  0.75019606  0.06785830  1
  O  O321  1  0.46380092  0.75183668  0.31656422  1
  O  O322  1  0.46307455  0.74961332  0.56784714  1
  O  O323  1  0.46356786  0.74967286  0.81886634  1
  O  O324  1  0.96235313  0.08281525  0.06827248  1
  O  O325  1  0.96307530  0.08395357  0.31820677  1
  O  O326  1  0.96304388  0.08432359  0.56884115  1
  O  O327  1  0.96265495  0.08402512  0.81601909  1
  O  O328  1  0.96117841  0.41663855  0.06720912  1
  O  O329  1  0.96176175  0.41825458  0.31838163  1
  O  O330  1  0.96246855  0.41597438  0.56765297  1
  O  O331  1  0.96204134  0.41571244  0.81620570  1
  O  O332  1  0.96243702  0.74981355  0.06799400  1
  O  O333  1  0.96223700  0.75029316  0.31669837  1
  O  O334  1  0.96209002  0.74858181  0.56771904  1
  O  O335  1  0.96180343  0.74970837  0.81636218  1
  O  O336  1  0.21382671  0.08373871  0.05713620  1
  O  O337  1  0.21423958  0.08231450  0.30634578  1
  O  O338  1  0.21334739  0.08281867  0.55745022  1
  O  O339  1  0.21368846  0.08479179  0.80840873  1
  O  O340  1  0.21247172  0.41597364  0.05919950  1
  O  O341  1  0.21306253  0.41652823  0.30786281  1
  O  O342  1  0.21269201  0.41678383  0.55742698  1
  O  O343  1  0.21193104  0.41631793  0.80866475  1
  O  O344  1  0.21328146  0.75143939  0.05840747  1
  O  O345  1  0.21369379  0.74855962  0.30838155  1
  O  O346  1  0.21230001  0.74935468  0.55730359  1
  O  O347  1  0.21252776  0.75202226  0.80894280  1
  O  O348  1  0.71403496  0.08353808  0.05670263  1
  O  O349  1  0.71416317  0.08318718  0.30639509  1
  O  O350  1  0.71302804  0.08287495  0.55603504  1
  O  O351  1  0.71300801  0.08458039  0.80756258  1
  O  O352  1  0.71295241  0.41672793  0.05640942  1
  O  O353  1  0.71230975  0.41446790  0.30722578  1
  O  O354  1  0.71281750  0.41455413  0.55780099  1
  O  O355  1  0.71343886  0.41659108  0.80716638  1
  O  O356  1  0.71351114  0.74877550  0.05735995  1
  O  O357  1  0.71322795  0.74829096  0.30703517  1
  O  O358  1  0.71312512  0.74893150  0.55714059  1
  O  O359  1  0.71351514  0.75145197  0.80748416  1
  O  O360  1  0.28723790  0.25001690  0.19065088  1
  O  O361  1  0.28762718  0.24828990  0.44253138  1
  O  O362  1  0.28717369  0.24786814  0.69273631  1
  O  O363  1  0.28656805  0.24930879  0.94351929  1
  O  O364  1  0.28646204  0.58419989  0.19331617  1
  O  O365  1  0.28681398  0.58327186  0.44101679  1
  O  O366  1  0.28844982  0.58335564  0.69245253  1
  O  O367  1  0.28751255  0.58543248  0.94327567  1
  O  O368  1  0.28707889  0.91875702  0.19190422  1
  O  O369  1  0.28819542  0.91712843  0.44135035  1
  O  O370  1  0.28719384  0.91693169  0.69415722  1
  O  O371  1  0.28722640  0.91811298  0.94241255  1
  O  O372  1  0.78655539  0.24947786  0.19344503  1
  O  O373  1  0.78601485  0.24926117  0.44353315  1
  O  O374  1  0.78551970  0.25055454  0.69328878  1
  O  O375  1  0.78589096  0.25032995  0.94311149  1
  O  O376  1  0.78605458  0.58416448  0.19214277  1
  O  O377  1  0.78650938  0.58123916  0.44257694  1
  O  O378  1  0.78588271  0.58234822  0.69313819  1
  O  O379  1  0.78600389  0.58452730  0.94168457  1
  O  O380  1  0.78690107  0.91844402  0.19169180  1
  O  O381  1  0.78680666  0.91546777  0.44193696  1
  O  O382  1  0.78692067  0.91784901  0.69206781  1
  O  O383  1  0.78679799  0.91871395  0.94195536  1
  O  O384  1  0.22738018  0.24917272  0.05959670  1
  O  O385  1  0.22875692  0.24957925  0.30658910  1
  O  O386  1  0.22819814  0.24757647  0.55805472  1
  O  O387  1  0.22807091  0.24788115  0.80839076  1
  O  O388  1  0.22817190  0.58570518  0.05872638  1
  O  O389  1  0.22726742  0.58272110  0.30943910  1
  O  O390  1  0.22829075  0.58355194  0.55694904  1
  O  O391  1  0.22896897  0.58399266  0.80736250  1
  O  O392  1  0.22854774  0.91868131  0.05840790  1
  O  O393  1  0.22831019  0.91844530  0.30797485  1
  O  O394  1  0.22905367  0.91734663  0.55668319  1
  O  O395  1  0.22756693  0.91643760  0.80996184  1
  O  O396  1  0.72701669  0.25032406  0.05951965  1
  O  O397  1  0.72709156  0.24962222  0.30945647  1
  O  O398  1  0.72677906  0.24964407  0.55969183  1
  O  O399  1  0.72638946  0.25075394  0.80948747  1
  O  O400  1  0.72733245  0.58441654  0.05787894  1
  O  O401  1  0.72718376  0.58364540  0.30805825  1
  O  O402  1  0.72732366  0.58152681  0.55829244  1
  O  O403  1  0.72656131  0.58387414  0.80918098  1
  O  O404  1  0.72811840  0.91866861  0.05791933  1
  O  O405  1  0.72795335  0.91794671  0.30758621  1
  O  O406  1  0.72790736  0.91529562  0.55780504  1
  O  O407  1  0.72802680  0.91887074  0.80799056  1
  O  O408  1  0.27328263  0.08389034  0.19020845  1
  O  O409  1  0.27238537  0.08120588  0.44171333  1
  O  O410  1  0.27275977  0.08514677  0.69237159  1
  O  O411  1  0.27290643  0.08448567  0.94104705  1
  O  O412  1  0.27198918  0.41595972  0.19198118  1
  O  O413  1  0.27182985  0.41794334  0.44173373  1
  O  O414  1  0.27135578  0.41597864  0.69362499  1
  O  O415  1  0.27158915  0.41624751  0.94387067  1
  O  O416  1  0.27267443  0.74921203  0.19254467  1
  O  O417  1  0.27193211  0.74890067  0.44206345  1
  O  O418  1  0.27187386  0.75075361  0.69379173  1
  O  O419  1  0.27236566  0.75284770  0.94274891  1
  O  O420  1  0.77334917  0.08313834  0.19024286  1
  O  O421  1  0.77299065  0.08190295  0.44047586  1
  O  O422  1  0.77189857  0.08513674  0.69152033  1
  O  O423  1  0.77295010  0.08342023  0.94028086  1
  O  O424  1  0.77146287  0.41487968  0.19153553  1
  O  O425  1  0.77148184  0.41372742  0.44159356  1
  O  O426  1  0.77238902  0.41547008  0.69081493  1
  O  O427  1  0.77264473  0.41644867  0.94061598  1
  O  O428  1  0.77222026  0.74865420  0.19118992  1
  O  O429  1  0.77187932  0.74775397  0.44113932  1
  O  O430  1  0.77223564  0.75138493  0.69139283  1
  O  O431  1  0.77210417  0.74909827  0.94132782  1
  O  O432  1  0.02215250  0.08199359  0.18320196  1
  O  O433  1  0.02211028  0.08578569  0.43377086  1
  O  O434  1  0.02222972  0.08326820  0.68462020  1
  O  O435  1  0.02171462  0.08401003  0.93142323  1
  O  O436  1  0.02054329  0.41721253  0.18211075  1
  O  O437  1  0.02130073  0.41821141  0.43354247  1
  O  O438  1  0.02131754  0.41501034  0.68328957  1
  O  O439  1  0.02107566  0.41649680  0.93150427  1
  O  O440  1  0.02164216  0.74900892  0.18350383  1
  O  O441  1  0.02113573  0.75024211  0.43195645  1
  O  O442  1  0.02127659  0.74804788  0.68309956  1
  O  O443  1  0.02125405  0.75060142  0.93130083  1
  O  O444  1  0.52394521  0.08340760  0.18352970  1
  O  O445  1  0.52291397  0.08416620  0.43224784  1
  O  O446  1  0.52256177  0.08037132  0.68285386  1
  O  O447  1  0.52200882  0.08274812  0.93169805  1
  O  O448  1  0.52163341  0.41685801  0.18093975  1
  O  O449  1  0.52148425  0.41595325  0.43094107  1
  O  O450  1  0.52146053  0.41638484  0.68132554  1
  O  O451  1  0.52277411  0.41715200  0.93403018  1
  O  O452  1  0.52303670  0.75021559  0.18389728  1
  O  O453  1  0.52263080  0.75205648  0.43249200  1
  O  O454  1  0.52219999  0.74812863  0.68345105  1
  O  O455  1  0.52314176  0.75089241  0.93449825  1
  O  O456  1  0.47807391  0.25119008  0.06664733  1
  O  O457  1  0.47819865  0.24786850  0.31616733  1
  O  O458  1  0.47789972  0.24702882  0.56617784  1
  O  O459  1  0.47840371  0.24948283  0.81809656  1
  O  O460  1  0.47729011  0.58296578  0.06546915  1
  O  O461  1  0.47800405  0.58533005  0.31619229  1
  O  O462  1  0.47884408  0.58367164  0.56770678  1
  O  O463  1  0.47771195  0.58493799  0.81697245  1
  O  O464  1  0.47847358  0.91460107  0.06731912  1
  O  O465  1  0.47789082  0.91603272  0.31548783  1
  O  O466  1  0.47845161  0.91504600  0.56642944  1
  O  O467  1  0.47837743  0.91731262  0.81722288  1
  O  O468  1  0.97785992  0.24982147  0.06913794  1
  O  O469  1  0.97840662  0.24999339  0.31945318  1
  O  O470  1  0.97733841  0.24854621  0.56768912  1
  O  O471  1  0.97667038  0.25031664  0.81589440  1
  O  O472  1  0.97812208  0.58360365  0.06848110  1
  O  O473  1  0.97740447  0.58593849  0.31737058  1
  O  O474  1  0.97746411  0.58156486  0.56758577  1
  O  O475  1  0.97771344  0.58483219  0.81720806  1
  O  O476  1  0.97851954  0.91703023  0.06875098  1
  O  O477  1  0.97826991  0.91885994  0.31762450  1
  O  O478  1  0.97845376  0.91728552  0.56888207  1
  O  O479  1  0.97801868  0.91846354  0.81685685  1
  O  O480  1  0.07325059  0.31344720  0.07512760  1
  O  O481  1  0.07326703  0.31430645  0.32637421  1
  O  O482  1  0.07292291  0.31181471  0.57600408  1
  O  O483  1  0.07175661  0.31399074  0.82331597  1
  O  O484  1  0.07380221  0.64703615  0.07507380  1
  O  O485  1  0.07279763  0.64832727  0.32492754  1
  O  O486  1  0.07308171  0.64521893  0.57471705  1
  O  O487  1  0.07274544  0.64837531  0.82395372  1
  O  O488  1  0.07418953  0.98024372  0.07497642  1
  O  O489  1  0.07315324  0.98241029  0.32461694  1
  O  O490  1  0.07442007  0.98002235  0.57593746  1
  O  O491  1  0.07299568  0.98193720  0.82415591  1
  O  O492  1  0.57311150  0.31432635  0.07372894  1
  O  O493  1  0.57312683  0.31202015  0.32448857  1
  O  O494  1  0.57293874  0.31121622  0.57373552  1
  O  O495  1  0.57350927  0.31369982  0.82464705  1
  O  O496  1  0.57175820  0.64752643  0.07239727  1
  O  O497  1  0.57318857  0.64832078  0.32298502  1
  O  O498  1  0.57466686  0.64639692  0.57476895  1
  O  O499  1  0.57262695  0.64814224  0.82470024  1
  O  O500  1  0.57360368  0.97866099  0.07522342  1
  O  O501  1  0.57223110  0.98035286  0.32297011  1
  O  O502  1  0.57424854  0.97797451  0.57371972  1
  O  O503  1  0.57310023  0.98090889  0.82390338  1
  O  O504  1  0.42927932  0.01941986  0.17667169  1
  O  O505  1  0.42782100  0.02026347  0.42397977  1
  O  O506  1  0.42754263  0.01729141  0.67541236  1
  O  O507  1  0.42661198  0.01913089  0.92547469  1
  O  O508  1  0.42617725  0.35360093  0.17352519  1
  O  O509  1  0.42577743  0.35309196  0.42378726  1
  O  O510  1  0.42628894  0.35237798  0.67462723  1
  O  O511  1  0.42794189  0.35302347  0.92662604  1
  O  O512  1  0.42828716  0.68654659  0.17644699  1
  O  O513  1  0.42733844  0.68841986  0.42448884  1
  O  O514  1  0.42715423  0.68507084  0.67609211  1
  O  O515  1  0.42831543  0.68685584  0.92784549  1
  O  O516  1  0.92699804  0.01883927  0.17689331  1
  O  O517  1  0.92702242  0.02130442  0.42654798  1
  O  O518  1  0.92723857  0.01967388  0.67640574  1
  O  O519  1  0.92628773  0.02065500  0.92441698  1
  O  O520  1  0.92544151  0.35326227  0.17581680  1
  O  O521  1  0.92580559  0.35474099  0.42613508  1
  O  O522  1  0.92643360  0.35151565  0.67567205  1
  O  O523  1  0.92536055  0.35338606  0.92483839  1
  O  O524  1  0.92653143  0.68577448  0.17619558  1
  O  O525  1  0.92522157  0.68746596  0.42495350  1
  O  O526  1  0.92617504  0.68467625  0.67594205  1
  O  O527  1  0.92551700  0.68734392  0.92514121  1
  O  O528  1  0.17861690  0.01949885  0.19771549  1
  O  O529  1  0.17698832  0.01873606  0.44921801  1
  O  O530  1  0.17790887  0.02074302  0.70063476  1
  O  O531  1  0.17849577  0.02020486  0.94838607  1
  O  O532  1  0.17733274  0.35214349  0.19968508  1
  O  O533  1  0.17692246  0.35325158  0.44985541  1
  O  O534  1  0.17597974  0.35262493  0.70061701  1
  O  O535  1  0.17571504  0.35342821  0.95065296  1
  O  O536  1  0.17769056  0.68557751  0.19956454  1
  O  O537  1  0.17675156  0.68550325  0.44892455  1
  O  O538  1  0.17650467  0.68742829  0.70117575  1
  O  O539  1  0.17708709  0.68868736  0.95010390  1
  O  O540  1  0.67805540  0.01988601  0.19799786  1
  O  O541  1  0.67759606  0.01906471  0.44777535  1
  O  O542  1  0.67672125  0.02139383  0.69928380  1
  O  O543  1  0.67766298  0.02038731  0.94831980  1
  O  O544  1  0.67647092  0.35129811  0.19838118  1
  O  O545  1  0.67631137  0.35069829  0.44946950  1
  O  O546  1  0.67679652  0.35303627  0.69907135  1
  O  O547  1  0.67734040  0.35325833  0.94815481  1
  O  O548  1  0.67697885  0.68543634  0.19819399  1
  O  O549  1  0.67695794  0.68443189  0.44930023  1
  O  O550  1  0.67678777  0.68788778  0.70014745  1
  O  O551  1  0.67693846  0.68590339  0.94851848  1
  O  O552  1  0.32159448  0.31390571  0.05148725  1
  O  O553  1  0.32405946  0.31309282  0.29910980  1
  O  O554  1  0.32325100  0.31180387  0.55034734  1
  O  O555  1  0.32315726  0.31193686  0.80043607  1
  O  O556  1  0.32322363  0.64909777  0.05165138  1
  O  O557  1  0.32200474  0.64702979  0.30199052  1
  O  O558  1  0.32388249  0.64665546  0.54913702  1
  O  O559  1  0.32469634  0.64691448  0.80042470  1
  O  O560  1  0.32356227  0.98223634  0.05055360  1
  O  O561  1  0.32341227  0.98181324  0.30042156  1
  O  O562  1  0.32500605  0.97984116  0.54984373  1
  O  O563  1  0.32175838  0.98111688  0.80226816  1
  O  O564  1  0.82189236  0.31391495  0.05145811  1
  O  O565  1  0.82214285  0.31306456  0.30196138  1
  O  O566  1  0.82214085  0.31259586  0.55205342  1
  O  O567  1  0.82149962  0.31408687  0.80160736  1
  O  O568  1  0.82243542  0.64779775  0.05036213  1
  O  O569  1  0.82210988  0.64728444  0.30096586  1
  O  O570  1  0.82332446  0.64410267  0.55045381  1
  O  O571  1  0.82168848  0.64703618  0.80057643  1
  O  O572  1  0.82346479  0.98182603  0.05037307  1
  O  O573  1  0.82306294  0.98127212  0.30071393  1
  O  O574  1  0.82350051  0.97867150  0.54966550  1
  O  O575  1  0.82278729  0.98242042  0.79999617  1
  O  O576  1  0.42867363  0.14696417  0.17590623  1
  O  O577  1  0.42756821  0.14710132  0.42516854  1
  O  O578  1  0.42729188  0.14447320  0.67544784  1
  O  O579  1  0.42654349  0.14592972  0.92451966  1
  O  O580  1  0.42622740  0.48032704  0.17343237  1
  O  O581  1  0.42645102  0.48025992  0.42409999  1
  O  O582  1  0.42576601  0.47938585  0.67461627  1
  O  O583  1  0.42745736  0.48055647  0.92651627  1
  O  O584  1  0.42778069  0.81373103  0.17612342  1
  O  O585  1  0.42766046  0.81542662  0.42538476  1
  O  O586  1  0.42684432  0.81209961  0.67629835  1
  O  O587  1  0.42808041  0.81416394  0.92682773  1
  O  O588  1  0.92676219  0.14604200  0.17638563  1
  O  O589  1  0.92671198  0.14835255  0.42634467  1
  O  O590  1  0.92707867  0.14706146  0.67751545  1
  O  O591  1  0.92621926  0.14736877  0.92454111  1
  O  O592  1  0.92472094  0.48020984  0.17507259  1
  O  O593  1  0.92635994  0.48203885  0.42689058  1
  O  O594  1  0.92575992  0.47859776  0.67583661  1
  O  O595  1  0.92607075  0.48040015  0.92380671  1
  O  O596  1  0.92631043  0.81303215  0.17574970  1
  O  O597  1  0.92613220  0.81438448  0.42469746  1
  O  O598  1  0.92600422  0.81205993  0.67537067  1
  O  O599  1  0.92599690  0.81422576  0.92435887  1
  O  O600  1  0.07343523  0.18649082  0.07521415  1
  O  O601  1  0.07457149  0.18740412  0.32567456  1
  O  O602  1  0.07219482  0.18484683  0.57524719  1
  O  O603  1  0.07177112  0.18657594  0.82333855  1
  O  O604  1  0.07340908  0.52013201  0.07553606  1
  O  O605  1  0.07242842  0.52115419  0.32447212  1
  O  O606  1  0.07230456  0.51803661  0.57482513  1
  O  O607  1  0.07322732  0.52105821  0.82473295  1
  O  O608  1  0.07374872  0.85332493  0.07589359  1
  O  O609  1  0.07376322  0.85516159  0.32513361  1
  O  O610  1  0.07338213  0.85308164  0.57598198  1
  O  O611  1  0.07336680  0.85464855  0.82463360  1
  O  O612  1  0.57352913  0.18718830  0.07400970  1
  O  O613  1  0.57366559  0.18493114  0.32280829  1
  O  O614  1  0.57312908  0.18389921  0.57352389  1
  O  O615  1  0.57409419  0.18677977  0.82584671  1
  O  O616  1  0.57286301  0.52022618  0.07311703  1
  O  O617  1  0.57321078  0.52106456  0.32344230  1
  O  O618  1  0.57378665  0.51949955  0.57494755  1
  O  O619  1  0.57299262  0.52105787  0.82491909  1
  O  O620  1  0.57366239  0.85168271  0.07473118  1
  O  O621  1  0.57349578  0.85306436  0.32270735  1
  O  O622  1  0.57299331  0.85095776  0.57370682  1
  O  O623  1  0.57405222  0.85386984  0.82440885  1
  O  O624  1  0.32313938  0.18645523  0.05158322  1
  O  O625  1  0.32423636  0.18639971  0.29855016  1
  O  O626  1  0.32348056  0.18448529  0.55077113  1
  O  O627  1  0.32365197  0.18499238  0.80162843  1
  O  O628  1  0.32343944  0.52181082  0.05082777  1
  O  O629  1  0.32236944  0.51951400  0.30071110  1
  O  O630  1  0.32364206  0.51985690  0.54919295  1
  O  O631  1  0.32415967  0.51987124  0.80075835  1
  O  O632  1  0.32404460  0.85534181  0.05077186  1
  O  O633  1  0.32342717  0.85458121  0.29904303  1
  O  O634  1  0.32394994  0.85303545  0.54949112  1
  O  O635  1  0.32308303  0.85360218  0.80237532  1
  O  O636  1  0.82183680  0.18671858  0.05156301  1
  O  O637  1  0.82192714  0.18593070  0.30218348  1
  O  O638  1  0.82137287  0.18548788  0.55207954  1
  O  O639  1  0.82110811  0.18701262  0.80184656  1
  O  O640  1  0.82270863  0.52087537  0.04948464  1
  O  O641  1  0.82251295  0.52012947  0.29946145  1
  O  O642  1  0.82158034  0.51705015  0.55123519  1
  O  O643  1  0.82121295  0.51958752  0.80197457  1
  O  O644  1  0.82316071  0.85468613  0.04942797  1
  O  O645  1  0.82320814  0.85424022  0.29895312  1
  O  O646  1  0.82262062  0.85154155  0.55049989  1
  O  O647  1  0.82356764  0.85532784  0.80020949  1
  O  O648  1  0.17785951  0.14674921  0.19883599  1
  O  O649  1  0.17729663  0.14576489  0.44917543  1
  O  O650  1  0.17731910  0.14765190  0.69933254  1
  O  O651  1  0.17738458  0.14741073  0.94905664  1
  O  O652  1  0.17628703  0.47929888  0.20002853  1
  O  O653  1  0.17643982  0.48055767  0.44908193  1
  O  O654  1  0.17588004  0.47966331  0.70052142  1
  O  O655  1  0.17654212  0.48041214  0.95153546  1
  O  O656  1  0.17730137  0.81273019  0.20115564  1
  O  O657  1  0.17654468  0.81273193  0.44939085  1
  O  O658  1  0.17627058  0.81430118  0.70007657  1
  O  O659  1  0.17711533  0.81580014  0.95040317  1
  O  O660  1  0.67871635  0.14699229  0.19779200  1
  O  O661  1  0.67851695  0.14639679  0.44724206  1
  O  O662  1  0.67680501  0.14830337  0.69904815  1
  O  O663  1  0.67844283  0.14765694  0.94858589  1
  O  O664  1  0.67612336  0.47840430  0.19963045  1
  O  O665  1  0.67625960  0.47757591  0.44950202  1
  O  O666  1  0.67820030  0.48029012  0.69860115  1
  O  O667  1  0.67812160  0.48052242  0.94781491  1
  O  O668  1  0.67720544  0.81260022  0.19970032  1
  O  O669  1  0.67658282  0.81159970  0.44887833  1
  O  O670  1  0.67755922  0.81510686  0.69891426  1
  O  O671  1  0.67694896  0.81298851  0.95029689  1
