# generated using pymatgen
data_Na2MnFe(PO4)2
_symmetry_space_group_name_H-M   'P 1'
_cell_length_a   22.34347506
_cell_length_b   20.09282997
_cell_length_c   19.45020828
_cell_angle_alpha   89.95973077
_cell_angle_beta   89.96728733
_cell_angle_gamma   89.98784604
_symmetry_Int_Tables_number   1
_chemical_formula_structural   Na2MnFe(PO4)2
_chemical_formula_sum   'Na96 Mn48 Fe48 P96 O384'
_cell_volume   8732.04363287
_cell_formula_units_Z   48
loop_
 _symmetry_equiv_pos_site_id
 _symmetry_equiv_pos_as_xyz
  1  'x, y, z'
loop_
 _atom_site_type_symbol
 _atom_site_label
 _atom_site_symmetry_multiplicity
 _atom_site_fract_x
 _atom_site_fract_y
 _atom_site_fract_z
 _atom_site_occupancy
  Na  Na0  1  0.14026460  0.25019099  0.24409266  1
  Na  Na1  1  0.13999647  0.25084311  0.49432897  1
  Na  Na2  1  0.14074940  0.25021499  0.74269896  1
  Na  Na3  1  0.14063630  0.25175630  0.99390781  1
  Na  Na4  1  0.14026131  0.58267723  0.24396792  1
  Na  Na5  1  0.14027800  0.58342770  0.49480039  1
  Na  Na6  1  0.14092458  0.58190469  0.74383753  1
  Na  Na7  1  0.14070240  0.58381920  0.99507437  1
  Na  Na8  1  0.13955110  0.91739535  0.24278773  1
  Na  Na9  1  0.13977640  0.91813781  0.49374785  1
  Na  Na10  1  0.13994812  0.91767678  0.74299665  1
  Na  Na11  1  0.13980580  0.91832001  0.99408142  1
  Na  Na12  1  0.64097745  0.25138413  0.24407073  1
  Na  Na13  1  0.64058348  0.24978590  0.49399722  1
  Na  Na14  1  0.64118772  0.24979833  0.74248069  1
  Na  Na15  1  0.64109479  0.24988282  0.99294242  1
  Na  Na16  1  0.63979704  0.58320943  0.24413289  1
  Na  Na17  1  0.64038610  0.58246791  0.49351874  1
  Na  Na18  1  0.64133775  0.58136986  0.74313883  1
  Na  Na19  1  0.64112047  0.58217953  0.99433035  1
  Na  Na20  1  0.64045057  0.91759546  0.24434152  1
  Na  Na21  1  0.64026692  0.91633595  0.49389789  1
  Na  Na22  1  0.63993439  0.91569794  0.74331877  1
  Na  Na23  1  0.64005376  0.91596469  0.99195560  1
  Na  Na24  1  0.35977465  0.08466302  0.00545313  1
  Na  Na25  1  0.35996968  0.08455330  0.25478526  1
  Na  Na26  1  0.35965130  0.08464957  0.50706923  1
  Na  Na27  1  0.35993799  0.08291831  0.75532660  1
  Na  Na28  1  0.36002406  0.41710426  0.00639352  1
  Na  Na29  1  0.35975839  0.41708208  0.25588351  1
  Na  Na30  1  0.35949811  0.41766249  0.50725320  1
  Na  Na31  1  0.36005401  0.41518518  0.75600275  1
  Na  Na32  1  0.35989228  0.75065563  0.00566944  1
  Na  Na33  1  0.35954704  0.74882077  0.25624312  1
  Na  Na34  1  0.35906947  0.75055849  0.50676600  1
  Na  Na35  1  0.35927534  0.74905547  0.75552721  1
  Na  Na36  1  0.85969213  0.08228299  0.00657510  1
  Na  Na37  1  0.85983812  0.08391537  0.25751878  1
  Na  Na38  1  0.85962582  0.08330008  0.50745521  1
  Na  Na39  1  0.85963935  0.08217467  0.75634606  1
  Na  Na40  1  0.85998851  0.41499485  0.00563370  1
  Na  Na41  1  0.85915676  0.41670445  0.25631601  1
  Na  Na42  1  0.85924384  0.41579202  0.50687402  1
  Na  Na43  1  0.85982860  0.41526754  0.75543252  1
  Na  Na44  1  0.85924258  0.74960539  0.00671349  1
  Na  Na45  1  0.85954468  0.75025941  0.25813145  1
  Na  Na46  1  0.85890368  0.75010070  0.50593986  1
  Na  Na47  1  0.85854630  0.74906724  0.75659621  1
  Na  Na48  1  0.10936602  0.08490960  0.11899609  1
  Na  Na49  1  0.10927306  0.08312957  0.36956834  1
  Na  Na50  1  0.10954273  0.08404473  0.61811223  1
  Na  Na51  1  0.10982710  0.08432057  0.86843983  1
  Na  Na52  1  0.10967099  0.41663199  0.11891660  1
  Na  Na53  1  0.10975022  0.41633883  0.36920123  1
  Na  Na54  1  0.11043708  0.41531312  0.61809886  1
  Na  Na55  1  0.11032251  0.41642506  0.86858904  1
  Na  Na56  1  0.10921781  0.75084802  0.11981189  1
  Na  Na57  1  0.10875704  0.75117129  0.36793364  1
  Na  Na58  1  0.10901102  0.75053174  0.61884303  1
  Na  Na59  1  0.10915634  0.75069287  0.86920091  1
  Na  Na60  1  0.61015189  0.08357274  0.11751542  1
  Na  Na61  1  0.61004544  0.08361542  0.36947856  1
  Na  Na62  1  0.61022720  0.08127897  0.61803747  1
  Na  Na63  1  0.60999663  0.08189872  0.86756374  1
  Na  Na64  1  0.61014804  0.41787219  0.11896683  1
  Na  Na65  1  0.61030929  0.41809113  0.36881220  1
  Na  Na66  1  0.61048321  0.41514283  0.61781250  1
  Na  Na67  1  0.61088755  0.41574654  0.86802847  1
  Na  Na68  1  0.60940581  0.75062390  0.11920946  1
  Na  Na69  1  0.60915130  0.75012278  0.36930172  1
  Na  Na70  1  0.60967975  0.74886366  0.61863170  1
  Na  Na71  1  0.60978000  0.75110088  0.86836168  1
  Na  Na72  1  0.39046275  0.25179562  0.13062964  1
  Na  Na73  1  0.39061424  0.25125163  0.38103766  1
  Na  Na74  1  0.39054738  0.24810284  0.63196373  1
  Na  Na75  1  0.39048513  0.24930282  0.88102685  1
  Na  Na76  1  0.39070484  0.58399322  0.13182548  1
  Na  Na77  1  0.38995423  0.58405182  0.38161425  1
  Na  Na78  1  0.38985842  0.58222147  0.63206629  1
  Na  Na79  1  0.39068647  0.58293915  0.88105581  1
  Na  Na80  1  0.39083340  0.91634552  0.12978426  1
  Na  Na81  1  0.39018342  0.91787387  0.38122817  1
  Na  Na82  1  0.39050646  0.91623324  0.63108042  1
  Na  Na83  1  0.39057270  0.91716086  0.87958545  1
  Na  Na84  1  0.89042228  0.24938955  0.13134930  1
  Na  Na85  1  0.89043413  0.24887613  0.38234936  1
  Na  Na86  1  0.88978964  0.24866000  0.63156949  1
  Na  Na87  1  0.89023368  0.24951280  0.88091563  1
  Na  Na88  1  0.89022790  0.58357083  0.13196226  1
  Na  Na89  1  0.88993937  0.58261733  0.38184768  1
  Na  Na90  1  0.88958093  0.58175935  0.63204620  1
  Na  Na91  1  0.89012403  0.58145641  0.88130806  1
  Na  Na92  1  0.89059961  0.91781911  0.13213639  1
  Na  Na93  1  0.88983483  0.91785573  0.38157403  1
  Na  Na94  1  0.88950866  0.91752813  0.63117201  1
  Na  Na95  1  0.88952132  0.91723248  0.88136810  1
  Mn  Mn96  1  0.25062980  0.33343431  0.87469970  1
  Mn  Mn97  1  0.24989479  0.00117670  0.37437171  1
  Mn  Mn98  1  -0.00043214  0.66667382  0.75018239  1
  Mn  Mn99  1  0.25029967  0.83320035  0.12440812  1
  Mn  Mn100  1  0.75019238  0.16569078  0.87428510  1
  Mn  Mn101  1  0.50008646  0.33315188  0.49968867  1
  Mn  Mn102  1  0.49936163  0.66646787  0.50030960  1
  Mn  Mn103  1  0.50003688  -0.00021554  0.49981940  1
  Mn  Mn104  1  0.50078956  0.16554856  0.75059099  1
  Mn  Mn105  1  0.25075176  0.33450415  0.37512490  1
  Mn  Mn106  1  0.75005228  0.83351126  0.12559700  1
  Mn  Mn107  1  0.50070183  0.66664727  0.74998787  1
  Mn  Mn108  1  0.50039504  0.16758806  0.24882289  1
  Mn  Mn109  1  -0.00051850  0.33225418  0.25012988  1
  Mn  Mn110  1  0.24903863  0.66592321  0.37608959  1
  Mn  Mn111  1  0.74967967  0.66560324  0.12577567  1
  Mn  Mn112  1  0.50088409  0.49816356  0.75095452  1
  Mn  Mn113  1  0.00050392  0.49819528  0.75063928  1
  Mn  Mn114  1  -0.00088390  0.50012750  0.25008427  1
  Mn  Mn115  1  -0.00093995  0.83491184  0.74972307  1
  Mn  Mn116  1  0.00064151  0.49919441  0.00046310  1
  Mn  Mn117  1  -0.00000368  0.16686782  -0.00015146  1
  Mn  Mn118  1  0.24944240  0.83335055  0.87434678  1
  Mn  Mn119  1  0.50079014  0.16710616  -0.00092182  1
  Mn  Mn120  1  -0.00106539  0.83457775  0.49933668  1
  Mn  Mn121  1  0.49999159  0.00045253  0.24969810  1
  Mn  Mn122  1  -0.00052509  0.66723398  0.00068323  1
  Mn  Mn123  1  0.75025989  0.00038285  0.12492407  1
  Mn  Mn124  1  0.50050175  0.83323036  0.24983457  1
  Mn  Mn125  1  0.24965310  0.83377337  0.37512592  1
  Mn  Mn126  1  0.50100728  0.49969743  0.00028534  1
  Mn  Mn127  1  0.25030091  0.16791934  0.37527245  1
  Mn  Mn128  1  0.24979054  0.66567748  0.87506358  1
  Mn  Mn129  1  0.00010678  0.16619183  0.75026559  1
  Mn  Mn130  1  0.25036477  0.50019129  0.12525701  1
  Mn  Mn131  1  0.24928180  0.83342487  0.62486249  1
  Mn  Mn132  1  0.50068682  0.66769985  0.00016334  1
  Mn  Mn133  1  0.74997222  0.33332163  0.12461984  1
  Mn  Mn134  1  0.75026047  0.66494355  0.87533130  1
  Mn  Mn135  1  0.25000026  0.00157343  0.87421617  1
  Mn  Mn136  1  0.00039109  0.49889689  0.50017886  1
  Mn  Mn137  1  0.74965736  0.66602500  0.37539840  1
  Mn  Mn138  1  0.50091547  0.33498624  0.25119383  1
  Mn  Mn139  1  0.74980904  0.83312907  0.62541662  1
  Mn  Mn140  1  -0.00068233  0.83502376  0.00018264  1
  Mn  Mn141  1  0.75008108  0.16689511  0.37578892  1
  Mn  Mn142  1  -0.00087495  0.66689422  0.50002304  1
  Mn  Mn143  1  0.25023596  0.00166824  0.12392074  1
  Fe  Fe144  1  0.75036639  0.49980463  0.37542902  1
  Fe  Fe145  1  -0.00033404  0.16607575  0.50049040  1
  Fe  Fe146  1  0.74950103  -0.00052875  0.87476610  1
  Fe  Fe147  1  -0.00055945  0.83458546  0.25001306  1
  Fe  Fe148  1  0.50045930  0.33210519  0.74941772  1
  Fe  Fe149  1  0.75022015  0.16682738  0.12546655  1
  Fe  Fe150  1  0.75037679  0.33361534  0.37515700  1
  Fe  Fe151  1  0.49974688  0.83383524  -0.00076753  1
  Fe  Fe152  1  0.49956334  0.66704993  0.25009134  1
  Fe  Fe153  1  0.74972376  0.66578395  0.62520328  1
  Fe  Fe154  1  0.50000026  0.50017790  0.49988532  1
  Fe  Fe155  1  0.25017227  0.49987533  0.62528191  1
  Fe  Fe156  1  -0.00037384  0.33213225  0.49967059  1
  Fe  Fe157  1  -0.00011502  0.66728204  0.25039246  1
  Fe  Fe158  1  0.74994244  0.83230524  0.87479974  1
  Fe  Fe159  1  0.75097571  0.49868842  0.87401613  1
  Fe  Fe160  1  0.50028133  -0.00097309  0.74907882  1
  Fe  Fe161  1  0.00056374  0.16641510  0.25062498  1
  Fe  Fe162  1  0.74939588  0.00049072  0.37570545  1
  Fe  Fe163  1  0.74961391  0.16617374  0.62501679  1
  Fe  Fe164  1  0.00018577  0.00086556  0.00087792  1
  Fe  Fe165  1  0.00001767  0.00048915  0.74986251  1
  Fe  Fe166  1  0.24976748  0.33400376  0.12474878  1
  Fe  Fe167  1  0.24979757  0.50033091  0.37556838  1
  Fe  Fe168  1  0.00041960  0.33216328  0.74949443  1
  Fe  Fe169  1  0.74985198  0.49908385  0.62451831  1
  Fe  Fe170  1  0.75055704  0.49918106  0.12483028  1
  Fe  Fe171  1  0.25051102  0.33366379  0.62542031  1
  Fe  Fe172  1  0.25015944  0.00075843  0.62483119  1
  Fe  Fe173  1  0.25020221  0.66652942  0.12508179  1
  Fe  Fe174  1  0.25016241  0.16807583  0.12477713  1
  Fe  Fe175  1  0.24981563  0.16715897  0.62474558  1
  Fe  Fe176  1  0.24927005  0.66630725  0.62517856  1
  Fe  Fe177  1  0.50024034  0.16633573  0.50028550  1
  Fe  Fe178  1  0.49971633  0.50096278  0.24984842  1
  Fe  Fe179  1  0.25068889  0.49972661  0.87492575  1
  Fe  Fe180  1  0.50024998  -0.00023876  -0.00122032  1
  Fe  Fe181  1  0.75022415  -0.00062595  0.62518321  1
  Fe  Fe182  1  0.75021346  0.33330842  0.62453727  1
  Fe  Fe183  1  -0.00001064  0.00018384  0.49957151  1
  Fe  Fe184  1  0.74920420  0.83370667  0.37609557  1
  Fe  Fe185  1  0.75031303  0.33284729  0.87382860  1
  Fe  Fe186  1  0.24995584  0.16750236  0.87422686  1
  Fe  Fe187  1  0.50061635  0.33376424  0.00016636  1
  Fe  Fe188  1  0.00007143  0.33282719  0.00025956  1
  Fe  Fe189  1  0.49983287  0.83311655  0.49982942  1
  Fe  Fe190  1  0.49970325  0.83318760  0.74973572  1
  Fe  Fe191  1  -0.00048691  0.00118777  0.25072476  1
  P  P192  1  0.04241598  0.25066051  0.10285946  1
  P  P193  1  0.04196291  0.24818558  0.35368794  1
  P  P194  1  0.04098908  0.24972785  0.60182396  1
  P  P195  1  0.04254397  0.25087911  0.85251545  1
  P  P196  1  0.04240082  0.58399238  0.10412977  1
  P  P197  1  0.04177670  0.58437378  0.35254029  1
  P  P198  1  0.04226853  0.58280469  0.60336321  1
  P  P199  1  0.04288834  0.58289458  0.85345744  1
  P  P200  1  0.04183572  0.91892576  0.10380381  1
  P  P201  1  0.04103951  0.91798116  0.35170566  1
  P  P202  1  0.04176336  0.91869800  0.60245480  1
  P  P203  1  0.04211083  0.91902729  0.85279439  1
  P  P204  1  0.54313891  0.25182872  0.10206812  1
  P  P205  1  0.54319977  0.24992917  0.35362881  1
  P  P206  1  0.54238198  0.24827679  0.60269902  1
  P  P207  1  0.54292587  0.25100328  0.85246578  1
  P  P208  1  0.54298205  0.58388368  0.10403810  1
  P  P209  1  0.54094422  0.58373161  0.35203591  1
  P  P210  1  0.54226058  0.58152243  0.60248972  1
  P  P211  1  0.54362801  0.58326159  0.85324093  1
  P  P212  1  0.54196049  0.91669995  0.10071496  1
  P  P213  1  0.54266138  0.91672090  0.35341961  1
  P  P214  1  0.54210318  0.91454564  0.60276876  1
  P  P215  1  0.54130554  0.91654000  0.85165528  1
  P  P216  1  0.45794007  0.08339739  0.14532479  1
  P  P217  1  0.45744970  0.08514028  0.39752459  1
  P  P218  1  0.45859672  0.08183115  0.64711852  1
  P  P219  1  0.45837770  0.08186187  0.89658827  1
  P  P220  1  0.45827911  0.41806473  0.14753504  1
  P  P221  1  0.45777921  0.41887335  0.39745327  1
  P  P222  1  0.45842477  0.41465067  0.64728750  1
  P  P223  1  0.45833592  0.41485825  0.89738182  1
  P  P224  1  0.45767350  0.74961351  0.14718717  1
  P  P225  1  0.45711259  0.75104679  0.39748123  1
  P  P226  1  0.45793376  0.75081126  0.64725915  1
  P  P227  1  0.45795366  0.75185013  0.89674522  1
  P  P228  1  0.95828800  0.08389821  0.14875546  1
  P  P229  1  0.95829289  0.08323443  0.39823383  1
  P  P230  1  0.95784407  0.08220762  0.64699118  1
  P  P231  1  0.95762855  0.08199234  0.89762722  1
  P  P232  1  0.95689811  0.41592588  0.14660994  1
  P  P233  1  0.95741821  0.41481320  0.39777831  1
  P  P234  1  0.95826349  0.41389956  0.64704485  1
  P  P235  1  0.95839372  0.41428564  0.89726619  1
  P  P236  1  0.95807605  0.75089789  0.14902659  1
  P  P237  1  0.95672163  0.75061663  0.39581856  1
  P  P238  1  0.95621465  0.75064404  0.64694988  1
  P  P239  1  0.95651910  0.75075561  0.89723109  1
  P  P240  1  0.20761923  0.08550074  0.22690595  1
  P  P241  1  0.20761888  0.08430957  0.47904744  1
  P  P242  1  0.20847314  0.08426989  0.72634679  1
  P  P243  1  0.20798234  0.08644903  0.97726301  1
  P  P244  1  0.20749053  0.41582721  0.22771766  1
  P  P245  1  0.20804113  0.41848066  0.47855605  1
  P  P246  1  0.20898791  0.41665125  0.72689585  1
  P  P247  1  0.20834051  0.41792129  0.97754290  1
  P  P248  1  0.20773485  0.74851201  0.22744539  1
  P  P249  1  0.20623983  0.75017308  0.47878573  1
  P  P250  1  0.20702729  0.74838213  0.72737223  1
  P  P251  1  0.20701225  0.74972264  0.97838650  1
  P  P252  1  0.70787890  0.08479504  0.22796675  1
  P  P253  1  0.70799244  0.08223753  0.47877439  1
  P  P254  1  0.70885652  0.08224063  0.72665985  1
  P  P255  1  0.70763526  0.08190565  0.97720278  1
  P  P256  1  0.70803064  0.41785156  0.22804487  1
  P  P257  1  0.70884556  0.41645130  0.47713754  1
  P  P258  1  0.70891244  0.41601841  0.72651916  1
  P  P259  1  0.70942085  0.41628842  0.97607885  1
  P  P260  1  0.70736934  0.75013137  0.22918983  1
  P  P261  1  0.70771685  0.75031332  0.47818319  1
  P  P262  1  0.70787648  0.74815117  0.72785945  1
  P  P263  1  0.70779837  0.75001433  0.97736989  1
  P  P264  1  0.29171558  0.25085153  0.02286212  1
  P  P265  1  0.29302701  0.25084653  0.27105608  1
  P  P266  1  0.29164501  0.25083525  0.52381334  1
  P  P267  1  0.29236891  0.24877847  0.77139667  1
  P  P268  1  0.29296730  0.58441777  0.02249559  1
  P  P269  1  0.29188323  0.58216669  0.27277287  1
  P  P270  1  0.29136907  0.58325064  0.52370542  1
  P  P271  1  0.29247764  0.58124475  0.77178538  1
  P  P272  1  0.29274499  0.91761609  0.02106685  1
  P  P273  1  0.29266696  0.91706125  0.27135440  1
  P  P274  1  0.29194491  0.91828221  0.52260106  1
  P  P275  1  0.29201041  0.91732409  0.77068885  1
  P  P276  1  0.79229799  0.24822591  0.02227900  1
  P  P277  1  0.79231821  0.25127331  0.27289914  1
  P  P278  1  0.79103675  0.24996785  0.52340172  1
  P  P279  1  0.79197769  0.25037945  0.77135722  1
  P  P280  1  0.79265800  0.58118547  0.02240240  1
  P  P281  1  0.79207312  0.58155322  0.27259921  1
  P  P282  1  0.79118628  0.58256924  0.52323561  1
  P  P283  1  0.79238700  0.58101088  0.77143888  1
  P  P284  1  0.79245707  0.91628453  0.02126494  1
  P  P285  1  0.79083863  0.91738888  0.27433092  1
  P  P286  1  0.79151587  0.91763357  0.52208652  1
  P  P287  1  0.79084995  0.91636468  0.77319828  1
  O  O288  1  0.03722056  0.24973508  0.18276521  1
  O  O289  1  0.03626200  0.24854230  0.43354765  1
  O  O290  1  0.03658290  0.24983953  0.68183118  1
  O  O291  1  0.03745427  0.25095741  0.93245835  1
  O  O292  1  0.03675696  0.58447154  0.18406743  1
  O  O293  1  0.03678131  0.58394764  0.43254857  1
  O  O294  1  0.03727242  0.58258725  0.68332681  1
  O  O295  1  0.03779199  0.58280515  0.93346080  1
  O  O296  1  0.03630266  0.91866811  0.18366995  1
  O  O297  1  0.03630434  0.91781687  0.43170408  1
  O  O298  1  0.03668560  0.91871168  0.68241354  1
  O  O299  1  0.03707924  0.91916202  0.93279204  1
  O  O300  1  0.53807583  0.25172877  0.18204487  1
  O  O301  1  0.53771137  0.24910727  0.43355300  1
  O  O302  1  0.53711083  0.24877764  0.68265207  1
  O  O303  1  0.53775693  0.25145877  0.93240521  1
  O  O304  1  0.53720827  0.58387919  0.18395440  1
  O  O305  1  0.53579048  0.58311575  0.43203258  1
  O  O306  1  0.53753788  0.58151966  0.68243761  1
  O  O307  1  0.53857562  0.58349793  0.93319424  1
  O  O308  1  0.53712223  0.91674323  0.18074343  1
  O  O309  1  0.53732818  0.91623177  0.43332282  1
  O  O310  1  0.53661730  0.91466016  0.68266555  1
  O  O311  1  0.53597710  0.91687668  0.93155880  1
  O  O312  1  0.46342499  0.08282501  0.06538268  1
  O  O313  1  0.46249892  0.08501195  0.31750779  1
  O  O314  1  0.46373126  0.08291304  0.56719096  1
  O  O315  1  0.46374286  0.08151798  0.81663156  1
  O  O316  1  0.46354442  0.41723444  0.06760680  1
  O  O317  1  0.46303581  0.41937126  0.31750722  1
  O  O318  1  0.46339448  0.41557056  0.56735839  1
  O  O319  1  0.46346178  0.41433213  0.81741018  1
  O  O320  1  0.46304532  0.75038895  0.06727042  1
  O  O321  1  0.46265617  0.75014454  0.31757568  1
  O  O322  1  0.46290950  0.75087304  0.56728387  1
  O  O323  1  0.46339102  0.75166014  0.81680474  1
  O  O324  1  0.96352740  0.08361711  0.06881357  1
  O  O325  1  0.96332373  0.08363497  0.31834265  1
  O  O326  1  0.96304094  0.08249034  0.56714957  1
  O  O327  1  0.96280930  0.08200383  0.81768585  1
  O  O328  1  0.96238815  0.41556805  0.06666418  1
  O  O329  1  0.96223316  0.41529172  0.31780527  1
  O  O330  1  0.96329666  0.41396240  0.56708231  1
  O  O331  1  0.96379173  0.41402396  0.81729910  1
  O  O332  1  0.96272629  0.75125629  0.06897847  1
  O  O333  1  0.96218039  0.75045762  0.31590947  1
  O  O334  1  0.96121454  0.75077937  0.56692136  1
  O  O335  1  0.96143085  0.75077855  0.81725637  1
  O  O336  1  0.21336864  0.08676393  0.05715088  1
  O  O337  1  0.21249114  0.08512467  0.30689576  1
  O  O338  1  0.21308032  0.08398116  0.55895016  1
  O  O339  1  0.21325966  0.08463406  0.80632728  1
  O  O340  1  0.21335802  0.41722470  0.05747685  1
  O  O341  1  0.21259306  0.41643586  0.30763472  1
  O  O342  1  0.21339841  0.41833621  0.55841110  1
  O  O343  1  0.21378850  0.41652841  0.80684998  1
  O  O344  1  0.21253934  0.74938330  0.05831642  1
  O  O345  1  0.21254217  0.74892211  0.30747710  1
  O  O346  1  0.21129537  0.74994095  0.55874071  1
  O  O347  1  0.21233199  0.74852430  0.80731196  1
  O  O348  1  0.71252854  0.08256893  0.05710526  1
  O  O349  1  0.71303191  0.08422568  0.30792511  1
  O  O350  1  0.71340978  0.08218736  0.55861737  1
  O  O351  1  0.71359445  0.08224755  0.80664871  1
  O  O352  1  0.71413802  0.41635804  0.05603661  1
  O  O353  1  0.71346653  0.41753404  0.30787107  1
  O  O354  1  0.71411418  0.41662783  0.55699959  1
  O  O355  1  0.71390699  0.41565721  0.80637197  1
  O  O356  1  0.71279722  0.74999554  0.05734634  1
  O  O357  1  0.71252482  0.75068453  0.30914565  1
  O  O358  1  0.71284885  0.74977672  0.55811954  1
  O  O359  1  0.71363905  0.74867745  0.80774358  1
  O  O360  1  0.28768597  0.25097276  0.19117014  1
  O  O361  1  0.28706201  0.25134824  0.44383302  1
  O  O362  1  0.28712722  0.24895006  0.69156647  1
  O  O363  1  0.28672570  0.25054960  0.94287239  1
  O  O364  1  0.28697514  0.58306607  0.19284010  1
  O  O365  1  0.28615509  0.58282966  0.44375951  1
  O  O366  1  0.28701731  0.58142499  0.69194753  1
  O  O367  1  0.28785936  0.58354234  0.94257410  1
  O  O368  1  0.28777319  0.91704825  0.19135520  1
  O  O369  1  0.28717472  0.91810670  0.44256452  1
  O  O370  1  0.28658405  0.91787503  0.69075772  1
  O  O371  1  0.28741736  0.91757181  0.94111789  1
  O  O372  1  0.78706689  0.25061959  0.19299631  1
  O  O373  1  0.78655093  0.25021639  0.44344200  1
  O  O374  1  0.78658081  0.25024369  0.69154465  1
  O  O375  1  0.78738093  0.24819048  0.94238931  1
  O  O376  1  0.78697274  0.58148033  0.19265674  1
  O  O377  1  0.78616897  0.58233074  0.44323703  1
  O  O378  1  0.78656019  0.58161152  0.69161184  1
  O  O379  1  0.78756255  0.58118194  0.94241588  1
  O  O380  1  0.78626318  0.91731334  0.19432047  1
  O  O381  1  0.78574821  0.91749653  0.44229623  1
  O  O382  1  0.78601279  0.91669310  0.69319794  1
  O  O383  1  0.78719041  0.91604077  0.94136830  1
  O  O384  1  0.22757073  0.25100377  0.05903660  1
  O  O385  1  0.22877139  0.25111922  0.30678381  1
  O  O386  1  0.22735907  0.25016446  0.55933783  1
  O  O387  1  0.22818564  0.24906990  0.80747948  1
  O  O388  1  0.22866380  0.58484477  0.05826670  1
  O  O389  1  0.22752004  0.58162139  0.30835825  1
  O  O390  1  0.22722894  0.58326568  0.55982402  1
  O  O391  1  0.22829547  0.58098462  0.80792664  1
  O  O392  1  0.22840124  0.91751199  0.05634165  1
  O  O393  1  0.22812393  0.91730555  0.30624681  1
  O  O394  1  0.22755983  0.91816936  0.55775389  1
  O  O395  1  0.22781136  0.91764506  0.80639826  1
  O  O396  1  0.72802646  0.24822247  0.05811407  1
  O  O397  1  0.72812659  0.25166894  0.30887838  1
  O  O398  1  0.72692819  0.24996223  0.55924043  1
  O  O399  1  0.72792823  0.25016351  0.80763252  1
  O  O400  1  0.72836868  0.58102465  0.05820921  1
  O  O401  1  0.72779562  0.58148741  0.30832994  1
  O  O402  1  0.72703702  0.58267311  0.55928574  1
  O  O403  1  0.72839180  0.58045849  0.80799148  1
  O  O404  1  0.72815238  0.91667363  0.05685455  1
  O  O405  1  0.72661048  0.91776846  0.31000286  1
  O  O406  1  0.72753345  0.91777001  0.55863968  1
  O  O407  1  0.72674380  0.91628195  0.80922448  1
  O  O408  1  0.27203121  0.08589088  0.19158080  1
  O  O409  1  0.27186576  0.08425976  0.44328774  1
  O  O410  1  0.27268709  0.08466618  0.69048809  1
  O  O411  1  0.27221607  0.08616016  0.94133732  1
  O  O412  1  0.27179204  0.41525645  0.19199801  1
  O  O413  1  0.27224063  0.41899289  0.44242611  1
  O  O414  1  0.27316252  0.41716855  0.69104051  1
  O  O415  1  0.27264053  0.41797940  0.94180048  1
  O  O416  1  0.27212341  0.74825094  0.19204082  1
  O  O417  1  0.27070354  0.75015784  0.44368472  1
  O  O418  1  0.27129575  0.74841208  0.69167506  1
  O  O419  1  0.27131243  0.74991372  0.94285573  1
  O  O420  1  0.77220635  0.08489285  0.19222098  1
  O  O421  1  0.77208158  0.08184820  0.44248865  1
  O  O422  1  0.77300178  0.08220331  0.69076350  1
  O  O423  1  0.77197767  0.08132124  0.94162284  1
  O  O424  1  0.77214156  0.41767548  0.19167841  1
  O  O425  1  0.77287080  0.41638291  0.44061797  1
  O  O426  1  0.77296738  0.41671544  0.69023217  1
  O  O427  1  0.77353935  0.41656068  0.93998964  1
  O  O428  1  0.77168917  0.74962301  0.19376365  1
  O  O429  1  0.77182307  0.75018174  0.44226846  1
  O  O430  1  0.77190993  0.74792615  0.69153196  1
  O  O431  1  0.77208614  0.75003779  0.94178788  1
  O  O432  1  0.02243613  0.08371410  0.18493253  1
  O  O433  1  0.02235159  0.08319608  0.43451065  1
  O  O434  1  0.02205295  0.08180510  0.68300450  1
  O  O435  1  0.02190873  0.08219313  0.93335072  1
  O  O436  1  0.02114290  0.41618299  0.18207324  1
  O  O437  1  0.02188081  0.41450425  0.43283902  1
  O  O438  1  0.02258184  0.41382203  0.68263228  1
  O  O439  1  0.02258803  0.41417852  0.93318649  1
  O  O440  1  0.02230597  0.75079535  0.18458349  1
  O  O441  1  0.02090665  0.75070735  0.43158871  1
  O  O442  1  0.02069119  0.75091612  0.68181210  1
  O  O443  1  0.02095424  0.75093536  0.93220310  1
  O  O444  1  0.52218646  0.08344069  0.18094801  1
  O  O445  1  0.52184433  0.08490402  0.43289998  1
  O  O446  1  0.52279656  0.08127990  0.68291347  1
  O  O447  1  0.52258316  0.08210789  0.93235430  1
  O  O448  1  0.52249048  0.41895825  0.18331097  1
  O  O449  1  0.52207514  0.41826258  0.43305895  1
  O  O450  1  0.52277350  0.41407945  0.68284017  1
  O  O451  1  0.52274265  0.41489420  0.93279175  1
  O  O452  1  0.52188349  0.74853834  0.18310953  1
  O  O453  1  0.52135716  0.75119584  0.43338397  1
  O  O454  1  0.52223770  0.75092974  0.68275476  1
  O  O455  1  0.52215056  0.75226530  0.93264732  1
  O  O456  1  0.47878818  0.25174894  0.06660159  1
  O  O457  1  0.47894043  0.25067599  0.31813735  1
  O  O458  1  0.47816891  0.24818565  0.56682576  1
  O  O459  1  0.47861012  0.25067555  0.81691941  1
  O  O460  1  0.47889117  0.58368280  0.06804640  1
  O  O461  1  0.47689172  0.58417367  0.31580673  1
  O  O462  1  0.47780816  0.58158887  0.56733618  1
  O  O463  1  0.47919700  0.58286217  0.81829565  1
  O  O464  1  0.47770883  0.91655429  0.06499289  1
  O  O465  1  0.47840758  0.91683464  0.31794364  1
  O  O466  1  0.47799674  0.91462289  0.56654853  1
  O  O467  1  0.47736870  0.91686539  0.81503157  1
  O  O468  1  0.97815313  0.25108493  0.06705109  1
  O  O469  1  0.97789761  0.24761002  0.31736195  1
  O  O470  1  0.97676232  0.24996665  0.56623959  1
  O  O471  1  0.97820602  0.25099235  0.81698421  1
  O  O472  1  0.97818886  0.58304410  0.06855287  1
  O  O473  1  0.97738794  0.58458412  0.31734623  1
  O  O474  1  0.97784997  0.58243213  0.56832702  1
  O  O475  1  0.97845152  0.58242976  0.81847593  1
  O  O476  1  0.97770437  0.91946821  0.06759044  1
  O  O477  1  0.97679876  0.91829958  0.31601881  1
  O  O478  1  0.97743399  0.91900791  0.56690533  1
  O  O479  1  0.97771366  0.91943413  0.81729714  1
  O  O480  1  0.07307692  0.31441924  0.07473449  1
  O  O481  1  0.07298355  0.31187664  0.32561411  1
  O  O482  1  0.07232045  0.31292590  0.57318403  1
  O  O483  1  0.07380000  0.31384306  0.82342811  1
  O  O484  1  0.07316619  0.64752375  0.07568243  1
  O  O485  1  0.07250205  0.64799010  0.32418078  1
  O  O486  1  0.07293942  0.64650572  0.57527423  1
  O  O487  1  0.07355436  0.64660303  0.82534559  1
  O  O488  1  0.07310521  0.98219261  0.07515821  1
  O  O489  1  0.07243175  0.98132270  0.32362658  1
  O  O490  1  0.07293056  0.98183156  0.57361369  1
  O  O491  1  0.07339307  0.98203026  0.82376723  1
  O  O492  1  0.57377406  0.31550388  0.07372523  1
  O  O493  1  0.57436572  0.31380090  0.32634471  1
  O  O494  1  0.57363511  0.31167980  0.57451044  1
  O  O495  1  0.57375448  0.31408552  0.82303465  1
  O  O496  1  0.57423830  0.64727428  0.07574748  1
  O  O497  1  0.57180646  0.64765983  0.32440789  1
  O  O498  1  0.57318190  0.64524018  0.57465237  1
  O  O499  1  0.57437535  0.64682140  0.82487569  1
  O  O500  1  0.57267717  0.98041445  0.07244512  1
  O  O501  1  0.57350887  0.98050067  0.32547556  1
  O  O502  1  0.57330685  0.97820351  0.57491156  1
  O  O503  1  0.57254180  0.97989768  0.82293013  1
  O  O504  1  0.42656088  0.02028923  0.17403574  1
  O  O505  1  0.42630026  0.02150660  0.42531165  1
  O  O506  1  0.42784293  0.01799364  0.67488030  1
  O  O507  1  0.42732954  0.01867475  0.92537559  1
  O  O508  1  0.42748560  0.35447516  0.17595635  1
  O  O509  1  0.42652361  0.35506923  0.42482783  1
  O  O510  1  0.42779060  0.35079601  0.67533885  1
  O  O511  1  0.42733937  0.35171003  0.92652109  1
  O  O512  1  0.42657440  0.68619432  0.17555897  1
  O  O513  1  0.42577636  0.68771810  0.42588344  1
  O  O514  1  0.42720837  0.68680944  0.67500291  1
  O  O515  1  0.42721317  0.68791993  0.92456012  1
  O  O516  1  0.92693844  0.02063947  0.17721556  1
  O  O517  1  0.92735133  0.01956330  0.42647512  1
  O  O518  1  0.92659982  0.01909228  0.67591387  1
  O  O519  1  0.92675643  0.01886216  0.92669177  1
  O  O520  1  0.92566976  0.35262726  0.17498223  1
  O  O521  1  0.92672221  0.35119610  0.42609186  1
  O  O522  1  0.92730048  0.35059761  0.67581619  1
  O  O523  1  0.92729161  0.35104127  0.92596777  1
  O  O524  1  0.92724977  0.68708519  0.17686972  1
  O  O525  1  0.92540309  0.68731143  0.42438185  1
  O  O526  1  0.92546283  0.68697993  0.67503027  1
  O  O527  1  0.92562010  0.68715211  0.92542064  1
  O  O528  1  0.17687102  0.02175743  0.19894136  1
  O  O529  1  0.17631721  0.02115029  0.45031443  1
  O  O530  1  0.17835035  0.02009657  0.69828425  1
  O  O531  1  0.17685064  0.02264328  0.94983787  1
  O  O532  1  0.17662913  0.35235020  0.19924994  1
  O  O533  1  0.17720277  0.35471559  0.45055857  1
  O  O534  1  0.17906339  0.35240423  0.69841448  1
  O  O535  1  0.17708382  0.35464830  0.94916811  1
  O  O536  1  0.17711207  0.68487359  0.19924307  1
  O  O537  1  0.17506348  0.68685046  0.45052255  1
  O  O538  1  0.17647856  0.68472080  0.69906396  1
  O  O539  1  0.17578677  0.68646683  0.95005419  1
  O  O540  1  0.67650193  0.02149779  0.19983798  1
  O  O541  1  0.67662358  0.01915423  0.44996516  1
  O  O542  1  0.67760196  0.01887456  0.69855282  1
  O  O543  1  0.67683378  0.01838376  0.94862978  1
  O  O544  1  0.67669414  0.35443522  0.19977991  1
  O  O545  1  0.67792752  0.35279177  0.44894413  1
  O  O546  1  0.67863199  0.35218267  0.69758234  1
  O  O547  1  0.67934549  0.35208676  0.94777476  1
  O  O548  1  0.67631708  0.68650514  0.20137150  1
  O  O549  1  0.67594914  0.68716849  0.45024343  1
  O  O550  1  0.67710575  0.68448202  0.69969129  1
  O  O551  1  0.67667626  0.68632573  0.94989765  1
  O  O552  1  0.32224983  0.31478874  0.05087531  1
  O  O553  1  0.32439620  0.31401022  0.29977269  1
  O  O554  1  0.32174575  0.31485426  0.55225052  1
  O  O555  1  0.32374277  0.31215535  0.79959628  1
  O  O556  1  0.32354231  0.64812793  0.05078097  1
  O  O557  1  0.32288566  0.64550356  0.30137503  1
  O  O558  1  0.32179496  0.64734427  0.55156158  1
  O  O559  1  0.32361314  0.64486877  0.79974896  1
  O  O560  1  0.32365170  0.98126431  0.04885031  1
  O  O561  1  0.32378787  0.98055633  0.29933466  1
  O  O562  1  0.32249680  0.98193193  0.55107103  1
  O  O563  1  0.32368717  0.98033450  0.79900017  1
  O  O564  1  0.82346184  0.31173762  0.05015029  1
  O  O565  1  0.82304862  0.31490690  0.30111097  1
  O  O566  1  0.82207576  0.31341135  0.55176692  1
  O  O567  1  0.82250101  0.31395602  0.80036180  1
  O  O568  1  0.82330638  0.64513123  0.05028393  1
  O  O569  1  0.82294900  0.64533755  0.30037000  1
  O  O570  1  0.82181113  0.64647386  0.55115824  1
  O  O571  1  0.82349937  0.64444941  0.79982923  1
  O  O572  1  0.82378578  0.97956253  0.04979484  1
  O  O573  1  0.82193624  0.98098982  0.30218648  1
  O  O574  1  0.82260534  0.98095069  0.55074320  1
  O  O575  1  0.82188974  0.97982911  0.80149162  1
  O  O576  1  0.42709043  0.14727337  0.17292733  1
  O  O577  1  0.42695830  0.14873588  0.42618236  1
  O  O578  1  0.42742570  0.14507270  0.67575433  1
  O  O579  1  0.42738046  0.14582865  0.92388072  1
  O  O580  1  0.42710442  0.48157342  0.17558759  1
  O  O581  1  0.42714839  0.48217130  0.42664748  1
  O  O582  1  0.42740237  0.47798553  0.67591651  1
  O  O583  1  0.42754833  0.47883995  0.92489621  1
  O  O584  1  0.42688750  0.81330515  0.17529395  1
  O  O585  1  0.42648447  0.81482895  0.42552774  1
  O  O586  1  0.42686877  0.81398263  0.67608941  1
  O  O587  1  0.42673319  0.81510874  0.92518071  1
  O  O588  1  0.92793907  0.14790589  0.17683404  1
  O  O589  1  0.92739650  0.14669820  0.42718298  1
  O  O590  1  0.92714241  0.14598074  0.67533373  1
  O  O591  1  0.92666665  0.14591681  0.92522966  1
  O  O592  1  0.92576491  0.47946784  0.17461648  1
  O  O593  1  0.92656454  0.47848420  0.42583524  1
  O  O594  1  0.92740304  0.47768780  0.67498420  1
  O  O595  1  0.92751608  0.47821311  0.92474987  1
  O  O596  1  0.92743083  0.81473509  0.17730230  1
  O  O597  1  0.92554499  0.81411400  0.42404879  1
  O  O598  1  0.92512731  0.81414736  0.67502939  1
  O  O599  1  0.92557058  0.81425394  0.92548119  1
  O  O600  1  0.07350702  0.18735001  0.07430634  1
  O  O601  1  0.07315354  0.18488477  0.32510476  1
  O  O602  1  0.07112645  0.18559627  0.57355807  1
  O  O603  1  0.07306302  0.18682103  0.82466112  1
  O  O604  1  0.07405501  0.52059536  0.07646422  1
  O  O605  1  0.07272773  0.52058788  0.32488337  1
  O  O606  1  0.07353762  0.51939847  0.57530462  1
  O  O607  1  0.07415708  0.51948206  0.82540057  1
  O  O608  1  0.07269230  0.85519542  0.07558075  1
  O  O609  1  0.07129493  0.85401988  0.32310010  1
  O  O610  1  0.07242922  0.85475921  0.57461206  1
  O  O611  1  0.07257582  0.85492474  0.82500252  1
  O  O612  1  0.57422086  0.18825317  0.07418483  1
  O  O613  1  0.57432290  0.18686666  0.32464233  1
  O  O614  1  0.57304926  0.18448916  0.57472646  1
  O  O615  1  0.57400209  0.18703405  0.82523356  1
  O  O616  1  0.57445444  0.52058804  0.07572198  1
  O  O617  1  0.57184649  0.52021541  0.32354699  1
  O  O618  1  0.57285103  0.51801839  0.57370864  1
  O  O619  1  0.57479524  0.51974314  0.82541384  1
  O  O620  1  0.57263960  0.85285982  0.07273010  1
  O  O621  1  0.57403129  0.85356796  0.32497106  1
  O  O622  1  0.57304215  0.85119480  0.57398676  1
  O  O623  1  0.57206454  0.85272099  0.82358392  1
  O  O624  1  0.32276186  0.18735831  0.05116177  1
  O  O625  1  0.32408441  0.18739119  0.29961777  1
  O  O626  1  0.32296873  0.18738365  0.55162676  1
  O  O627  1  0.32303554  0.18526579  0.80032590  1
  O  O628  1  0.32415414  0.52099431  0.05079783  1
  O  O629  1  0.32242121  0.51836243  0.30103474  1
  O  O630  1  0.32269807  0.51999567  0.55210156  1
  O  O631  1  0.32338720  0.51784124  0.80071350  1
  O  O632  1  0.32395589  0.85421737  0.04916146  1
  O  O633  1  0.32336499  0.85343016  0.29973122  1
  O  O634  1  0.32315143  0.85469380  0.55038747  1
  O  O635  1  0.32262707  0.85327926  0.79823975  1
  O  O636  1  0.82277100  0.18459831  0.05128117  1
  O  O637  1  0.82343547  0.18783396  0.30128801  1
  O  O638  1  0.82141719  0.18595104  0.55172849  1
  O  O639  1  0.82361256  0.18702137  0.79933806  1
  O  O640  1  0.82365973  0.51786732  0.05097839  1
  O  O641  1  0.82312793  0.51836463  0.30154606  1
  O  O642  1  0.82225060  0.51900381  0.55140558  1
  O  O643  1  0.82363324  0.51755664  0.79965660  1
  O  O644  1  0.82350918  0.85295246  0.05015755  1
  O  O645  1  0.82099198  0.85334616  0.30268411  1
  O  O646  1  0.82280129  0.85408080  0.55011114  1
  O  O647  1  0.82136760  0.85228952  0.80111198  1
  O  O648  1  0.17680682  0.14900843  0.19851085  1
  O  O649  1  0.17659807  0.14793909  0.45099137  1
  O  O650  1  0.17699980  0.14748620  0.69791981  1
  O  O651  1  0.17715223  0.14972944  0.94821098  1
  O  O652  1  0.17646920  0.47934784  0.19947712  1
  O  O653  1  0.17691388  0.48169617  0.44957144  1
  O  O654  1  0.17727757  0.47965247  0.69861472  1
  O  O655  1  0.17790804  0.48177482  0.94928781  1
  O  O656  1  0.17685773  0.81229805  0.19959971  1
  O  O657  1  0.17540780  0.81380716  0.45039379  1
  O  O658  1  0.17574133  0.81208203  0.70002265  1
  O  O659  1  0.17586403  0.81337185  0.95043925  1
  O  O660  1  0.67760639  0.14872020  0.19952463  1
  O  O661  1  0.67714222  0.14605391  0.45079080  1
  O  O662  1  0.67847225  0.14630319  0.69836399  1
  O  O663  1  0.67663638  0.14536401  0.94873533  1
  O  O664  1  0.67732798  0.48132695  0.19916790  1
  O  O665  1  0.67791627  0.48008377  0.44867681  1
  O  O666  1  0.67726468  0.47922466  0.69820478  1
  O  O667  1  0.67805223  0.47951744  0.94768469  1
  O  O668  1  0.67624975  0.81344940  0.20058004  1
  O  O669  1  0.67752450  0.81433867  0.44978752  1
  O  O670  1  0.67651262  0.81163113  0.70005222  1
  O  O671  1  0.67716836  0.81354473  0.94854832  1
