# generated using pymatgen
data_Na2MnFe(PO4)2
_symmetry_space_group_name_H-M   'P 1'
_cell_length_a   22.34529794
_cell_length_b   20.09823193
_cell_length_c   19.44823295
_cell_angle_alpha   89.96022906
_cell_angle_beta   89.99684080
_cell_angle_gamma   89.98567607
_symmetry_Int_Tables_number   1
_chemical_formula_structural   Na2MnFe(PO4)2
_chemical_formula_sum   'Na96 Mn48 Fe48 P96 O384'
_cell_volume   8734.21809503
_cell_formula_units_Z   48
loop_
 _symmetry_equiv_pos_site_id
 _symmetry_equiv_pos_as_xyz
  1  'x, y, z'
loop_
 _atom_site_type_symbol
 _atom_site_label
 _atom_site_symmetry_multiplicity
 _atom_site_fract_x
 _atom_site_fract_y
 _atom_site_fract_z
 _atom_site_occupancy
  Na  Na0  1  0.14020126  0.25020114  0.24367892  1
  Na  Na1  1  0.14037652  0.25080391  0.49408551  1
  Na  Na2  1  0.14082160  0.25061945  0.74363293  1
  Na  Na3  1  0.13989509  0.25021707  0.99214002  1
  Na  Na4  1  0.14073633  0.58487281  0.24450726  1
  Na  Na5  1  0.14039266  0.58522644  0.49374273  1
  Na  Na6  1  0.14071549  0.58287704  0.74227683  1
  Na  Na7  1  0.14122154  0.58368351  0.99323100  1
  Na  Na8  1  0.13982438  0.91698584  0.24336887  1
  Na  Na9  1  0.14094104  0.91765548  0.49215808  1
  Na  Na10  1  0.14081403  0.91656298  0.74413820  1
  Na  Na11  1  0.14010612  0.91704011  0.99357194  1
  Na  Na12  1  0.63984187  0.25109050  0.24431824  1
  Na  Na13  1  0.63993844  0.25023281  0.49445107  1
  Na  Na14  1  0.63995405  0.25072965  0.74451262  1
  Na  Na15  1  0.64005749  0.25158021  0.99269225  1
  Na  Na16  1  0.63948919  0.58273438  0.24392508  1
  Na  Na17  1  0.63978734  0.58269723  0.49342470  1
  Na  Na18  1  0.64112236  0.58156978  0.74287317  1
  Na  Na19  1  0.64074338  0.58310411  0.99427071  1
  Na  Na20  1  0.64012296  0.91532093  0.24411536  1
  Na  Na21  1  0.64031259  0.91603167  0.49365170  1
  Na  Na22  1  0.64055005  0.91438759  0.74393643  1
  Na  Na23  1  0.64037545  0.91678238  0.99387149  1
  Na  Na24  1  0.35916634  0.08292530  0.00616054  1
  Na  Na25  1  0.35918933  0.08277069  0.25756296  1
  Na  Na26  1  0.35877439  0.08480972  0.50606765  1
  Na  Na27  1  0.35875753  0.08340889  0.75565722  1
  Na  Na28  1  0.36056837  0.41600759  0.00689513  1
  Na  Na29  1  0.35996244  0.41717747  0.25807490  1
  Na  Na30  1  0.35887351  0.41786324  0.50724749  1
  Na  Na31  1  0.35979226  0.41543582  0.75613430  1
  Na  Na32  1  0.35978582  0.75034067  0.00600375  1
  Na  Na33  1  0.35924776  0.75038844  0.25850961  1
  Na  Na34  1  0.35990206  0.75071125  0.50684483  1
  Na  Na35  1  0.35995011  0.74982982  0.75488505  1
  Na  Na36  1  0.85984667  0.08387245  0.00604077  1
  Na  Na37  1  0.85966050  0.08288970  0.25612642  1
  Na  Na38  1  0.85939852  0.08365938  0.50525266  1
  Na  Na39  1  0.85932948  0.08323739  0.75740385  1
  Na  Na40  1  0.86051991  0.41691000  0.00490683  1
  Na  Na41  1  0.86015310  0.41639609  0.25544712  1
  Na  Na42  1  0.85922536  0.41686375  0.50701885  1
  Na  Na43  1  0.85995925  0.41553506  0.75698431  1
  Na  Na44  1  0.86026138  0.75057538  0.00618030  1
  Na  Na45  1  0.86025906  0.74916791  0.25626227  1
  Na  Na46  1  0.85988262  0.74881155  0.50605778  1
  Na  Na47  1  0.85983790  0.74804955  0.75644249  1
  Na  Na48  1  0.10892247  0.08306884  0.11839147  1
  Na  Na49  1  0.10976688  0.08355352  0.36748565  1
  Na  Na50  1  0.11028076  0.08383816  0.61795777  1
  Na  Na51  1  0.10969086  0.08454724  0.86836463  1
  Na  Na52  1  0.10985824  0.41552153  0.11890080  1
  Na  Na53  1  0.10973738  0.41836836  0.36885333  1
  Na  Na54  1  0.11021244  0.41789287  0.61878953  1
  Na  Na55  1  0.11020802  0.41672873  0.86726038  1
  Na  Na56  1  0.11035512  0.75156410  0.11930539  1
  Na  Na57  1  0.10982192  0.75090561  0.36760176  1
  Na  Na58  1  0.11003573  0.74926291  0.61831384  1
  Na  Na59  1  0.11021882  0.75045409  0.86864654  1
  Na  Na60  1  0.60890138  0.08350974  0.11927129  1
  Na  Na61  1  0.60874117  0.08465181  0.36910531  1
  Na  Na62  1  0.60922579  0.08254266  0.61937150  1
  Na  Na63  1  0.60905265  0.08365087  0.86842149  1
  Na  Na64  1  0.60900121  0.41643073  0.11955843  1
  Na  Na65  1  0.60898186  0.41753069  0.36934883  1
  Na  Na66  1  0.61011957  0.41548874  0.61816500  1
  Na  Na67  1  0.61039244  0.41674488  0.86854574  1
  Na  Na68  1  0.60958933  0.74762506  0.11936451  1
  Na  Na69  1  0.60949329  0.74994678  0.36865731  1
  Na  Na70  1  0.60952693  0.74876941  0.61787656  1
  Na  Na71  1  0.61014057  0.74950582  0.86873536  1
  Na  Na72  1  0.39034047  0.25041365  0.13127322  1
  Na  Na73  1  0.39005785  0.25127859  0.38214800  1
  Na  Na74  1  0.38925235  0.24960427  0.63208608  1
  Na  Na75  1  0.38953045  0.25114447  0.88177998  1
  Na  Na76  1  0.39104190  0.58188591  0.13228671  1
  Na  Na77  1  0.39005779  0.58437490  0.38267602  1
  Na  Na78  1  0.38985521  0.58336120  0.63081562  1
  Na  Na79  1  0.39084634  0.58227849  0.88045915  1
  Na  Na80  1  0.38980074  0.91522263  0.13244414  1
  Na  Na81  1  0.38994666  0.91753233  0.38242484  1
  Na  Na82  1  0.39008191  0.91638777  0.63043948  1
  Na  Na83  1  0.39004856  0.91519341  0.88078324  1
  Na  Na84  1  0.89056164  0.24916000  0.12983049  1
  Na  Na85  1  0.89012141  0.25123717  0.38118214  1
  Na  Na86  1  0.89003946  0.25117773  0.63231179  1
  Na  Na87  1  0.89053039  0.25005781  0.88228019  1
  Na  Na88  1  0.89119091  0.58356427  0.13062901  1
  Na  Na89  1  0.89042679  0.58398157  0.38092777  1
  Na  Na90  1  0.89031486  0.58296086  0.63251887  1
  Na  Na91  1  0.89080061  0.58302478  0.88062733  1
  Na  Na92  1  0.89100407  0.91583208  0.13096698  1
  Na  Na93  1  0.89026699  0.91518980  0.38033879  1
  Na  Na94  1  0.89073993  0.91544988  0.63102843  1
  Na  Na95  1  0.89090601  0.91681938  0.88218829  1
  Mn  Mn96  1  0.25130701  0.49908467  0.87393207  1
  Mn  Mn97  1  0.00039368  0.00047756  0.75037634  1
  Mn  Mn98  1  -0.00064038  0.50145008  0.49950388  1
  Mn  Mn99  1  -0.00020057  -0.00020276  0.49939813  1
  Mn  Mn100  1  -0.00027405  0.16692409  0.24900103  1
  Mn  Mn101  1  0.00132299  0.66738355  0.00026198  1
  Mn  Mn102  1  0.25032219  0.33321831  0.12576509  1
  Mn  Mn103  1  0.74966255  0.16764582  0.37605322  1
  Mn  Mn104  1  0.49928151  0.33347311  0.49990559  1
  Mn  Mn105  1  0.49950255  -0.00139074  0.74899193  1
  Mn  Mn106  1  0.75044039  0.33398973  0.12416812  1
  Mn  Mn107  1  0.24981608  0.83359035  0.62408245  1
  Mn  Mn108  1  0.50057677  0.49901230  0.75011149  1
  Mn  Mn109  1  0.24937712  0.33384563  0.37588908  1
  Mn  Mn110  1  0.00002300  0.50018192  0.24964061  1
  Mn  Mn111  1  0.50080125  0.66656468  0.74989397  1
  Mn  Mn112  1  0.49967591  -0.00086377  -0.00007731  1
  Mn  Mn113  1  0.49983189  0.83284049  0.25062246  1
  Mn  Mn114  1  0.74954173  0.16737106  0.12525721  1
  Mn  Mn115  1  0.75030154  0.66592719  0.87456157  1
  Mn  Mn116  1  0.74983507  -0.00047170  0.87510988  1
  Mn  Mn117  1  0.00068484  0.83215796  0.50024695  1
  Mn  Mn118  1  0.74907586  -0.00088719  0.37557112  1
  Mn  Mn119  1  0.49960152  0.66477387  -0.00014666  1
  Mn  Mn120  1  0.49930455  0.16726234  -0.00009721  1
  Mn  Mn121  1  0.75072181  0.83170406  0.62473271  1
  Mn  Mn122  1  0.49968540  0.00040640  0.50048445  1
  Mn  Mn123  1  0.00153822  0.49943269  0.00019342  1
  Mn  Mn124  1  0.25089967  0.66710005  0.87441084  1
  Mn  Mn125  1  0.74932899  0.16736613  0.62588403  1
  Mn  Mn126  1  -0.00016502  0.16730080  0.49926825  1
  Mn  Mn127  1  0.75049062  0.49923240  0.37489070  1
  Mn  Mn128  1  0.74978918  -0.00001159  0.12481877  1
  Mn  Mn129  1  0.75017642  0.66630411  0.37487457  1
  Mn  Mn130  1  0.49944023  0.16749429  0.24955151  1
  Mn  Mn131  1  0.50043173  0.83198646  0.00110299  1
  Mn  Mn132  1  0.75026105  0.83230133  0.12459035  1
  Mn  Mn133  1  0.25030780  -0.00013419  0.87483365  1
  Mn  Mn134  1  0.25003343  0.50029301  0.12502698  1
  Mn  Mn135  1  0.24983270  0.16669845  0.12495891  1
  Mn  Mn136  1  0.25109112  0.66801964  0.12489652  1
  Mn  Mn137  1  0.74986556  0.50062754  0.12477837  1
  Mn  Mn138  1  -0.00017358  0.33453832  0.50025890  1
  Mn  Mn139  1  -0.00070747  0.16759561  0.74993433  1
  Mn  Mn140  1  0.49897782  0.16714960  0.75022548  1
  Mn  Mn141  1  0.00096569  0.83294630  0.75022833  1
  Mn  Mn142  1  0.24941405  -0.00049126  0.12546371  1
  Mn  Mn143  1  0.75023367  -0.00085875  0.62583841  1
  Fe  Fe144  1  0.24971261  0.16718994  0.37585395  1
  Fe  Fe145  1  0.00035122  0.16659374  0.00016383  1
  Fe  Fe146  1  0.50065508  0.49877255  0.00097274  1
  Fe  Fe147  1  0.49937889  0.16726059  0.49999736  1
  Fe  Fe148  1  0.00073482  0.66710137  0.24970437  1
  Fe  Fe149  1  -0.00056366  -0.00026909  0.24883568  1
  Fe  Fe150  1  0.24990102  0.33303040  0.87458303  1
  Fe  Fe151  1  0.49931615  0.50010255  0.49944794  1
  Fe  Fe152  1  0.25000818  0.66734727  0.37542667  1
  Fe  Fe153  1  0.00077815  0.33377425  0.75032120  1
  Fe  Fe154  1  -0.00011175  0.83342351  0.24957639  1
  Fe  Fe155  1  0.24957275  0.50109363  0.37624094  1
  Fe  Fe156  1  0.24972587  0.66711363  0.62433222  1
  Fe  Fe157  1  0.49982457  0.33400067  0.25059115  1
  Fe  Fe158  1  0.25021268  0.33331013  0.62515174  1
  Fe  Fe159  1  0.00034513  0.66678570  0.75027679  1
  Fe  Fe160  1  0.49968447  0.66652383  0.50015449  1
  Fe  Fe161  1  0.75057228  0.66658527  0.12455476  1
  Fe  Fe162  1  0.74936836  0.16679449  0.87509516  1
  Fe  Fe163  1  0.49963108  0.00017953  0.25082031  1
  Fe  Fe164  1  0.74989289  0.49898676  0.62482546  1
  Fe  Fe165  1  0.75016582  0.33361725  0.87448899  1
  Fe  Fe166  1  0.24947538  0.16690117  0.62489822  1
  Fe  Fe167  1  0.00015702  0.83355575  0.00012247  1
  Fe  Fe168  1  0.50057276  0.83337480  0.49946410  1
  Fe  Fe169  1  0.49978274  0.33345240  0.75000128  1
  Fe  Fe170  1  0.50011470  0.83259268  0.74957567  1
  Fe  Fe171  1  0.24977957  0.00058807  0.62433791  1
  Fe  Fe172  1  0.75039845  0.83241909  0.87502366  1
  Fe  Fe173  1  0.24920450  0.00079173  0.37487292  1
  Fe  Fe174  1  0.25002642  0.83329475  0.87422024  1
  Fe  Fe175  1  0.25012054  0.83380740  0.12562247  1
  Fe  Fe176  1  0.49954426  0.50002399  0.25049178  1
  Fe  Fe177  1  0.74994086  0.83232068  0.37496915  1
  Fe  Fe178  1  0.75056101  0.33318916  0.62582788  1
  Fe  Fe179  1  0.00016434  -0.00015720  0.00015307  1
  Fe  Fe180  1  -0.00018346  0.33324577  0.24914708  1
  Fe  Fe181  1  0.25014430  0.83424419  0.37569215  1
  Fe  Fe182  1  0.24984139  0.16668362  0.87428650  1
  Fe  Fe183  1  -0.00012791  0.66678486  0.49996859  1
  Fe  Fe184  1  0.25018978  0.50023970  0.62476425  1
  Fe  Fe185  1  0.00031716  0.33325315  -0.00090863  1
  Fe  Fe186  1  0.74938094  0.66550941  0.62513224  1
  Fe  Fe187  1  0.75079182  0.49968273  0.87395430  1
  Fe  Fe188  1  0.49997132  0.33402604  0.00099884  1
  Fe  Fe189  1  0.74948504  0.33356249  0.37539868  1
  Fe  Fe190  1  0.00060203  0.50033866  0.75016798  1
  Fe  Fe191  1  0.49940007  0.66609559  0.25103855  1
  P  P192  1  0.04148015  0.25035379  0.10131302  1
  P  P193  1  0.04216458  0.25166481  0.35181405  1
  P  P194  1  0.04255960  0.25090464  0.60342433  1
  P  P195  1  0.04222131  0.25139124  0.85295565  1
  P  P196  1  0.04376846  0.58370967  0.10356828  1
  P  P197  1  0.04218774  0.58522680  0.35246722  1
  P  P198  1  0.04180512  0.58479909  0.60314403  1
  P  P199  1  0.04239189  0.58371698  0.85148612  1
  P  P200  1  0.04148774  0.91659961  0.10207638  1
  P  P201  1  0.04103693  0.91679843  0.35085104  1
  P  P202  1  0.04352575  0.91641795  0.60275322  1
  P  P203  1  0.04297483  0.91697300  0.85417400  1
  P  P204  1  0.54201661  0.25155231  0.10292454  1
  P  P205  1  0.54162588  0.25159165  0.35285914  1
  P  P206  1  0.54155219  0.24900169  0.60277424  1
  P  P207  1  0.54144084  0.25201526  0.85305056  1
  P  P208  1  0.54210106  0.58099878  0.10365552  1
  P  P209  1  0.54086436  0.58320378  0.35274843  1
  P  P210  1  0.54112901  0.58251612  0.60119529  1
  P  P211  1  0.54349209  0.58237896  0.85328975  1
  P  P212  1  0.54275413  0.91624020  0.10421240  1
  P  P213  1  0.54162690  0.91774680  0.35322897  1
  P  P214  1  0.54229040  0.91466582  0.60248122  1
  P  P215  1  0.54221038  0.91483669  0.85216841  1
  P  P216  1  0.45696233  0.08197331  0.14793898  1
  P  P217  1  0.45738764  0.08512644  0.39748954  1
  P  P218  1  0.45676222  0.08340165  0.64633619  1
  P  P219  1  0.45662033  0.08315707  0.89675940  1
  P  P220  1  0.45809384  0.41648928  0.14860361  1
  P  P221  1  0.45705391  0.41849390  0.39707276  1
  P  P222  1  0.45777067  0.41543159  0.64716841  1
  P  P223  1  0.45890936  0.41653241  0.89849744  1
  P  P224  1  0.45737033  0.74773035  0.14852361  1
  P  P225  1  0.45868756  0.74982157  0.39849630  1
  P  P226  1  0.45832549  0.75079943  0.64635407  1
  P  P227  1  0.45749505  0.74947750  0.89660934  1
  P  P228  1  0.95768534  0.08183325  0.14622079  1
  P  P229  1  0.95721232  0.08317516  0.39562975  1
  P  P230  1  0.95691814  0.08356183  0.64687531  1
  P  P231  1  0.95889864  0.08349563  0.89873003  1
  P  P232  1  0.95808868  0.41508751  0.14656650  1
  P  P233  1  0.95685912  0.41734715  0.39631282  1
  P  P234  1  0.95907082  0.41713300  0.64886548  1
  P  P235  1  0.95902338  0.41599561  0.89649505  1
  P  P236  1  0.95912109  0.75031242  0.14794748  1
  P  P237  1  0.95825887  0.74868402  0.39666351  1
  P  P238  1  0.95806354  0.74832642  0.64757258  1
  P  P239  1  0.95839375  0.75087675  0.89744888  1
  P  P240  1  0.20695155  0.08350283  0.22895701  1
  P  P241  1  0.20809231  0.08395416  0.47715079  1
  P  P242  1  0.20857999  0.08354176  0.72649519  1
  P  P243  1  0.20767973  0.08441636  0.97687411  1
  P  P244  1  0.20745317  0.41745898  0.22911429  1
  P  P245  1  0.20768625  0.41885599  0.47873379  1
  P  P246  1  0.20917531  0.41632341  0.72645340  1
  P  P247  1  0.20803331  0.41562459  0.97685108  1
  P  P248  1  0.20865236  0.75182392  0.22866441  1
  P  P249  1  0.20877608  0.75056645  0.47671311  1
  P  P250  1  0.20791955  0.74921556  0.72706054  1
  P  P251  1  0.20829125  0.75178669  0.97745775  1
  P  P252  1  0.70675135  0.08330863  0.22843645  1
  P  P253  1  0.70644700  0.08340711  0.47871534  1
  P  P254  1  0.70697579  0.08325603  0.72904897  1
  P  P255  1  0.70727165  0.08453627  0.97733192  1
  P  P256  1  0.70715801  0.41659935  0.22825213  1
  P  P257  1  0.70772958  0.41536918  0.47847399  1
  P  P258  1  0.70897471  0.41597219  0.72725971  1
  P  P259  1  0.70930250  0.41751258  0.97586932  1
  P  P260  1  0.70784315  0.74809878  0.22759891  1
  P  P261  1  0.70767542  0.75006668  0.47769639  1
  P  P262  1  0.70773202  0.74774218  0.72752953  1
  P  P263  1  0.70794437  0.75026553  0.97749658  1
  P  P264  1  0.29230606  0.25014838  0.02105316  1
  P  P265  1  0.29215459  0.24908783  0.27359006  1
  P  P266  1  0.29083990  0.25023034  0.52341303  1
  P  P267  1  0.29129908  0.24988365  0.77250944  1
  P  P268  1  0.29360984  0.58356210  0.02186647  1
  P  P269  1  0.29135300  0.58376838  0.27426303  1
  P  P270  1  0.29093455  0.58397427  0.52284906  1
  P  P271  1  0.29303434  0.58322535  0.77036629  1
  P  P272  1  0.29210549  0.91532734  0.02248818  1
  P  P273  1  0.29101689  0.91682226  0.27385320  1
  P  P274  1  0.29168776  0.91870832  0.52147459  1
  P  P275  1  0.29213748  0.91574485  0.77170277  1
  P  P276  1  0.79227643  0.25021103  0.02047987  1
  P  P277  1  0.79213575  0.25162521  0.27284087  1
  P  P278  1  0.79220966  0.25169326  0.52292280  1
  P  P279  1  0.79148295  0.25003988  0.77365511  1
  P  P280  1  0.79306087  0.58461726  0.02183281  1
  P  P281  1  0.79303685  0.58329379  0.27130046  1
  P  P282  1  0.79128348  0.58279269  0.52364144  1
  P  P283  1  0.79240033  0.58124385  0.77125885  1
  P  P284  1  0.79288710  0.91635377  0.02137504  1
  P  P285  1  0.79182504  0.91476839  0.27262772  1
  P  P286  1  0.79293142  0.91579618  0.52161008  1
  P  P287  1  0.79275747  0.91439438  0.77284610  1
  O  O288  1  0.03641681  0.25042886  0.18128727  1
  O  O289  1  0.03714812  0.25134696  0.43179978  1
  O  O290  1  0.03746100  0.25111324  0.68341033  1
  O  O291  1  0.03705250  0.25117468  0.93285024  1
  O  O292  1  0.03811805  0.58399652  0.18345658  1
  O  O293  1  0.03666759  0.58543021  0.43241479  1
  O  O294  1  0.03674947  0.58445525  0.68305351  1
  O  O295  1  0.03820792  0.58322916  0.93153266  1
  O  O296  1  0.03586761  0.91680191  0.18195208  1
  O  O297  1  0.03671939  0.91634144  0.43084796  1
  O  O298  1  0.03880199  0.91651699  0.68274446  1
  O  O299  1  0.03740651  0.91695139  0.93408095  1
  O  O300  1  0.53661071  0.25174382  0.18287078  1
  O  O301  1  0.53624022  0.25070143  0.43278011  1
  O  O302  1  0.53632041  0.24975144  0.68270814  1
  O  O303  1  0.53636441  0.25216987  0.93302057  1
  O  O304  1  0.53646161  0.58130101  0.18349949  1
  O  O305  1  0.53561263  0.58333915  0.43264697  1
  O  O306  1  0.53671079  0.58279188  0.68118057  1
  O  O307  1  0.53852233  0.58182566  0.93322058  1
  O  O308  1  0.53746192  0.91684015  0.18418860  1
  O  O309  1  0.53618633  0.91713955  0.43316353  1
  O  O310  1  0.53703120  0.91417357  0.68243699  1
  O  O311  1  0.53719604  0.91509207  0.93218869  1
  O  O312  1  0.46213963  0.08215716  0.06794983  1
  O  O313  1  0.46267609  0.08454367  0.31755430  1
  O  O314  1  0.46219893  0.08414488  0.56641004  1
  O  O315  1  0.46176362  0.08313459  0.81678582  1
  O  O316  1  0.46360455  0.41631225  0.06867740  1
  O  O317  1  0.46240428  0.41834778  0.31722174  1
  O  O318  1  0.46254655  0.41584817  0.56724699  1
  O  O319  1  0.46377226  0.41618731  0.81850214  1
  O  O320  1  0.46246871  0.74778985  0.06856927  1
  O  O321  1  0.46332039  0.74894015  0.31851498  1
  O  O322  1  0.46384468  0.75077308  0.56646447  1
  O  O323  1  0.46287226  0.75015946  0.81664118  1
  O  O324  1  0.96332078  0.08192092  0.06634716  1
  O  O325  1  0.96239067  0.08284585  0.31563376  1
  O  O326  1  0.96178911  0.08368107  0.56685306  1
  O  O327  1  0.96338035  0.08395284  0.81870228  1
  O  O328  1  0.96387581  0.41507461  0.06664890  1
  O  O329  1  0.96180496  0.41681529  0.31636697  1
  O  O330  1  0.96324846  0.41774270  0.56881169  1
  O  O331  1  0.96449110  0.41630874  0.81661975  1
  O  O332  1  0.96423322  0.75112013  0.06800247  1
  O  O333  1  0.96360898  0.74899038  0.31679445  1
  O  O334  1  0.96306644  0.74812463  0.56757990  1
  O  O335  1  0.96366186  0.75018336  0.81752552  1
  O  O336  1  0.21257723  0.08391765  0.05683476  1
  O  O337  1  0.21188224  0.08381593  0.30888035  1
  O  O338  1  0.21304510  0.08318244  0.55707657  1
  O  O339  1  0.21379115  0.08408718  0.80641835  1
  O  O340  1  0.21264799  0.41598697  0.05689022  1
  O  O341  1  0.21242134  0.41787864  0.30910453  1
  O  O342  1  0.21351568  0.41861752  0.55856897  1
  O  O343  1  0.21437782  0.41554317  0.80641006  1
  O  O344  1  0.21365490  0.75193905  0.05744159  1
  O  O345  1  0.21395800  0.75166551  0.30854576  1
  O  O346  1  0.21346258  0.74986368  0.55670604  1
  O  O347  1  0.21317420  0.74963991  0.80696797  1
  O  O348  1  0.71242432  0.08418886  0.05733683  1
  O  O349  1  0.71173600  0.08330879  0.30842461  1
  O  O350  1  0.71153433  0.08328976  0.55870154  1
  O  O351  1  0.71221172  0.08373412  0.80902455  1
  O  O352  1  0.71397663  0.41740254  0.05581714  1
  O  O353  1  0.71219039  0.41616890  0.30821264  1
  O  O354  1  0.71327523  0.41549742  0.55836061  1
  O  O355  1  0.71402194  0.41661229  0.80713490  1
  O  O356  1  0.71325651  0.74948045  0.05744172  1
  O  O357  1  0.71288860  0.74882408  0.30757596  1
  O  O358  1  0.71268114  0.74923415  0.55762980  1
  O  O359  1  0.71297335  0.74832161  0.80743298  1
  O  O360  1  0.28718729  0.24932110  0.19360180  1
  O  O361  1  0.28593270  0.24981164  0.44348581  1
  O  O362  1  0.28605492  0.25028187  0.69261757  1
  O  O363  1  0.28696524  0.25037023  0.94111033  1
  O  O364  1  0.28697358  0.58410319  0.19425306  1
  O  O365  1  0.28559528  0.58394484  0.44296103  1
  O  O366  1  0.28732944  0.58321384  0.69049688  1
  O  O367  1  0.28871801  0.58350888  0.94188103  1
  O  O368  1  0.28652500  0.91646118  0.19383006  1
  O  O369  1  0.28611803  0.91841918  0.44161655  1
  O  O370  1  0.28671282  0.91659957  0.69181146  1
  O  O371  1  0.28703559  0.91542280  0.94251460  1
  O  O372  1  0.78708438  0.25123544  0.19283553  1
  O  O373  1  0.78686229  0.25200716  0.44298452  1
  O  O374  1  0.78687354  0.25055256  0.69365227  1
  O  O375  1  0.78693836  0.24979756  0.94059244  1
  O  O376  1  0.78803185  0.58404120  0.19135706  1
  O  O377  1  0.78678108  0.58255566  0.44361347  1
  O  O378  1  0.78667963  0.58149785  0.69143631  1
  O  O379  1  0.78798920  0.58405732  0.94190546  1
  O  O380  1  0.78681242  0.91506808  0.19264534  1
  O  O381  1  0.78737921  0.91532353  0.44168794  1
  O  O382  1  0.78775881  0.91461372  0.69284094  1
  O  O383  1  0.78778680  0.91589026  0.94142312  1
  O  O384  1  0.22803916  0.25039028  0.05669689  1
  O  O385  1  0.22774946  0.24901401  0.30891548  1
  O  O386  1  0.22676552  0.25084935  0.55933286  1
  O  O387  1  0.22730446  0.24967989  0.80905235  1
  O  O388  1  0.22913726  0.58415035  0.05683072  1
  O  O389  1  0.22707999  0.58354752  0.30976172  1
  O  O390  1  0.22704299  0.58360303  0.55953908  1
  O  O391  1  0.22897187  0.58305479  0.80645405  1
  O  O392  1  0.22778392  0.91499900  0.05821387  1
  O  O393  1  0.22673054  0.91613787  0.30937209  1
  O  O394  1  0.22766927  0.91867868  0.55785594  1
  O  O395  1  0.22801883  0.91561464  0.80781353  1
  O  O396  1  0.72803892  0.25051287  0.05618843  1
  O  O397  1  0.72774062  0.25184424  0.30827136  1
  O  O398  1  0.72792913  0.25211383  0.55869654  1
  O  O399  1  0.72720180  0.24957474  0.80921862  1
  O  O400  1  0.72869341  0.58526510  0.05748026  1
  O  O401  1  0.72866472  0.58282653  0.30655210  1
  O  O402  1  0.72695294  0.58304629  0.55904312  1
  O  O403  1  0.72833471  0.58116919  0.80759320  1
  O  O404  1  0.72849760  0.91620504  0.05654848  1
  O  O405  1  0.72751633  0.91422841  0.30820214  1
  O  O406  1  0.72864243  0.91575411  0.55707112  1
  O  O407  1  0.72835395  0.91442693  0.80813745  1
  O  O408  1  0.27127583  0.08316271  0.19351511  1
  O  O409  1  0.27214989  0.08444877  0.44088547  1
  O  O410  1  0.27255460  0.08288519  0.69012736  1
  O  O411  1  0.27197020  0.08485567  0.94129846  1
  O  O412  1  0.27187714  0.41717887  0.19392532  1
  O  O413  1  0.27172161  0.41866702  0.44236340  1
  O  O414  1  0.27320520  0.41685751  0.69026326  1
  O  O415  1  0.27255030  0.41497091  0.94186455  1
  O  O416  1  0.27280693  0.75239632  0.19249152  1
  O  O417  1  0.27298594  0.75129973  0.44104049  1
  O  O418  1  0.27207415  0.74911163  0.69111276  1
  O  O419  1  0.27249449  0.75179108  0.94153666  1
  O  O420  1  0.77124333  0.08354252  0.19346412  1
  O  O421  1  0.77085728  0.08326943  0.44365603  1
  O  O422  1  0.77135594  0.08343768  0.69382120  1
  O  O423  1  0.77159374  0.08471881  0.94180889  1
  O  O424  1  0.77155454  0.41728654  0.19304302  1
  O  O425  1  0.77187983  0.41477116  0.44225047  1
  O  O426  1  0.77307359  0.41561987  0.69108354  1
  O  O427  1  0.77349807  0.41756543  0.94015026  1
  O  O428  1  0.77220194  0.74765481  0.19203135  1
  O  O429  1  0.77203235  0.75066605  0.44220685  1
  O  O430  1  0.77204506  0.74681424  0.69193366  1
  O  O431  1  0.77222465  0.75063176  0.94174616  1
  O  O432  1  0.02173463  0.08188039  0.18255162  1
  O  O433  1  0.02157223  0.08349285  0.43097234  1
  O  O434  1  0.02147655  0.08406074  0.68160156  1
  O  O435  1  0.02311729  0.08294650  0.93426551  1
  O  O436  1  0.02215564  0.41525629  0.18282150  1
  O  O437  1  0.02127146  0.41792911  0.43142792  1
  O  O438  1  0.02342764  0.41653135  0.68407904  1
  O  O439  1  0.02314218  0.41535206  0.93267559  1
  O  O440  1  0.02318543  0.75005680  0.18407172  1
  O  O441  1  0.02245588  0.74784029  0.43282359  1
  O  O442  1  0.02245470  0.74814718  0.68300750  1
  O  O443  1  0.02266261  0.75183079  0.93318937  1
  O  O444  1  0.52127570  0.08202726  0.18349218  1
  O  O445  1  0.52155778  0.08542359  0.43345578  1
  O  O446  1  0.52096615  0.08329850  0.68193527  1
  O  O447  1  0.52102678  0.08336268  0.93187167  1
  O  O448  1  0.52210444  0.41665933  0.18516414  1
  O  O449  1  0.52122797  0.41830107  0.43310809  1
  O  O450  1  0.52216142  0.41474994  0.68261653  1
  O  O451  1  0.52308409  0.41684492  0.93454156  1
  O  O452  1  0.52171586  0.74788983  0.18397530  1
  O  O453  1  0.52289687  0.75018637  0.43413189  1
  O  O454  1  0.52240519  0.75131500  0.68273824  1
  O  O455  1  0.52176210  0.74879225  0.93215720  1
  O  O456  1  0.47775976  0.25171040  0.06715442  1
  O  O457  1  0.47744162  0.25203378  0.31693462  1
  O  O458  1  0.47724467  0.24861458  0.56707241  1
  O  O459  1  0.47716888  0.25217485  0.81734467  1
  O  O460  1  0.47805577  0.58027268  0.06722455  1
  O  O461  1  0.47683637  0.58309928  0.31631829  1
  O  O462  1  0.47683527  0.58229214  0.56572107  1
  O  O463  1  0.47911820  0.58267327  0.81806649  1
  O  O464  1  0.47835945  0.91576717  0.06897952  1
  O  O465  1  0.47745140  0.91766251  0.31726822  1
  O  O466  1  0.47804909  0.91490906  0.56676158  1
  O  O467  1  0.47783229  0.91437847  0.81675184  1
  O  O468  1  0.97744372  0.25062595  0.06515514  1
  O  O469  1  0.97781419  0.25171159  0.31634861  1
  O  O470  1  0.97814216  0.25058974  0.56829228  1
  O  O471  1  0.97796599  0.25215437  0.81709699  1
  O  O472  1  0.97957301  0.58339027  0.06791814  1
  O  O473  1  0.97808085  0.58522845  0.31640169  1
  O  O474  1  0.97753577  0.58552524  0.56721638  1
  O  O475  1  0.97802612  0.58415667  0.81623830  1
  O  O476  1  0.97758709  0.91655178  0.06527675  1
  O  O477  1  0.97683253  0.91708207  0.31521478  1
  O  O478  1  0.97896360  0.91599613  0.56807192  1
  O  O479  1  0.97879589  0.91660849  0.81831745  1
  O  O480  1  0.07298321  0.31349467  0.07301245  1
  O  O481  1  0.07282884  0.31529905  0.32349889  1
  O  O482  1  0.07356207  0.31434476  0.57510748  1
  O  O483  1  0.07357808  0.31445687  0.82402188  1
  O  O484  1  0.07492083  0.64706172  0.07522455  1
  O  O485  1  0.07332980  0.64840905  0.32372977  1
  O  O486  1  0.07308644  0.64788444  0.57419748  1
  O  O487  1  0.07332249  0.64736316  0.82357041  1
  O  O488  1  0.07260576  0.98013381  0.07374902  1
  O  O489  1  0.07198290  0.98038129  0.32277967  1
  O  O490  1  0.07415243  0.97992939  0.57412461  1
  O  O491  1  0.07386597  0.98061441  0.82587559  1
  O  O492  1  0.57317006  0.31476102  0.07420824  1
  O  O493  1  0.57232908  0.31541511  0.32494357  1
  O  O494  1  0.57263766  0.31242513  0.57442917  1
  O  O495  1  0.57243679  0.31520585  0.82401180  1
  O  O496  1  0.57291053  0.64473816  0.07549704  1
  O  O497  1  0.57166468  0.64691149  0.32420118  1
  O  O498  1  0.57146862  0.64639344  0.57267234  1
  O  O499  1  0.57443884  0.64593861  0.82505521  1
  O  O500  1  0.57376942  0.97942815  0.07524674  1
  O  O501  1  0.57197859  0.98167391  0.32511783  1
  O  O502  1  0.57326749  0.97866909  0.57528306  1
  O  O503  1  0.57287456  0.97872182  0.82430412  1
  O  O504  1  0.42635753  0.01845539  0.17665705  1
  O  O505  1  0.42622338  0.02165062  0.42554009  1
  O  O506  1  0.42599756  0.01940684  0.67376283  1
  O  O507  1  0.42572506  0.01954236  0.92478500  1
  O  O508  1  0.42721581  0.35283331  0.17700837  1
  O  O509  1  0.42568029  0.35507540  0.42519346  1
  O  O510  1  0.42696545  0.35197790  0.67594173  1
  O  O511  1  0.42803451  0.35304490  0.92705722  1
  O  O512  1  0.42678475  0.68418431  0.17716225  1
  O  O513  1  0.42806631  0.68629801  0.42762571  1
  O  O514  1  0.42764818  0.68684338  0.67423710  1
  O  O515  1  0.42624038  0.68582952  0.92422084  1
  O  O516  1  0.92671209  0.01847447  0.17500151  1
  O  O517  1  0.92612419  0.01984779  0.42411307  1
  O  O518  1  0.92639711  0.01983159  0.67515630  1
  O  O519  1  0.92757274  0.02004886  0.92652483  1
  O  O520  1  0.92713820  0.35167897  0.17504335  1
  O  O521  1  0.92595831  0.35415566  0.42533722  1
  O  O522  1  0.92797292  0.35358506  0.67682580  1
  O  O523  1  0.92763895  0.35281441  0.92501773  1
  O  O524  1  0.92830954  0.68639916  0.17554931  1
  O  O525  1  0.92676174  0.68566150  0.42546974  1
  O  O526  1  0.92701608  0.68527888  0.67674034  1
  O  O527  1  0.92773080  0.68710052  0.92565440  1
  O  O528  1  0.17586925  0.02007493  0.20043943  1
  O  O529  1  0.17757301  0.02037270  0.44792958  1
  O  O530  1  0.17736279  0.01996463  0.69875222  1
  O  O531  1  0.17700607  0.02061854  0.94902523  1
  O  O532  1  0.17657868  0.35376752  0.20111302  1
  O  O533  1  0.17617876  0.35542166  0.45089286  1
  O  O534  1  0.17830367  0.35284209  0.69792064  1
  O  O535  1  0.17703038  0.35238793  0.94816852  1
  O  O536  1  0.17794282  0.68808429  0.20042711  1
  O  O537  1  0.17844885  0.68684051  0.44790132  1
  O  O538  1  0.17737405  0.68551515  0.69862276  1
  O  O539  1  0.17731569  0.68789862  0.94998459  1
  O  O540  1  0.67603819  0.01971216  0.20019018  1
  O  O541  1  0.67525019  0.02008919  0.45055325  1
  O  O542  1  0.67634374  0.01936642  0.70121109  1
  O  O543  1  0.67623539  0.02085754  0.94965051  1
  O  O544  1  0.67635517  0.35328742  0.19949582  1
  O  O545  1  0.67637415  0.35228495  0.44976199  1
  O  O546  1  0.67774270  0.35243520  0.69933837  1
  O  O547  1  0.67875239  0.35370656  0.94751946  1
  O  O548  1  0.67725398  0.68446654  0.19913775  1
  O  O549  1  0.67664766  0.68657967  0.44947794  1
  O  O550  1  0.67667689  0.68426737  0.69920243  1
  O  O551  1  0.67669882  0.68691567  0.94934972  1
  O  O552  1  0.32367408  0.31323340  0.04998397  1
  O  O553  1  0.32307180  0.31275093  0.30142270  1
  O  O554  1  0.32211520  0.31383332  0.55118907  1
  O  O555  1  0.32209478  0.31348666  0.80112679  1
  O  O556  1  0.32483984  0.64685201  0.05008062  1
  O  O557  1  0.32164407  0.64768834  0.30283394  1
  O  O558  1  0.32159065  0.64788393  0.55092625  1
  O  O559  1  0.32432102  0.64654229  0.79860625  1
  O  O560  1  0.32262418  0.97932960  0.05039192  1
  O  O561  1  0.32075971  0.98114735  0.30219071  1
  O  O562  1  0.32254474  0.98210446  0.55010200  1
  O  O563  1  0.32351097  0.97898493  0.80000698  1
  O  O564  1  0.82358539  0.31372065  0.04835676  1
  O  O565  1  0.82281301  0.31515009  0.30114822  1
  O  O566  1  0.82360804  0.31459984  0.55190146  1
  O  O567  1  0.82186143  0.31387519  0.80221538  1
  O  O568  1  0.82386684  0.64814476  0.05025664  1
  O  O569  1  0.82408875  0.64641808  0.30024313  1
  O  O570  1  0.82206754  0.64647191  0.55160573  1
  O  O571  1  0.82371538  0.64461981  0.79938734  1
  O  O572  1  0.82350952  0.98016295  0.04937199  1
  O  O573  1  0.82262701  0.97851073  0.30035639  1
  O  O574  1  0.82381774  0.97947422  0.54961009  1
  O  O575  1  0.82387729  0.97804190  0.80043459  1
  O  O576  1  0.42585430  0.14578028  0.17528352  1
  O  O577  1  0.42670014  0.14884703  0.42567851  1
  O  O578  1  0.42521269  0.14632720  0.67496127  1
  O  O579  1  0.42559053  0.14664172  0.92485372  1
  O  O580  1  0.42692478  0.47995269  0.17685307  1
  O  O581  1  0.42637997  0.48196187  0.42594055  1
  O  O582  1  0.42702690  0.47907544  0.67532583  1
  O  O583  1  0.42811743  0.48025513  0.92663629  1
  O  O584  1  0.42622818  0.81133014  0.17626535  1
  O  O585  1  0.42775574  0.81365736  0.42605530  1
  O  O586  1  0.42689791  0.81388939  0.67501209  1
  O  O587  1  0.42649706  0.81266687  0.92548255  1
  O  O588  1  0.92640286  0.14546478  0.17399838  1
  O  O589  1  0.92618878  0.14682057  0.42361277  1
  O  O590  1  0.92556640  0.14676611  0.67527576  1
  O  O591  1  0.92881238  0.14756244  0.92713967  1
  O  O592  1  0.92687267  0.47885129  0.17392128  1
  O  O593  1  0.92578475  0.48094121  0.42441742  1
  O  O594  1  0.92899298  0.48107829  0.67753438  1
  O  O595  1  0.92825363  0.47977542  0.92464403  1
  O  O596  1  0.92817878  0.81373947  0.17673205  1
  O  O597  1  0.92771946  0.81253413  0.42497016  1
  O  O598  1  0.92737088  0.81231262  0.67515050  1
  O  O599  1  0.92721283  0.81419074  0.92575323  1
  O  O600  1  0.07166493  0.18606240  0.07331609  1
  O  O601  1  0.07315736  0.18807020  0.32386555  1
  O  O602  1  0.07361411  0.18746670  0.57507724  1
  O  O603  1  0.07286629  0.18753974  0.82485256  1
  O  O604  1  0.07502192  0.52020940  0.07564523  1
  O  O605  1  0.07323571  0.52137956  0.32514531  1
  O  O606  1  0.07242433  0.52101547  0.57478338  1
  O  O607  1  0.07255975  0.51981196  0.82271697  1
  O  O608  1  0.07246455  0.85291338  0.07402290  1
  O  O609  1  0.07137995  0.85287555  0.32240020  1
  O  O610  1  0.07455179  0.85292948  0.57456295  1
  O  O611  1  0.07453384  0.85386962  0.82573023  1
  O  O612  1  0.57280371  0.18765206  0.07523498  1
  O  O613  1  0.57289181  0.18832486  0.32450770  1
  O  O614  1  0.57237587  0.18540252  0.57456693  1
  O  O615  1  0.57229563  0.18815654  0.82540884  1
  O  O616  1  0.57345801  0.51782588  0.07499839  1
  O  O617  1  0.57205851  0.51974824  0.32453960  1
  O  O618  1  0.57205012  0.51889385  0.57323600  1
  O  O619  1  0.57454908  0.51918018  0.82442689  1
  O  O620  1  0.57388452  0.85248736  0.07662981  1
  O  O621  1  0.57317493  0.85441105  0.32541156  1
  O  O622  1  0.57333711  0.85162164  0.57332060  1
  O  O623  1  0.57322554  0.85148661  0.82376934  1
  O  O624  1  0.32334719  0.18659993  0.04935612  1
  O  O625  1  0.32286872  0.18557167  0.30205481  1
  O  O626  1  0.32129366  0.18655448  0.55229359  1
  O  O627  1  0.32227639  0.18618366  0.80060156  1
  O  O628  1  0.32405326  0.51979892  0.05022700  1
  O  O629  1  0.32228617  0.52024852  0.30252678  1
  O  O630  1  0.32234509  0.52063030  0.55114223  1
  O  O631  1  0.32451706  0.51983746  0.79858511  1
  O  O632  1  0.32332148  0.85228520  0.05144574  1
  O  O633  1  0.32288613  0.85398042  0.30255365  1
  O  O634  1  0.32300943  0.85510782  0.54933662  1
  O  O635  1  0.32259222  0.85183989  0.79979567  1
  O  O636  1  0.82334819  0.18697785  0.04948617  1
  O  O637  1  0.82307584  0.18788511  0.30070296  1
  O  O638  1  0.82279495  0.18758062  0.55046308  1
  O  O639  1  0.82255365  0.18648049  0.80179697  1
  O  O640  1  0.82388965  0.52095743  0.04999803  1
  O  O641  1  0.82414738  0.51970437  0.29923180  1
  O  O642  1  0.82184477  0.51897813  0.55201859  1
  O  O643  1  0.82336830  0.51781674  0.79993092  1
  O  O644  1  0.82435448  0.85327678  0.04997170  1
  O  O645  1  0.82260111  0.85111936  0.30087047  1
  O  O646  1  0.82444241  0.85259667  0.54993215  1
  O  O647  1  0.82320730  0.85063567  0.80119078  1
  O  O648  1  0.17585189  0.14678975  0.20012749  1
  O  O649  1  0.17694119  0.14765163  0.44929120  1
  O  O650  1  0.17806861  0.14736092  0.69786667  1
  O  O651  1  0.17677898  0.14784432  0.94842735  1
  O  O652  1  0.17639886  0.48070132  0.20035269  1
  O  O653  1  0.17682591  0.48235979  0.45009043  1
  O  O654  1  0.17808750  0.48013628  0.69895984  1
  O  O655  1  0.17746884  0.47947325  0.94861075  1
  O  O656  1  0.17739558  0.81500009  0.19981822  1
  O  O657  1  0.17747909  0.81415318  0.44896021  1
  O  O658  1  0.17649126  0.81257747  0.69904588  1
  O  O659  1  0.17738558  0.81501286  0.94845906  1
  O  O660  1  0.67563965  0.14682050  0.20035044  1
  O  O661  1  0.67563312  0.14707420  0.45062472  1
  O  O662  1  0.67546000  0.14637977  0.70059709  1
  O  O663  1  0.67638963  0.14809431  0.94915702  1
  O  O664  1  0.67592415  0.48005336  0.20011667  1
  O  O665  1  0.67698506  0.47922878  0.45036981  1
  O  O666  1  0.67836821  0.47952332  0.69793677  1
  O  O667  1  0.67840978  0.48114718  0.94786780  1
  O  O668  1  0.67662086  0.81151188  0.19944918  1
  O  O669  1  0.67702162  0.81369132  0.44916660  1
  O  O670  1  0.67693789  0.81132782  0.69925308  1
  O  O671  1  0.67730663  0.81403248  0.94924941  1
