# generated using pymatgen
data_Na2MnFe(PO4)2
_symmetry_space_group_name_H-M   'P 1'
_cell_length_a   22.34146460
_cell_length_b   20.09444451
_cell_length_c   19.45039646
_cell_angle_alpha   90.00522884
_cell_angle_beta   89.99802017
_cell_angle_gamma   89.97459075
_symmetry_Int_Tables_number   1
_chemical_formula_structural   Na2MnFe(PO4)2
_chemical_formula_sum   'Na96 Mn48 Fe48 P96 O384'
_cell_volume   8732.04687236
_cell_formula_units_Z   48
loop_
 _symmetry_equiv_pos_site_id
 _symmetry_equiv_pos_as_xyz
  1  'x, y, z'
loop_
 _atom_site_type_symbol
 _atom_site_label
 _atom_site_symmetry_multiplicity
 _atom_site_fract_x
 _atom_site_fract_y
 _atom_site_fract_z
 _atom_site_occupancy
  Na  Na0  1  0.14023678  0.25032009  0.24478755  1
  Na  Na1  1  0.14074138  0.24999418  0.49292465  1
  Na  Na2  1  0.13978867  0.25214312  0.74236520  1
  Na  Na3  1  0.14029020  0.25187760  0.99334026  1
  Na  Na4  1  0.14112113  0.58203156  0.24472889  1
  Na  Na5  1  0.14148149  0.58317897  0.49332867  1
  Na  Na6  1  0.14009257  0.58454581  0.74267509  1
  Na  Na7  1  0.14036753  0.58285214  0.99282677  1
  Na  Na8  1  0.14014394  0.91488324  0.24412175  1
  Na  Na9  1  0.14039673  0.91552680  0.49173779  1
  Na  Na10  1  0.14017920  0.91731074  0.74195702  1
  Na  Na11  1  0.14004391  0.91643942  0.99311058  1
  Na  Na12  1  0.64034732  0.25047136  0.24455204  1
  Na  Na13  1  0.64048823  0.25168275  0.49449951  1
  Na  Na14  1  0.63984770  0.25004610  0.74213308  1
  Na  Na15  1  0.64001566  0.24999527  0.99393781  1
  Na  Na16  1  0.64087841  0.58418450  0.24554646  1
  Na  Na17  1  0.64098742  0.58247497  0.49422625  1
  Na  Na18  1  0.63994241  0.58279544  0.74297507  1
  Na  Na19  1  0.64045767  0.58514688  0.99453555  1
  Na  Na20  1  0.64014804  0.91527032  0.24354220  1
  Na  Na21  1  0.64032103  0.91558349  0.49433269  1
  Na  Na22  1  0.64013564  0.91549451  0.74406313  1
  Na  Na23  1  0.63978702  0.91677901  0.99472805  1
  Na  Na24  1  0.35920473  0.08398638  0.00600123  1
  Na  Na25  1  0.35852832  0.08264170  0.25715122  1
  Na  Na26  1  0.35900610  0.08252512  0.50610464  1
  Na  Na27  1  0.35920872  0.08550995  0.75592468  1
  Na  Na28  1  0.35933533  0.41775632  0.00550394  1
  Na  Na29  1  0.35918587  0.41548904  0.25743744  1
  Na  Na30  1  0.35998962  0.41508238  0.50660464  1
  Na  Na31  1  0.35984638  0.41806078  0.75724661  1
  Na  Na32  1  0.35921687  0.74941080  0.00544111  1
  Na  Na33  1  0.35924314  0.74932687  0.25775091  1
  Na  Na34  1  0.36047503  0.74893449  0.50703238  1
  Na  Na35  1  0.35993337  0.74974761  0.75632817  1
  Na  Na36  1  0.85962503  0.08214570  0.00607002  1
  Na  Na37  1  0.85895937  0.08326130  0.25577160  1
  Na  Na38  1  0.85947923  0.08396507  0.50660300  1
  Na  Na39  1  0.85944630  0.08273998  0.75572804  1
  Na  Na40  1  0.85986974  0.41812548  0.00587669  1
  Na  Na41  1  0.85975460  0.41701595  0.25709059  1
  Na  Na42  1  0.86034523  0.41644796  0.50640954  1
  Na  Na43  1  0.86049261  0.41660446  0.75581609  1
  Na  Na44  1  0.85932866  0.75134393  0.00596137  1
  Na  Na45  1  0.86002537  0.74975324  0.25632013  1
  Na  Na46  1  0.86070573  0.74939689  0.50702194  1
  Na  Na47  1  0.86069436  0.75006492  0.75587486  1
  Na  Na48  1  0.10934348  0.08342223  0.11960861  1
  Na  Na49  1  0.10967462  0.08238581  0.36854879  1
  Na  Na50  1  0.10944167  0.08468001  0.61727869  1
  Na  Na51  1  0.10895135  0.08331136  0.86770459  1
  Na  Na52  1  0.11011570  0.41591741  0.11859399  1
  Na  Na53  1  0.11061677  0.41597940  0.36860973  1
  Na  Na54  1  0.11059339  0.41829588  0.61856627  1
  Na  Na55  1  0.10965962  0.41772091  0.86733733  1
  Na  Na56  1  0.11003942  0.74956793  0.11847076  1
  Na  Na57  1  0.11038993  0.74958302  0.36890833  1
  Na  Na58  1  0.10994323  0.75142633  0.61758820  1
  Na  Na59  1  0.10942685  0.74936641  0.86748959  1
  Na  Na60  1  0.60908823  0.08308927  0.11900176  1
  Na  Na61  1  0.60915936  0.08282982  0.36890614  1
  Na  Na62  1  0.60907527  0.08329839  0.61890450  1
  Na  Na63  1  0.60875028  0.08243253  0.86873748  1
  Na  Na64  1  0.60954895  0.41644215  0.12070951  1
  Na  Na65  1  0.61047757  0.41621563  0.36956017  1
  Na  Na66  1  0.61022914  0.41742607  0.61854736  1
  Na  Na67  1  0.60921683  0.41681765  0.86720251  1
  Na  Na68  1  0.61001197  0.75147864  0.11919025  1
  Na  Na69  1  0.61010564  0.74940542  0.36929109  1
  Na  Na70  1  0.60944809  0.74969978  0.61958166  1
  Na  Na71  1  0.60955035  0.74980926  0.86891136  1
  Na  Na72  1  0.38959365  0.25023412  0.13171708  1
  Na  Na73  1  0.38981425  0.24976730  0.38191445  1
  Na  Na74  1  0.39026070  0.25114779  0.63181045  1
  Na  Na75  1  0.39019099  0.25025044  0.88058617  1
  Na  Na76  1  0.38974538  0.58338685  0.13235594  1
  Na  Na77  1  0.39020321  0.58284822  0.38300334  1
  Na  Na78  1  0.39079650  0.58332777  0.63233129  1
  Na  Na79  1  0.38978893  0.58353290  0.88071160  1
  Na  Na80  1  0.38979880  0.91699200  0.13162251  1
  Na  Na81  1  0.38968460  0.91458153  0.38238776  1
  Na  Na82  1  0.38996599  0.91584307  0.63078088  1
  Na  Na83  1  0.39019491  0.91645493  0.87988563  1
  Na  Na84  1  0.89041287  0.24997030  0.13096610  1
  Na  Na85  1  0.89034982  0.25019953  0.38169021  1
  Na  Na86  1  0.89098497  0.25216020  0.63148837  1
  Na  Na87  1  0.89049402  0.24996200  0.87978448  1
  Na  Na88  1  0.89067082  0.58300080  0.13191104  1
  Na  Na89  1  0.89055153  0.58333667  0.38236388  1
  Na  Na90  1  0.89148977  0.58383153  0.63140070  1
  Na  Na91  1  0.89070556  0.58352945  0.88010528  1
  Na  Na92  1  0.88995375  0.91668931  0.13126671  1
  Na  Na93  1  0.89073614  0.91534239  0.38125005  1
  Na  Na94  1  0.89084860  0.91717504  0.63107660  1
  Na  Na95  1  0.89055066  0.91586312  0.88050370  1
  Mn  Mn96  1  0.00058313  0.49883379  0.25098271  1
  Mn  Mn97  1  0.74961113  -0.00123695  0.87602630  1
  Mn  Mn98  1  0.75017737  0.66572109  0.62538547  1
  Mn  Mn99  1  0.00028467  0.16753702  0.49955569  1
  Mn  Mn100  1  0.74932787  0.50167548  0.12612693  1
  Mn  Mn101  1  0.50000178  0.16606377  0.00013380  1
  Mn  Mn102  1  -0.00017737  0.83371684  -0.00106662  1
  Mn  Mn103  1  0.75044368  0.66765553  0.87461826  1
  Mn  Mn104  1  0.24985036  0.50005276  0.12501069  1
  Mn  Mn105  1  0.25021355  0.83174752  0.12444775  1
  Mn  Mn106  1  0.24963474  0.00116244  0.87388098  1
  Mn  Mn107  1  0.75112154  0.83225369  0.37462678  1
  Mn  Mn108  1  0.74995502  -0.00020496  0.37482786  1
  Mn  Mn109  1  0.75008321  0.33406481  0.12506337  1
  Mn  Mn110  1  0.50017800  0.49920055  0.25163304  1
  Mn  Mn111  1  0.00082144  0.66670736  0.25011553  1
  Mn  Mn112  1  0.74915392  0.16741515  0.37587346  1
  Mn  Mn113  1  0.00006403  0.33398736  -0.00065881  1
  Mn  Mn114  1  0.74947909  0.33377111  0.87469312  1
  Mn  Mn115  1  0.00084265  0.50021915  0.50047405  1
  Mn  Mn116  1  0.24933207  -0.00043451  0.12555890  1
  Mn  Mn117  1  0.00035950  0.16610647  -0.00029093  1
  Mn  Mn118  1  0.74970152  0.50054394  0.87521719  1
  Mn  Mn119  1  0.49904452  0.16712238  0.24986278  1
  Mn  Mn120  1  0.24989306  0.83316172  0.87448527  1
  Mn  Mn121  1  -0.00052234  -0.00112091  0.24983554  1
  Mn  Mn122  1  0.49951633  -0.00039550  0.74927879  1
  Mn  Mn123  1  0.00010317  0.00015624  0.74890794  1
  Mn  Mn124  1  0.49999288  0.50000180  0.00028096  1
  Mn  Mn125  1  0.49964370  0.66680889  0.00043937  1
  Mn  Mn126  1  0.49984868  0.16756649  0.49956577  1
  Mn  Mn127  1  0.75007158  0.83335170  0.62503265  1
  Mn  Mn128  1  -0.00077559  0.16679497  0.24995187  1
  Mn  Mn129  1  0.24996661  0.33371315  0.62459340  1
  Mn  Mn130  1  0.49877660  0.83402840  -0.00058315  1
  Mn  Mn131  1  0.74939859  0.16614009  0.87454921  1
  Mn  Mn132  1  0.25049608  0.66648252  0.62438216  1
  Mn  Mn133  1  0.75000991  0.16657566  0.62485404  1
  Mn  Mn134  1  0.49961551  -0.00124652  0.49972438  1
  Mn  Mn135  1  0.50023305  0.66722047  0.25100373  1
  Mn  Mn136  1  0.49969336  0.33316071  -0.00060109  1
  Mn  Mn137  1  0.49919367  -0.00091597  0.25002123  1
  Mn  Mn138  1  0.24949639  0.00018349  0.62400979  1
  Mn  Mn139  1  0.24898835  0.16777234  0.12583110  1
  Mn  Mn140  1  0.24875709  0.16899563  0.87588683  1
  Mn  Mn141  1  0.50002462  0.49971411  0.50103624  1
  Mn  Mn142  1  0.75021049  0.16623903  0.12505055  1
  Mn  Mn143  1  -0.00036045  0.66591720  -0.00066465  1
  Fe  Fe144  1  0.24997840  0.66585329  0.12534664  1
  Fe  Fe145  1  0.74989919  -0.00054155  0.62530821  1
  Fe  Fe146  1  0.24980522  0.16604874  0.37463429  1
  Fe  Fe147  1  0.25012756  0.83301852  0.62405819  1
  Fe  Fe148  1  0.49957357  0.83296829  0.25070853  1
  Fe  Fe149  1  0.00001345  0.16706240  0.74919014  1
  Fe  Fe150  1  0.24925054  0.66693626  0.87448963  1
  Fe  Fe151  1  0.00038236  0.33420673  0.75004899  1
  Fe  Fe152  1  0.74978842  0.83363442  0.87554629  1
  Fe  Fe153  1  0.75131153  0.49938760  0.62399965  1
  Fe  Fe154  1  0.49984530  0.66673382  0.74994294  1
  Fe  Fe155  1  0.00041432  0.66731709  0.74939248  1
  Fe  Fe156  1  0.74998463  0.83298838  0.12537720  1
  Fe  Fe157  1  0.24974503  -0.00101878  0.37555397  1
  Fe  Fe158  1  0.00079773  0.33389981  0.50068197  1
  Fe  Fe159  1  -0.00001041  0.50003645  -0.00068141  1
  Fe  Fe160  1  0.50046198  0.50031625  0.74964102  1
  Fe  Fe161  1  0.75074655  0.66729049  0.12528915  1
  Fe  Fe162  1  0.50056370  0.66686077  0.50126296  1
  Fe  Fe163  1  0.00105144  0.66741505  0.50051981  1
  Fe  Fe164  1  0.00070780  0.83370826  0.74894839  1
  Fe  Fe165  1  0.00047337  0.83336195  0.49991283  1
  Fe  Fe166  1  0.24987862  0.50100285  0.87527768  1
  Fe  Fe167  1  0.49993647  0.83275413  0.75025222  1
  Fe  Fe168  1  0.50039119  0.33361394  0.50103022  1
  Fe  Fe169  1  0.50035184  0.83227689  0.50097311  1
  Fe  Fe170  1  0.00058606  0.50088854  0.74937467  1
  Fe  Fe171  1  0.25083455  0.50020978  0.62528583  1
  Fe  Fe172  1  0.24996162  0.33383033  0.12559247  1
  Fe  Fe173  1  0.74886134  -0.00056138  0.12516071  1
  Fe  Fe174  1  0.25018862  0.33275047  0.37578770  1
  Fe  Fe175  1  0.49988858  0.33311168  0.25039211  1
  Fe  Fe176  1  0.49900605  -0.00016341  -0.00038273  1
  Fe  Fe177  1  0.75043186  0.33389028  0.62432524  1
  Fe  Fe178  1  0.75085465  0.33399009  0.37531611  1
  Fe  Fe179  1  0.75060831  0.66632974  0.37531045  1
  Fe  Fe180  1  -0.00011469  0.33311842  0.24979839  1
  Fe  Fe181  1  0.25000069  0.33485605  0.87441402  1
  Fe  Fe182  1  0.24987360  0.16692277  0.62426922  1
  Fe  Fe183  1  0.25088524  0.66551486  0.37548578  1
  Fe  Fe184  1  0.49990151  0.33337123  0.75003371  1
  Fe  Fe185  1  0.25001059  0.83195851  0.37450626  1
  Fe  Fe186  1  0.25060180  0.49898744  0.37476738  1
  Fe  Fe187  1  0.49963308  0.16655459  0.74975009  1
  Fe  Fe188  1  0.00026266  0.83266584  0.25016109  1
  Fe  Fe189  1  0.75080833  0.50014028  0.37534745  1
  Fe  Fe190  1  -0.00007241  -0.00035095  -0.00065393  1
  Fe  Fe191  1  -0.00032821  0.00013117  0.49998575  1
  P  P192  1  0.04265505  0.25040101  0.10306933  1
  P  P193  1  0.04192868  0.25132853  0.35283303  1
  P  P194  1  0.04264735  0.25190594  0.60306912  1
  P  P195  1  0.04139696  0.24999008  0.85095417  1
  P  P196  1  0.04236750  0.58161955  0.10213883  1
  P  P197  1  0.04305980  0.58352733  0.35397920  1
  P  P198  1  0.04292189  0.58549787  0.60306585  1
  P  P199  1  0.04145968  0.58369359  0.85112099  1
  P  P200  1  0.04229525  0.91743202  0.10215270  1
  P  P201  1  0.04198435  0.91448961  0.35310986  1
  P  P202  1  0.04177975  0.91707029  0.60124467  1
  P  P203  1  0.04252243  0.91580222  0.85157244  1
  P  P204  1  0.54242343  0.25037280  0.10340348  1
  P  P205  1  0.54201551  0.25139358  0.35306706  1
  P  P206  1  0.54209894  0.25136472  0.60353543  1
  P  P207  1  0.54145091  0.24960371  0.85110637  1
  P  P208  1  0.54266978  0.58348075  0.10393828  1
  P  P209  1  0.54261352  0.58351328  0.35479710  1
  P  P210  1  0.54215382  0.58455256  0.60374286  1
  P  P211  1  0.54139552  0.58370822  0.85138654  1
  P  P212  1  0.54124675  0.91771700  0.10262564  1
  P  P213  1  0.54207202  0.91449681  0.35316083  1
  P  P214  1  0.54196651  0.91480854  0.60301946  1
  P  P215  1  0.54180964  0.91568570  0.85241475  1
  P  P216  1  0.45615416  0.08302613  0.14669794  1
  P  P217  1  0.45671567  0.08291432  0.39705689  1
  P  P218  1  0.45737028  0.08478776  0.64721795  1
  P  P219  1  0.45721816  0.08229696  0.89686384  1
  P  P220  1  0.45717550  0.41558920  0.14828892  1
  P  P221  1  0.45811713  0.41483373  0.39815294  1
  P  P222  1  0.45887235  0.41651683  0.64853986  1
  P  P223  1  0.45766831  0.41694444  0.89558627  1
  P  P224  1  0.45713904  0.75134924  0.14822637  1
  P  P225  1  0.45891658  0.74972710  0.39909691  1
  P  P226  1  0.45857579  0.74985709  0.64804294  1
  P  P227  1  0.45698793  0.74959912  0.89596690  1
  P  P228  1  0.95685241  0.08270646  0.14637717  1
  P  P229  1  0.95754725  0.08196399  0.39770281  1
  P  P230  1  0.95788614  0.08517873  0.64666348  1
  P  P231  1  0.95772063  0.08203238  0.89666754  1
  P  P232  1  0.95770825  0.41558595  0.14742595  1
  P  P233  1  0.95857728  0.41519592  0.39788736  1
  P  P234  1  0.95978216  0.41739728  0.64806609  1
  P  P235  1  0.95814833  0.41836341  0.89615103  1
  P  P236  1  0.95819922  0.75090123  0.14747076  1
  P  P237  1  0.95899859  0.74988112  0.39843640  1
  P  P238  1  0.95936817  0.75059797  0.64725600  1
  P  P239  1  0.95738608  0.74971527  0.89545586  1
  P  P240  1  0.20700582  0.08315782  0.22954619  1
  P  P241  1  0.20849398  0.08330085  0.47652620  1
  P  P242  1  0.20733900  0.08551202  0.72664622  1
  P  P243  1  0.20629954  0.08409483  0.97805074  1
  P  P244  1  0.20793125  0.41554708  0.22835788  1
  P  P245  1  0.20911373  0.41672630  0.47695346  1
  P  P246  1  0.20846347  0.41879406  0.72788623  1
  P  P247  1  0.20832588  0.41725651  0.97641081  1
  P  P248  1  0.20825205  0.74774695  0.22828236  1
  P  P249  1  0.20941369  0.74943376  0.47649234  1
  P  P250  1  0.20815446  0.75095326  0.72672880  1
  P  P251  1  0.20715259  0.74829232  0.97726181  1
  P  P252  1  0.70709412  0.08201588  0.22754901  1
  P  P253  1  0.70688774  0.08297176  0.47892574  1
  P  P254  1  0.70734310  0.08154652  0.72737130  1
  P  P255  1  0.70662816  0.08264202  0.97878659  1
  P  P256  1  0.70771395  0.41729572  0.22970123  1
  P  P257  1  0.70952162  0.41697944  0.47731046  1
  P  P258  1  0.70889783  0.41698170  0.72584448  1
  P  P259  1  0.70643626  0.41747260  0.97827461  1
  P  P260  1  0.70883604  0.74933103  0.22721731  1
  P  P261  1  0.70836263  0.74831029  0.47756286  1
  P  P262  1  0.70747746  0.75015214  0.72857058  1
  P  P263  1  0.70773142  0.75171583  0.97840019  1
  P  P264  1  0.29165521  0.25253323  0.02268201  1
  P  P265  1  0.29116033  0.24997292  0.27370907  1
  P  P266  1  0.29197564  0.24851791  0.52173263  1
  P  P267  1  0.29157815  0.25216818  0.77221954  1
  P  P268  1  0.29200710  0.58449547  0.02203859  1
  P  P269  1  0.29205856  0.58249937  0.27359654  1
  P  P270  1  0.29281578  0.58116425  0.52196781  1
  P  P271  1  0.29105685  0.58381866  0.77316277  1
  P  P272  1  0.29240695  0.91641704  0.02168847  1
  P  P273  1  0.29104551  0.91561390  0.27371629  1
  P  P274  1  0.29162914  0.91486843  0.52121830  1
  P  P275  1  0.29229576  0.91691936  0.77059936  1
  P  P276  1  0.79288643  0.25010487  0.02166784  1
  P  P277  1  0.79231525  0.25115039  0.27303998  1
  P  P278  1  0.79242487  0.25174365  0.52229031  1
  P  P279  1  0.79207545  0.25019317  0.77088318  1
  P  P280  1  0.79262244  0.58534731  0.02290439  1
  P  P281  1  0.79226501  0.58395165  0.27353570  1
  P  P282  1  0.79304531  0.58189064  0.52176043  1
  P  P283  1  0.79277245  0.58281149  0.77125942  1
  P  P284  1  0.79110425  0.91610787  0.02365605  1
  P  P285  1  0.79272779  0.91612684  0.27095738  1
  P  P286  1  0.79274171  0.91761893  0.52268552  1
  P  P287  1  0.79225966  0.91548001  0.77249971  1
  O  O288  1  0.03726674  0.25071963  0.18301068  1
  O  O289  1  0.03680827  0.25150523  0.43282087  1
  O  O290  1  0.03712311  0.25135643  0.68290794  1
  O  O291  1  0.03666385  0.24998459  0.93091229  1
  O  O292  1  0.03750207  0.58186959  0.18212895  1
  O  O293  1  0.03790197  0.58421232  0.43389847  1
  O  O294  1  0.03734345  0.58569478  0.68291441  1
  O  O295  1  0.03643620  0.58277432  0.93107310  1
  O  O296  1  0.03722446  0.91655384  0.18209286  1
  O  O297  1  0.03663026  0.91450285  0.43296278  1
  O  O298  1  0.03691081  0.91682000  0.68123487  1
  O  O299  1  0.03728680  0.91651118  0.93147693  1
  O  O300  1  0.53728177  0.25070945  0.18335981  1
  O  O301  1  0.53687066  0.25159695  0.43304540  1
  O  O302  1  0.53660618  0.25085817  0.68340822  1
  O  O303  1  0.53663292  0.24937913  0.93111794  1
  O  O304  1  0.53776626  0.58346165  0.18393149  1
  O  O305  1  0.53732082  0.58396475  0.43473563  1
  O  O306  1  0.53679282  0.58439945  0.68364005  1
  O  O307  1  0.53678595  0.58330279  0.93141560  1
  O  O308  1  0.53627643  0.91690104  0.18256439  1
  O  O309  1  0.53712790  0.91417955  0.43315310  1
  O  O310  1  0.53665229  0.91482682  0.68291719  1
  O  O311  1  0.53611564  0.91684002  0.93228410  1
  O  O312  1  0.46121718  0.08245430  0.06668920  1
  O  O313  1  0.46166317  0.08296014  0.31710821  1
  O  O314  1  0.46254176  0.08462237  0.56730815  1
  O  O315  1  0.46274364  0.08308687  0.81691740  1
  O  O316  1  0.46217109  0.41618399  0.06827644  1
  O  O317  1  0.46315652  0.41482756  0.31823403  1
  O  O318  1  0.46361169  0.41630218  0.56853381  1
  O  O319  1  0.46325316  0.41707740  0.81569940  1
  O  O320  1  0.46180979  0.75104230  0.06822810  1
  O  O321  1  0.46357023  0.75020019  0.31911669  1
  O  O322  1  0.46420769  0.74959548  0.56813834  1
  O  O323  1  0.46246880  0.74927447  0.81608442  1
  O  O324  1  0.96221169  0.08232340  0.06644427  1
  O  O325  1  0.96248288  0.08206986  0.31774658  1
  O  O326  1  0.96318554  0.08464797  0.56677667  1
  O  O327  1  0.96300528  0.08264360  0.81672892  1
  O  O328  1  0.96264176  0.41652264  0.06745707  1
  O  O329  1  0.96357471  0.41487721  0.31794604  1
  O  O330  1  0.96446515  0.41672973  0.56811049  1
  O  O331  1  0.96368483  0.41852355  0.81631267  1
  O  O332  1  0.96294843  0.75057211  0.06751324  1
  O  O333  1  0.96409483  0.75008446  0.31847961  1
  O  O334  1  0.96486222  0.75066321  0.56736010  1
  O  O335  1  0.96283285  0.74973449  0.81556857  1
  O  O336  1  0.21127435  0.08386835  0.05804996  1
  O  O337  1  0.21274667  0.08290378  0.30943716  1
  O  O338  1  0.21327215  0.08368204  0.55651603  1
  O  O339  1  0.21220902  0.08537056  0.80661645  1
  O  O340  1  0.21289199  0.41724737  0.05637481  1
  O  O341  1  0.21341241  0.41577434  0.30819118  1
  O  O342  1  0.21404591  0.41680375  0.55687183  1
  O  O343  1  0.21350633  0.41863068  0.80774173  1
  O  O344  1  0.21243715  0.74813748  0.05722395  1
  O  O345  1  0.21380495  0.74823324  0.30814662  1
  O  O346  1  0.21405314  0.74986526  0.55645551  1
  O  O347  1  0.21296462  0.75026103  0.80665001  1
  O  O348  1  0.71172828  0.08243367  0.05874868  1
  O  O349  1  0.71223027  0.08253657  0.30754470  1
  O  O350  1  0.71240403  0.08238358  0.55884090  1
  O  O351  1  0.71246426  0.08171046  0.80735563  1
  O  O352  1  0.71134306  0.41762888  0.05826176  1
  O  O353  1  0.71363608  0.41715057  0.30958712  1
  O  O354  1  0.71489756  0.41677962  0.55723133  1
  O  O355  1  0.71320719  0.41710300  0.80587618  1
  O  O356  1  0.71334777  0.75139510  0.05829050  1
  O  O357  1  0.71432414  0.74872145  0.30715432  1
  O  O358  1  0.71322315  0.74865825  0.55750166  1
  O  O359  1  0.71257952  0.75091446  0.80849718  1
  O  O360  1  0.28616076  0.25084713  0.19379205  1
  O  O361  1  0.28666957  0.24836023  0.44189160  1
  O  O362  1  0.28670692  0.25120976  0.69229338  1
  O  O363  1  0.28633870  0.25295927  0.94275114  1
  O  O364  1  0.28704934  0.58315823  0.19366129  1
  O  O365  1  0.28766535  0.58105048  0.44211741  1
  O  O366  1  0.28676140  0.58321535  0.69317839  1
  O  O367  1  0.28659434  0.58455043  0.94219679  1
  O  O368  1  0.28624543  0.91572888  0.19372278  1
  O  O369  1  0.28605692  0.91475345  0.44135078  1
  O  O370  1  0.28698884  0.91650244  0.69062263  1
  O  O371  1  0.28722716  0.91661691  0.94171995  1
  O  O372  1  0.78742889  0.25074328  0.19307082  1
  O  O373  1  0.78708257  0.25215216  0.44234505  1
  O  O374  1  0.78693533  0.25076175  0.69089935  1
  O  O375  1  0.78750852  0.24988550  0.94167282  1
  O  O376  1  0.78696232  0.58465900  0.19358613  1
  O  O377  1  0.78770149  0.58217935  0.44185643  1
  O  O378  1  0.78776494  0.58195226  0.69130022  1
  O  O379  1  0.78754391  0.58505399  0.94294516  1
  O  O380  1  0.78708020  0.91604704  0.19109711  1
  O  O381  1  0.78789185  0.91709511  0.44271840  1
  O  O382  1  0.78716080  0.91645397  0.69254557  1
  O  O383  1  0.78597041  0.91542527  0.94368074  1
  O  O384  1  0.22738187  0.25257491  0.05850274  1
  O  O385  1  0.22707661  0.24923747  0.30983071  1
  O  O386  1  0.22779716  0.24877753  0.55779245  1
  O  O387  1  0.22722802  0.25311674  0.80779010  1
  O  O388  1  0.22783791  0.58448122  0.05825869  1
  O  O389  1  0.22797172  0.58182927  0.30970210  1
  O  O390  1  0.22859895  0.58136007  0.55789120  1
  O  O391  1  0.22680820  0.58447536  0.80881446  1
  O  O392  1  0.22803658  0.91588077  0.05691080  1
  O  O393  1  0.22685773  0.91503618  0.30941819  1
  O  O394  1  0.22754547  0.91490796  0.55750065  1
  O  O395  1  0.22798957  0.91695062  0.80604527  1
  O  O396  1  0.72851002  0.25010671  0.05686885  1
  O  O397  1  0.72794301  0.25159006  0.30842512  1
  O  O398  1  0.72818056  0.25156128  0.55800014  1
  O  O399  1  0.72771593  0.25011338  0.80622637  1
  O  O400  1  0.72821001  0.58598912  0.05831036  1
  O  O401  1  0.72819508  0.58371889  0.30986892  1
  O  O402  1  0.72883376  0.58136741  0.55772543  1
  O  O403  1  0.72838834  0.58368117  0.80648517  1
  O  O404  1  0.72701601  0.91586587  0.05992082  1
  O  O405  1  0.72855450  0.91569713  0.30684144  1
  O  O406  1  0.72825930  0.91792971  0.55786490  1
  O  O407  1  0.72792347  0.91469138  0.80813112  1
  O  O408  1  0.27106325  0.08358390  0.19338558  1
  O  O409  1  0.27261483  0.08367354  0.44064761  1
  O  O410  1  0.27171731  0.08503888  0.69128100  1
  O  O411  1  0.27078126  0.08464322  0.94306290  1
  O  O412  1  0.27201108  0.41570801  0.19200407  1
  O  O413  1  0.27320280  0.41711162  0.44088291  1
  O  O414  1  0.27265235  0.41837079  0.69183357  1
  O  O415  1  0.27255868  0.41681644  0.94066631  1
  O  O416  1  0.27236223  0.74749523  0.19198619  1
  O  O417  1  0.27360538  0.74986833  0.44076913  1
  O  O418  1  0.27251437  0.75123515  0.69122576  1
  O  O419  1  0.27143954  0.74820775  0.94150235  1
  O  O420  1  0.77141184  0.08134398  0.19204840  1
  O  O421  1  0.77118923  0.08362371  0.44346164  1
  O  O422  1  0.77168875  0.08150195  0.69183146  1
  O  O423  1  0.77103028  0.08290389  0.94355844  1
  O  O424  1  0.77175038  0.41780251  0.19345659  1
  O  O425  1  0.77350498  0.41717437  0.44083969  1
  O  O426  1  0.77333111  0.41674082  0.69057043  1
  O  O427  1  0.77105517  0.41720087  0.94359365  1
  O  O428  1  0.77291755  0.74971472  0.19087908  1
  O  O429  1  0.77279957  0.74796119  0.44230207  1
  O  O430  1  0.77183613  0.74983185  0.69328109  1
  O  O431  1  0.77187098  0.75223476  0.94206292  1
  O  O432  1  0.02108543  0.08302323  0.18199092  1
  O  O433  1  0.02191581  0.08189904  0.43307899  1
  O  O434  1  0.02213257  0.08522863  0.68247534  1
  O  O435  1  0.02198193  0.08145301  0.93252031  1
  O  O436  1  0.02212115  0.41484000  0.18292402  1
  O  O437  1  0.02291041  0.41535029  0.43351770  1
  O  O438  1  0.02387925  0.41758805  0.68381719  1
  O  O439  1  0.02227514  0.41863821  0.93243819  1
  O  O440  1  0.02262525  0.75111008  0.18276390  1
  O  O441  1  0.02320191  0.75006779  0.43446425  1
  O  O442  1  0.02331441  0.75041814  0.68389045  1
  O  O443  1  0.02156727  0.74961242  0.93126465  1
  O  O444  1  0.52057309  0.08316845  0.18184165  1
  O  O445  1  0.52116547  0.08286687  0.43200528  1
  O  O446  1  0.52165086  0.08445882  0.68278250  1
  O  O447  1  0.52139776  0.08147771  0.93293139  1
  O  O448  1  0.52159897  0.41504440  0.18370931  1
  O  O449  1  0.52241282  0.41504943  0.43382856  1
  O  O450  1  0.52305556  0.41585237  0.68426164  1
  O  O451  1  0.52183351  0.41686587  0.93149551  1
  O  O452  1  0.52168624  0.75160018  0.18327978  1
  O  O453  1  0.52318724  0.74964593  0.43482741  1
  O  O454  1  0.52250675  0.74973388  0.68473288  1
  O  O455  1  0.52114605  0.75003812  0.93185931  1
  O  O456  1  0.47805236  0.24989330  0.06814005  1
  O  O457  1  0.47766647  0.25151495  0.31743995  1
  O  O458  1  0.47794970  0.25187242  0.56737828  1
  O  O459  1  0.47716687  0.25024026  0.81548565  1
  O  O460  1  0.47815930  0.58334044  0.06899521  1
  O  O461  1  0.47834769  0.58341453  0.31927012  1
  O  O462  1  0.47805709  0.58469611  0.56761244  1
  O  O463  1  0.47715961  0.58410485  0.81578870  1
  O  O464  1  0.47695791  0.91849206  0.06687394  1
  O  O465  1  0.47763300  0.91441062  0.31781332  1
  O  O466  1  0.47773290  0.91442117  0.56720263  1
  O  O467  1  0.47769524  0.91511219  0.81626998  1
  O  O468  1  0.97842723  0.25020117  0.06747942  1
  O  O469  1  0.97767699  0.25168223  0.31700407  1
  O  O470  1  0.97847640  0.25232523  0.56694404  1
  O  O471  1  0.97726179  0.24958875  0.81509391  1
  O  O472  1  0.97794442  0.58135917  0.06676928  1
  O  O473  1  0.97880959  0.58316997  0.31848231  1
  O  O474  1  0.97883061  0.58547971  0.56685300  1
  O  O475  1  0.97740528  0.58449113  0.81499313  1
  O  O476  1  0.97796512  0.91809109  0.06642878  1
  O  O477  1  0.97786146  0.91416733  0.31687307  1
  O  O478  1  0.97756519  0.91695900  0.56545637  1
  O  O479  1  0.97827678  0.91542822  0.81578387  1
  O  O480  1  0.07387679  0.31358427  0.07438389  1
  O  O481  1  0.07313936  0.31439032  0.32407455  1
  O  O482  1  0.07386071  0.31530442  0.57475591  1
  O  O483  1  0.07164830  0.31420669  0.82310754  1
  O  O484  1  0.07310308  0.64537684  0.07415443  1
  O  O485  1  0.07422422  0.64664534  0.32518415  1
  O  O486  1  0.07402491  0.64868465  0.57410885  1
  O  O487  1  0.07279214  0.64723481  0.82346374  1
  O  O488  1  0.07297189  0.98111479  0.07385371  1
  O  O489  1  0.07300513  0.97818618  0.32528203  1
  O  O490  1  0.07206668  0.98116437  0.57312002  1
  O  O491  1  0.07378843  0.97912334  0.82325732  1
  O  O492  1  0.57347145  0.31365702  0.07478757  1
  O  O493  1  0.57299289  0.31460205  0.32427840  1
  O  O494  1  0.57316374  0.31483234  0.57507821  1
  O  O495  1  0.57272773  0.31308445  0.82324091  1
  O  O496  1  0.57335248  0.64715478  0.07570437  1
  O  O497  1  0.57394166  0.64663664  0.32623802  1
  O  O498  1  0.57323063  0.64787412  0.57511776  1
  O  O499  1  0.57263372  0.64717248  0.82354808  1
  O  O500  1  0.57205925  0.98123075  0.07418448  1
  O  O501  1  0.57285678  0.97838654  0.32546771  1
  O  O502  1  0.57250858  0.97881703  0.57523145  1
  O  O503  1  0.57308076  0.97895048  0.82397893  1
  O  O504  1  0.42485840  0.01997732  0.17555342  1
  O  O505  1  0.42583257  0.01932509  0.42512618  1
  O  O506  1  0.42600497  0.02118185  0.67458919  1
  O  O507  1  0.42620972  0.01871795  0.92485338  1
  O  O508  1  0.42634353  0.35206046  0.17651918  1
  O  O509  1  0.42726294  0.35157610  0.42700867  1
  O  O510  1  0.42705859  0.35357330  0.67681243  1
  O  O511  1  0.42643277  0.35347289  0.92367858  1
  O  O512  1  0.42635873  0.68769562  0.17642912  1
  O  O513  1  0.42837006  0.68582372  0.42726130  1
  O  O514  1  0.42732679  0.68636132  0.67622426  1
  O  O515  1  0.42606259  0.68624539  0.92484341  1
  O  O516  1  0.92567804  0.01951854  0.17492039  1
  O  O517  1  0.92688040  0.01842181  0.42622161  1
  O  O518  1  0.92657448  0.02175681  0.67464440  1
  O  O519  1  0.92703403  0.01830728  0.92493904  1
  O  O520  1  0.92684100  0.35199275  0.17563323  1
  O  O521  1  0.92763780  0.35209714  0.42696188  1
  O  O522  1  0.92894317  0.35401051  0.67706784  1
  O  O523  1  0.92709127  0.35455699  0.92375452  1
  O  O524  1  0.92741535  0.68719374  0.17556035  1
  O  O525  1  0.92854771  0.68596162  0.42664798  1
  O  O526  1  0.92804652  0.68715350  0.67531209  1
  O  O527  1  0.92608176  0.68648865  0.92407567  1
  O  O528  1  0.17590935  0.01965286  0.20126779  1
  O  O529  1  0.17855329  0.01881549  0.44868054  1
  O  O530  1  0.17602932  0.02205883  0.69868046  1
  O  O531  1  0.17570928  0.02059575  0.94936036  1
  O  O532  1  0.17721757  0.35207103  0.19958977  1
  O  O533  1  0.17900640  0.35243670  0.44887729  1
  O  O534  1  0.17698656  0.35554323  0.69953609  1
  O  O535  1  0.17693575  0.35415021  0.94777277  1
  O  O536  1  0.17736393  0.68423112  0.19979566  1
  O  O537  1  0.17952106  0.68501074  0.44855109  1
  O  O538  1  0.17719747  0.68753356  0.69820422  1
  O  O539  1  0.17614608  0.68509723  0.94837693  1
  O  O540  1  0.67609208  0.01847792  0.19948236  1
  O  O541  1  0.67578125  0.01978368  0.45021293  1
  O  O542  1  0.67670261  0.01789697  0.69913244  1
  O  O543  1  0.67565773  0.01919369  0.95044395  1
  O  O544  1  0.67662475  0.35390093  0.20130126  1
  O  O545  1  0.67863286  0.35333054  0.44893104  1
  O  O546  1  0.67810980  0.35329436  0.69768421  1
  O  O547  1  0.67544514  0.35407506  0.94984769  1
  O  O548  1  0.67788898  0.68589211  0.19874257  1
  O  O549  1  0.67755005  0.68481745  0.44923229  1
  O  O550  1  0.67654770  0.68643935  0.70079284  1
  O  O551  1  0.67686492  0.68800136  0.95019071  1
  O  O552  1  0.32270871  0.31568616  0.05162130  1
  O  O553  1  0.32152935  0.31366242  0.30274874  1
  O  O554  1  0.32319611  0.31211392  0.54965789  1
  O  O555  1  0.32258513  0.31573079  0.80023771  1
  O  O556  1  0.32288983  0.64772766  0.05118471  1
  O  O557  1  0.32247486  0.64620791  0.30255050  1
  O  O558  1  0.32384141  0.64488809  0.54997424  1
  O  O559  1  0.32203718  0.64749471  0.80106179  1
  O  O560  1  0.32307915  0.97996818  0.05007970  1
  O  O561  1  0.32119458  0.97962648  0.30214123  1
  O  O562  1  0.32287547  0.97853412  0.54890970  1
  O  O563  1  0.32306582  0.98083050  0.79830799  1
  O  O564  1  0.82392592  0.31371492  0.04945954  1
  O  O565  1  0.82326103  0.31460356  0.30139722  1
  O  O566  1  0.82342416  0.31494372  0.55124322  1
  O  O567  1  0.82338738  0.31334256  0.79943331  1
  O  O568  1  0.82369717  0.64871295  0.05124190  1
  O  O569  1  0.82332915  0.64735845  0.30206298  1
  O  O570  1  0.82393248  0.64550003  0.55011034  1
  O  O571  1  0.82401338  0.64641372  0.79884598  1
  O  O572  1  0.82126982  0.98041614  0.05122664  1
  O  O573  1  0.82377681  0.97957192  0.29930664  1
  O  O574  1  0.82337243  0.98111443  0.55124401  1
  O  O575  1  0.82312236  0.97900989  0.80101786  1
  O  O576  1  0.42526329  0.14679477  0.17461862  1
  O  O577  1  0.42572826  0.14640854  0.42513826  1
  O  O578  1  0.42691587  0.14846505  0.67586822  1
  O  O579  1  0.42625358  0.14592931  0.92501941  1
  O  O580  1  0.42647911  0.47932508  0.17651469  1
  O  O581  1  0.42709104  0.47857631  0.42600935  1
  O  O582  1  0.42901588  0.48097804  0.67662271  1
  O  O583  1  0.42646807  0.48025148  0.92426352  1
  O  O584  1  0.42651469  0.81490069  0.17687891  1
  O  O585  1  0.42784470  0.81305804  0.42779856  1
  O  O586  1  0.42769329  0.81360970  0.67610978  1
  O  O587  1  0.42543061  0.81297284  0.92390010  1
  O  O588  1  0.92572737  0.14633980  0.17438291  1
  O  O589  1  0.92657120  0.14574399  0.42532256  1
  O  O590  1  0.92733118  0.14890807  0.67504921  1
  O  O591  1  0.92665362  0.14558442  0.92476825  1
  O  O592  1  0.92683732  0.47904932  0.17618727  1
  O  O593  1  0.92778162  0.47918168  0.42547572  1
  O  O594  1  0.92894629  0.48136116  0.67569172  1
  O  O595  1  0.92713152  0.48160315  0.92528168  1
  O  O596  1  0.92758766  0.81445488  0.17602336  1
  O  O597  1  0.92767952  0.81319242  0.42678652  1
  O  O598  1  0.92859175  0.81443224  0.67548865  1
  O  O599  1  0.92622862  0.81316177  0.92385535  1
  O  O600  1  0.07378187  0.18678437  0.07520300  1
  O  O601  1  0.07242757  0.18712462  0.32542076  1
  O  O602  1  0.07361556  0.18838916  0.57446094  1
  O  O603  1  0.07257124  0.18657400  0.82273348  1
  O  O604  1  0.07311502  0.51810437  0.07362527  1
  O  O605  1  0.07414116  0.51980841  0.32631870  1
  O  O606  1  0.07406734  0.52172753  0.57537567  1
  O  O607  1  0.07196029  0.52002691  0.82216640  1
  O  O608  1  0.07335377  0.85393229  0.07380900  1
  O  O609  1  0.07294146  0.85115724  0.32408604  1
  O  O610  1  0.07304385  0.85372110  0.57297309  1
  O  O611  1  0.07322503  0.85208873  0.82322683  1
  O  O612  1  0.57359822  0.18682257  0.07530441  1
  O  O613  1  0.57276846  0.18738896  0.32545934  1
  O  O614  1  0.57320623  0.18786245  0.57516185  1
  O  O615  1  0.57165108  0.18551966  0.82289695  1
  O  O616  1  0.57371235  0.52004219  0.07569838  1
  O  O617  1  0.57356600  0.51976995  0.32705854  1
  O  O618  1  0.57328242  0.52087622  0.57577937  1
  O  O619  1  0.57177426  0.51980516  0.82271579  1
  O  O620  1  0.57216358  0.85409725  0.07442618  1
  O  O621  1  0.57294650  0.85124140  0.32404906  1
  O  O622  1  0.57337830  0.85166853  0.57451262  1
  O  O623  1  0.57268374  0.85187722  0.82472039  1
  O  O624  1  0.32241414  0.18851894  0.05026852  1
  O  O625  1  0.32250815  0.18631773  0.30116078  1
  O  O626  1  0.32268495  0.18513074  0.55085966  1
  O  O627  1  0.32228770  0.18864225  0.80096692  1
  O  O628  1  0.32318439  0.52086781  0.05013158  1
  O  O629  1  0.32334037  0.51889141  0.30127257  1
  O  O630  1  0.32365682  0.51792553  0.55123576  1
  O  O631  1  0.32140941  0.52012497  0.80219431  1
  O  O632  1  0.32366739  0.85287917  0.04951830  1
  O  O633  1  0.32252050  0.85220828  0.30156979  1
  O  O634  1  0.32262907  0.85154020  0.55007411  1
  O  O635  1  0.32369228  0.85381917  0.79913186  1
  O  O636  1  0.82399864  0.18667260  0.04989069  1
  O  O637  1  0.82305795  0.18733081  0.30102782  1
  O  O638  1  0.82351823  0.18787940  0.54958547  1
  O  O639  1  0.82288405  0.18632781  0.79860121  1
  O  O640  1  0.82318571  0.52152527  0.05102598  1
  O  O641  1  0.82308739  0.52004731  0.30124545  1
  O  O642  1  0.82424313  0.51855989  0.55037070  1
  O  O643  1  0.82364045  0.51952670  0.80017993  1
  O  O644  1  0.82266161  0.85298532  0.05207169  1
  O  O645  1  0.82424139  0.85284495  0.29937127  1
  O  O646  1  0.82358540  0.85382409  0.55054218  1
  O  O647  1  0.82318627  0.85193741  0.80067973  1
  O  O648  1  0.17551553  0.14652987  0.20149422  1
  O  O649  1  0.17673343  0.14625584  0.44808424  1
  O  O650  1  0.17705985  0.14929279  0.69814227  1
  O  O651  1  0.17506026  0.14764941  0.95024845  1
  O  O652  1  0.17656971  0.47898558  0.20012412  1
  O  O653  1  0.17754338  0.47979732  0.44859141  1
  O  O654  1  0.17800543  0.48243962  0.69898972  1
  O  O655  1  0.17828230  0.48142368  0.94787372  1
  O  O656  1  0.17704147  0.81121640  0.19993492  1
  O  O657  1  0.17766752  0.81231737  0.44781382  1
  O  O658  1  0.17750695  0.81460464  0.69822327  1
  O  O659  1  0.17623841  0.81213749  0.94953139  1
  O  O660  1  0.67633414  0.14587582  0.19982999  1
  O  O661  1  0.67566118  0.14672995  0.45140462  1
  O  O662  1  0.67626343  0.14519120  0.69963776  1
  O  O663  1  0.67548871  0.14605644  0.95038332  1
  O  O664  1  0.67609869  0.48070959  0.20187319  1
  O  O665  1  0.67829920  0.48054482  0.44926034  1
  O  O666  1  0.67839635  0.48073508  0.69741942  1
  O  O667  1  0.67570038  0.48110821  0.94994972  1
  O  O668  1  0.67783955  0.81314543  0.19954013  1
  O  O669  1  0.67762763  0.81209487  0.44961604  1
  O  O670  1  0.67623260  0.81324250  0.69975405  1
  O  O671  1  0.67650661  0.81499833  0.94986626  1
