# generated using pymatgen
data_Na2MnFe(PO4)2
_symmetry_space_group_name_H-M   'P 1'
_cell_length_a   22.34609533
_cell_length_b   20.09740591
_cell_length_c   19.44752815
_cell_angle_alpha   90.02881839
_cell_angle_beta   90.05965155
_cell_angle_gamma   90.03183481
_symmetry_Int_Tables_number   1
_chemical_formula_structural   Na2MnFe(PO4)2
_chemical_formula_sum   'Na96 Mn48 Fe48 P96 O384'
_cell_volume   8733.84947369
_cell_formula_units_Z   48
loop_
 _symmetry_equiv_pos_site_id
 _symmetry_equiv_pos_as_xyz
  1  'x, y, z'
loop_
 _atom_site_type_symbol
 _atom_site_label
 _atom_site_symmetry_multiplicity
 _atom_site_fract_x
 _atom_site_fract_y
 _atom_site_fract_z
 _atom_site_occupancy
  Na  Na0  1  0.14065932  0.25155024  0.24483646  1
  Na  Na1  1  0.14035817  0.25144857  0.49364675  1
  Na  Na2  1  0.13990454  0.25095782  0.74170811  1
  Na  Na3  1  0.14041664  0.25079363  0.99272618  1
  Na  Na4  1  0.14027132  0.58345678  0.24524852  1
  Na  Na5  1  0.14119855  0.58281174  0.49309833  1
  Na  Na6  1  0.14050872  0.58201593  0.74409909  1
  Na  Na7  1  0.13935843  0.58201705  0.99308839  1
  Na  Na8  1  0.13949240  0.91618768  0.24399794  1
  Na  Na9  1  0.13979272  0.91673353  0.49329731  1
  Na  Na10  1  0.13917488  0.91671335  0.74313192  1
  Na  Na11  1  0.13910230  0.91664947  0.99361225  1
  Na  Na12  1  0.64068452  0.24913699  0.24320056  1
  Na  Na13  1  0.64050819  0.25001828  0.49384744  1
  Na  Na14  1  0.64034180  0.24945075  0.74349420  1
  Na  Na15  1  0.64036704  0.24811740  0.99324710  1
  Na  Na16  1  0.64059587  0.58395022  0.24401770  1
  Na  Na17  1  0.64059833  0.58488083  0.49307023  1
  Na  Na18  1  0.64040629  0.58315068  0.74463448  1
  Na  Na19  1  0.64011892  0.58231026  0.99278899  1
  Na  Na20  1  0.63983039  0.91602139  0.24365159  1
  Na  Na21  1  0.64029791  0.91678179  0.49479816  1
  Na  Na22  1  0.63955461  0.91662510  0.74473129  1
  Na  Na23  1  0.63964438  0.91568554  0.99371749  1
  Na  Na24  1  0.35962719  0.08419118  0.00582078  1
  Na  Na25  1  0.36008541  0.08374418  0.25734902  1
  Na  Na26  1  0.36020495  0.08495585  0.50696868  1
  Na  Na27  1  0.35977797  0.08399918  0.75629485  1
  Na  Na28  1  0.35978698  0.41686906  0.00441007  1
  Na  Na29  1  0.35943367  0.41800780  0.25552817  1
  Na  Na30  1  0.36000730  0.41729779  0.50607942  1
  Na  Na31  1  0.36037255  0.41675909  0.75593708  1
  Na  Na32  1  0.35968635  0.74890528  0.00669913  1
  Na  Na33  1  0.35909961  0.74914430  0.25669675  1
  Na  Na34  1  0.35946716  0.75003389  0.50645984  1
  Na  Na35  1  0.35954252  0.74960256  0.75664829  1
  Na  Na36  1  0.85980574  0.08081961  0.00581048  1
  Na  Na37  1  0.85995064  0.08111488  0.25621801  1
  Na  Na38  1  0.86039442  0.08325806  0.50718234  1
  Na  Na39  1  0.86034424  0.08224556  0.75754201  1
  Na  Na40  1  0.85984614  0.41599149  0.00554416  1
  Na  Na41  1  0.85971716  0.41779358  0.25608327  1
  Na  Na42  1  0.86039615  0.41771229  0.50609160  1
  Na  Na43  1  0.86075887  0.41609937  0.75557097  1
  Na  Na44  1  0.85986278  0.75054545  0.00755053  1
  Na  Na45  1  0.85920725  0.75011784  0.25650987  1
  Na  Na46  1  0.85985535  0.75176240  0.50560360  1
  Na  Na47  1  0.86018686  0.75122121  0.75735597  1
  Na  Na48  1  0.10921350  0.08172004  0.11927734  1
  Na  Na49  1  0.10910929  0.08277318  0.36998209  1
  Na  Na50  1  0.10898776  0.08324825  0.61803943  1
  Na  Na51  1  0.10848110  0.08264023  0.86741056  1
  Na  Na52  1  0.10991976  0.41812335  0.11801956  1
  Na  Na53  1  0.11044782  0.41667529  0.36948888  1
  Na  Na54  1  0.11032813  0.41550622  0.61730880  1
  Na  Na55  1  0.10987632  0.41636248  0.86713402  1
  Na  Na56  1  0.10857049  0.75037911  0.11905411  1
  Na  Na57  1  0.10978121  0.75167402  0.36838032  1
  Na  Na58  1  0.10909951  0.75099565  0.61818157  1
  Na  Na59  1  0.10871371  0.75079238  0.86955341  1
  Na  Na60  1  0.60934710  0.08150049  0.11879344  1
  Na  Na61  1  0.60939957  0.08334328  0.36908217  1
  Na  Na62  1  0.60977253  0.08306653  0.62045011  1
  Na  Na63  1  0.60896452  0.08276463  0.86808337  1
  Na  Na64  1  0.60991163  0.41630157  0.11766499  1
  Na  Na65  1  0.60998361  0.41649416  0.36803387  1
  Na  Na66  1  0.60990052  0.41694257  0.61909500  1
  Na  Na67  1  0.60963732  0.41575863  0.86807256  1
  Na  Na68  1  0.60901696  0.74949443  0.11816726  1
  Na  Na69  1  0.60991295  0.75039262  0.36848102  1
  Na  Na70  1  0.60954157  0.75097233  0.61969303  1
  Na  Na71  1  0.60908679  0.75050970  0.86957179  1
  Na  Na72  1  0.39058480  0.24911585  0.13063462  1
  Na  Na73  1  0.39081361  0.25028249  0.38095918  1
  Na  Na74  1  0.39123108  0.25077669  0.63183772  1
  Na  Na75  1  0.39044899  0.25107794  0.87993935  1
  Na  Na76  1  0.39004414  0.58255005  0.13001988  1
  Na  Na77  1  0.38988124  0.58320717  0.38209032  1
  Na  Na78  1  0.39077520  0.58336705  0.63089928  1
  Na  Na79  1  0.39076316  0.58291704  0.88155849  1
  Na  Na80  1  0.39031323  0.91683294  0.13161386  1
  Na  Na81  1  0.39025202  0.91723903  0.38204247  1
  Na  Na82  1  0.39035881  0.91773450  0.63216517  1
  Na  Na83  1  0.39021959  0.91687471  0.88067727  1
  Na  Na84  1  0.89112143  0.24907378  0.13051325  1
  Na  Na85  1  0.89122648  0.24995089  0.38201857  1
  Na  Na86  1  0.89153945  0.24911565  0.63108769  1
  Na  Na87  1  0.89093866  0.24967589  0.88066710  1
  Na  Na88  1  0.89006349  0.58366912  0.13159618  1
  Na  Na89  1  0.89004407  0.58369365  0.38274796  1
  Na  Na90  1  0.89095349  0.58308487  0.63025946  1
  Na  Na91  1  0.89135723  0.58385252  0.88235187  1
  Na  Na92  1  0.88956475  0.91629181  0.13120633  1
  Na  Na93  1  0.89026835  0.91722057  0.38117531  1
  Na  Na94  1  0.89039152  0.91776405  0.63204717  1
  Na  Na95  1  0.89008709  0.91585788  0.88218551  1
  Mn  Mn96  1  0.50062094  0.33246746  0.49979951  1
  Mn  Mn97  1  0.24957214  0.66562975  0.62506891  1
  Mn  Mn98  1  0.75007835  0.16565356  0.87506145  1
  Mn  Mn99  1  0.00096711  0.33354475  -0.00015735  1
  Mn  Mn100  1  0.24983909  0.16828721  0.37597649  1
  Mn  Mn101  1  0.50040589  0.49992851  0.24948399  1
  Mn  Mn102  1  0.00004620  0.66780839  0.50055604  1
  Mn  Mn103  1  0.00030013  0.66782188  0.25079231  1
  Mn  Mn104  1  0.00056658  0.16530004  -0.00010162  1
  Mn  Mn105  1  0.24880217  0.16763821  0.87459037  1
  Mn  Mn106  1  0.00066569  0.16537148  0.25063532  1
  Mn  Mn107  1  0.75087700  0.16494068  0.12384920  1
  Mn  Mn108  1  0.49903490  0.00000265  -0.00035181  1
  Mn  Mn109  1  0.50056376  0.83355634  0.50035105  1
  Mn  Mn110  1  0.74930802  -0.00103148  0.37541502  1
  Mn  Mn111  1  0.75040754  0.50062507  0.62494053  1
  Mn  Mn112  1  0.75015860  0.33373090  0.62418896  1
  Mn  Mn113  1  0.24997983  0.00008663  0.12561804  1
  Mn  Mn114  1  0.00018870  0.33341725  0.25036053  1
  Mn  Mn115  1  -0.00011263  0.50047023  0.25026207  1
  Mn  Mn116  1  0.75078366  0.49888108  0.87440870  1
  Mn  Mn117  1  0.74974404  0.66636992  0.12541652  1
  Mn  Mn118  1  0.25016787  0.16764613  0.62487957  1
  Mn  Mn119  1  0.24945927  0.83356741  0.62516056  1
  Mn  Mn120  1  0.75094110  0.16612872  0.62526954  1
  Mn  Mn121  1  0.75069349  0.66692805  0.87554393  1
  Mn  Mn122  1  0.49997512  0.66707482  0.75081824  1
  Mn  Mn123  1  0.24968278  0.16771654  0.12502924  1
  Mn  Mn124  1  0.24999830  0.33504062  0.12413617  1
  Mn  Mn125  1  0.24945016  0.83287315  0.12539329  1
  Mn  Mn126  1  0.75041238  0.66759148  0.62501475  1
  Mn  Mn127  1  0.50001525  0.00115962  0.50112220  1
  Mn  Mn128  1  0.24944021  0.66506150  0.87540704  1
  Mn  Mn129  1  0.75067771  0.33335919  0.12471955  1
  Mn  Mn130  1  0.75045648  0.16610168  0.37461598  1
  Mn  Mn131  1  0.50061426  0.33257705  -0.00068720  1
  Mn  Mn132  1  0.75107183  0.33442168  0.37372925  1
  Mn  Mn133  1  0.24962596  0.00023061  0.87512829  1
  Mn  Mn134  1  0.50045494  0.50051076  0.49999518  1
  Mn  Mn135  1  0.24991981  0.83301897  0.87491612  1
  Mn  Mn136  1  0.49995937  0.33192717  0.24879461  1
  Mn  Mn137  1  0.24891381  0.66546154  0.12577366  1
  Mn  Mn138  1  0.49949800  0.66633732  0.24917507  1
  Mn  Mn139  1  0.74961978  0.83428084  0.62608072  1
  Mn  Mn140  1  0.00051042  0.66747939  0.75035963  1
  Mn  Mn141  1  0.24954142  0.00006468  0.37541286  1
  Mn  Mn142  1  0.49868910  0.83363904  0.24985948  1
  Mn  Mn143  1  0.00090426  0.49937622  0.75006060  1
  Fe  Fe144  1  0.00034315  0.33280976  0.50018841  1
  Fe  Fe145  1  -0.00048214  -0.00006746  0.50038648  1
  Fe  Fe146  1  0.24940095  0.50019722  0.12520232  1
  Fe  Fe147  1  0.74951547  -0.00114727  0.87588695  1
  Fe  Fe148  1  0.75017734  0.83352358  0.37495525  1
  Fe  Fe149  1  0.49989930  0.49953573  -0.00078750  1
  Fe  Fe150  1  0.25075853  0.33443291  0.62437563  1
  Fe  Fe151  1  -0.00017901  -0.00027826  0.74943807  1
  Fe  Fe152  1  0.50062760  0.33336579  0.75015184  1
  Fe  Fe153  1  -0.00065630  0.83396509  -0.00002209  1
  Fe  Fe154  1  -0.00038554  0.50026594  -0.00047597  1
  Fe  Fe155  1  0.25070610  0.33476147  0.37462751  1
  Fe  Fe156  1  0.25026239  0.50017479  0.37512045  1
  Fe  Fe157  1  0.25068499  0.49957379  0.62427627  1
  Fe  Fe158  1  0.24986612  0.33409142  0.87394895  1
  Fe  Fe159  1  0.00001036  0.33280583  0.74901921  1
  Fe  Fe160  1  0.25037965  0.49890972  0.87389205  1
  Fe  Fe161  1  0.50031543  0.16664285  0.50051464  1
  Fe  Fe162  1  0.25003167  0.66653685  0.37516914  1
  Fe  Fe163  1  -0.00061126  -0.00086205  -0.00062703  1
  Fe  Fe164  1  0.00021052  0.16635125  0.74928865  1
  Fe  Fe165  1  0.49974491  0.16604380  -0.00019427  1
  Fe  Fe166  1  -0.00036243  -0.00061665  0.25033169  1
  Fe  Fe167  1  0.49959330  0.00044762  0.75060156  1
  Fe  Fe168  1  0.50095546  0.50049923  0.75001771  1
  Fe  Fe169  1  0.50005722  0.16690046  0.75019028  1
  Fe  Fe170  1  0.50036416  0.66728151  0.50065739  1
  Fe  Fe171  1  -0.00070167  0.83395337  0.75015903  1
  Fe  Fe172  1  0.49978858  0.66640240  -0.00078215  1
  Fe  Fe173  1  0.74987944  0.50099190  0.37510781  1
  Fe  Fe174  1  0.74941638  -0.00148444  0.12533823  1
  Fe  Fe175  1  0.74938284  0.83353521  0.87604401  1
  Fe  Fe176  1  0.74999828  0.66748010  0.37457053  1
  Fe  Fe177  1  0.74968331  0.49992972  0.12492197  1
  Fe  Fe178  1  0.74905680  0.83294048  0.12536556  1
  Fe  Fe179  1  -0.00008542  0.83448091  0.49978017  1
  Fe  Fe180  1  0.25001152  0.00035371  0.62481840  1
  Fe  Fe181  1  0.49912136  0.83327629  0.75043957  1
  Fe  Fe182  1  0.75007748  0.33257604  0.87496166  1
  Fe  Fe183  1  -0.00043160  0.66753110  0.00053092  1
  Fe  Fe184  1  0.49989972  0.00024093  0.25016437  1
  Fe  Fe185  1  0.00081287  0.49970943  0.50064771  1
  Fe  Fe186  1  0.75029159  -0.00028398  0.62559784  1
  Fe  Fe187  1  -0.00008325  0.16625750  0.50031855  1
  Fe  Fe188  1  0.50034903  0.16595004  0.25012206  1
  Fe  Fe189  1  0.49913207  0.83340516  -0.00000462  1
  Fe  Fe190  1  0.25020306  0.83351641  0.37558918  1
  Fe  Fe191  1  -0.00073591  0.83436277  0.24937214  1
  P  P192  1  0.04341180  0.24926523  0.10294103  1
  P  P193  1  0.04270524  0.24959496  0.35436783  1
  P  P194  1  0.04160640  0.24940985  0.60201719  1
  P  P195  1  0.04152665  0.24981877  0.85073314  1
  P  P196  1  0.04070492  0.58381822  0.10153547  1
  P  P197  1  0.04232766  0.58358797  0.35433229  1
  P  P198  1  0.04277310  0.58257952  0.60241035  1
  P  P199  1  0.04246436  0.58373967  0.85406778  1
  P  P200  1  0.04078750  0.91660683  0.10207488  1
  P  P201  1  0.04111468  0.91669162  0.35229000  1
  P  P202  1  0.04108027  0.91707307  0.60216871  1
  P  P203  1  0.04070476  0.91673874  0.85193756  1
  P  P204  1  0.54248255  0.24740380  0.10227784  1
  P  P205  1  0.54274133  0.24822062  0.35243709  1
  P  P206  1  0.54264819  0.24859343  0.60352850  1
  P  P207  1  0.54167241  0.24948321  0.85174814  1
  P  P208  1  0.54130715  0.58299303  0.10064062  1
  P  P209  1  0.54269159  0.58388308  0.35335608  1
  P  P210  1  0.54273975  0.58498015  0.60299864  1
  P  P211  1  0.54220413  0.58225011  0.85339707  1
  P  P212  1  0.54143687  0.91574075  0.10247522  1
  P  P213  1  0.54192437  0.91806677  0.35249511  1
  P  P214  1  0.54235047  0.91721019  0.60467002  1
  P  P215  1  0.54034653  0.91631217  0.85218881  1
  P  P216  1  0.45812724  0.08312617  0.14823832  1
  P  P217  1  0.45776823  0.08493513  0.39737918  1
  P  P218  1  0.45862037  0.08418884  0.64868146  1
  P  P219  1  0.45758212  0.08488599  0.89659910  1
  P  P220  1  0.45766857  0.41641307  0.14565538  1
  P  P221  1  0.45768208  0.41622807  0.39679138  1
  P  P222  1  0.45971755  0.41705194  0.64857160  1
  P  P223  1  0.45859710  0.41747008  0.89624849  1
  P  P224  1  0.45662209  0.74972337  0.14565250  1
  P  P225  1  0.45764423  0.74909338  0.39798619  1
  P  P226  1  0.45754675  0.75100457  0.64772069  1
  P  P227  1  0.45816152  0.75045016  0.89804892  1
  P  P228  1  0.95784264  0.08099372  0.14738490  1
  P  P229  1  0.95848208  0.08278246  0.39858065  1
  P  P230  1  0.95875831  0.08310705  0.64773193  1
  P  P231  1  0.95790174  0.08151060  0.89646997  1
  P  P232  1  0.95762672  0.41713537  0.14641883  1
  P  P233  1  0.95919570  0.41652803  0.39887172  1
  P  P234  1  0.95893975  0.41501657  0.64632787  1
  P  P235  1  0.95830226  0.41721028  0.89695485  1
  P  P236  1  0.95753380  0.75153256  0.14709434  1
  P  P237  1  0.95809905  0.75239534  0.39728789  1
  P  P238  1  0.95782542  0.75202014  0.64743477  1
  P  P239  1  0.95819488  0.75069686  0.89851178  1
  P  P240  1  0.20712078  0.08399984  0.22864912  1
  P  P241  1  0.20751016  0.08378757  0.47906149  1
  P  P242  1  0.20747511  0.08280039  0.72689591  1
  P  P243  1  0.20624988  0.08386623  0.97803865  1
  P  P244  1  0.20763009  0.41872377  0.22804579  1
  P  P245  1  0.20917220  0.41702128  0.47699034  1
  P  P246  1  0.20894168  0.41692091  0.72640034  1
  P  P247  1  0.20800853  0.41693256  0.97596420  1
  P  P248  1  0.20688888  0.74960167  0.22955836  1
  P  P249  1  0.20858889  0.75001825  0.47663563  1
  P  P250  1  0.20661090  0.74924193  0.72809954  1
  P  P251  1  0.20680554  0.74921756  0.97828654  1
  P  P252  1  0.70781494  0.08140521  0.22711988  1
  P  P253  1  0.70754662  0.08293590  0.47884252  1
  P  P254  1  0.70857118  0.08137259  0.72838542  1
  P  P255  1  0.70743766  0.08079518  0.97774557  1
  P  P256  1  0.70782778  0.41830733  0.22747672  1
  P  P257  1  0.70783233  0.41824271  0.47682921  1
  P  P258  1  0.70759846  0.41628965  0.72832920  1
  P  P259  1  0.70769463  0.41493874  0.97741166  1
  P  P260  1  0.70749107  0.75088602  0.22815687  1
  P  P261  1  0.70858131  0.75094538  0.47652353  1
  P  P262  1  0.70731125  0.75057952  0.72928144  1
  P  P263  1  0.70783601  0.75104327  0.97837252  1
  P  P264  1  0.29253982  0.25119830  0.02092938  1
  P  P265  1  0.29250185  0.25222232  0.27261934  1
  P  P266  1  0.29266444  0.25254360  0.52220714  1
  P  P267  1  0.29156738  0.25190770  0.77160618  1
  P  P268  1  0.29136999  0.58109550  0.02218443  1
  P  P269  1  0.29125991  0.58299631  0.27338602  1
  P  P270  1  0.29233677  0.58205226  0.52166920  1
  P  P271  1  0.29258740  0.58130160  0.77196403  1
  P  P272  1  0.29262803  0.91657811  0.02212491  1
  P  P273  1  0.29218068  0.91538575  0.27311924  1
  P  P274  1  0.29193889  0.91775995  0.52249302  1
  P  P275  1  0.29223430  0.91717079  0.77128037  1
  P  P276  1  0.79315860  0.24938064  0.02098354  1
  P  P277  1  0.79380581  0.24956097  0.27127495  1
  P  P278  1  0.79363353  0.25011256  0.52164703  1
  P  P279  1  0.79246049  0.25058531  0.77258024  1
  P  P280  1  0.79211458  0.58195663  0.02283069  1
  P  P281  1  0.79149914  0.58354651  0.27328683  1
  P  P282  1  0.79281333  0.58432655  0.52080737  1
  P  P283  1  0.79401839  0.58349634  0.77208524  1
  P  P284  1  0.79058840  0.91586530  0.02322809  1
  P  P285  1  0.79168822  0.91501486  0.27199229  1
  P  P286  1  0.79229020  0.91755066  0.52284440  1
  P  P287  1  0.79125379  0.91665119  0.77412391  1
  O  O288  1  0.03820774  0.24929947  0.18289740  1
  O  O289  1  0.03707250  0.24963402  0.43426735  1
  O  O290  1  0.03608505  0.24974572  0.68190594  1
  O  O291  1  0.03705689  0.24959026  0.93072277  1
  O  O292  1  0.03618346  0.58417783  0.18159046  1
  O  O293  1  0.03716668  0.58305646  0.43424860  1
  O  O294  1  0.03790654  0.58279990  0.68239920  1
  O  O295  1  0.03670377  0.58359285  0.93393284  1
  O  O296  1  0.03555039  0.91676127  0.18195996  1
  O  O297  1  0.03608569  0.91651351  0.43217860  1
  O  O298  1  0.03613017  0.91725787  0.68205087  1
  O  O299  1  0.03542963  0.91698590  0.93179697  1
  O  O300  1  0.53726404  0.24736643  0.18223155  1
  O  O301  1  0.53773995  0.24827410  0.43244343  1
  O  O302  1  0.53702613  0.24921902  0.68339321  1
  O  O303  1  0.53687435  0.24941736  0.93167601  1
  O  O304  1  0.53646992  0.58331246  0.18066312  1
  O  O305  1  0.53786620  0.58448267  0.43333908  1
  O  O306  1  0.53746995  0.58448300  0.68295921  1
  O  O307  1  0.53659569  0.58221720  0.93324371  1
  O  O308  1  0.53612841  0.91654284  0.18238482  1
  O  O309  1  0.53719188  0.91804453  0.43250258  1
  O  O310  1  0.53686588  0.91686450  0.68452475  1
  O  O311  1  0.53506620  0.91621415  0.93213000  1
  O  O312  1  0.46287570  0.08322372  0.06821101  1
  O  O313  1  0.46309962  0.08430498  0.31749741  1
  O  O314  1  0.46361626  0.08445234  0.56873105  1
  O  O315  1  0.46301423  0.08464520  0.81675219  1
  O  O316  1  0.46314723  0.41670022  0.06571175  1
  O  O317  1  0.46247627  0.41608988  0.31681509  1
  O  O318  1  0.46454606  0.41657115  0.56859931  1
  O  O319  1  0.46428247  0.41752112  0.81640920  1
  O  O320  1  0.46198276  0.74969180  0.06574796  1
  O  O321  1  0.46222655  0.74934301  0.31795869  1
  O  O322  1  0.46303504  0.75026152  0.56782518  1
  O  O323  1  0.46316786  0.75059365  0.81806454  1
  O  O324  1  0.96307220  0.08089247  0.06742750  1
  O  O325  1  0.96355315  0.08182596  0.31865805  1
  O  O326  1  0.96352481  0.08372865  0.56784013  1
  O  O327  1  0.96324667  0.08171515  0.81660758  1
  O  O328  1  0.96299484  0.41767216  0.06647403  1
  O  O329  1  0.96379387  0.41680969  0.31882831  1
  O  O330  1  0.96467041  0.41530253  0.56645701  1
  O  O331  1  0.96348537  0.41652469  0.81700340  1
  O  O332  1  0.96267414  0.75100776  0.06719503  1
  O  O333  1  0.96345227  0.75233202  0.31736977  1
  O  O334  1  0.96333954  0.75229315  0.56751404  1
  O  O335  1  0.96303857  0.75057233  0.81855368  1
  O  O336  1  0.21139254  0.08393447  0.05803416  1
  O  O337  1  0.21226951  0.08402124  0.30865746  1
  O  O338  1  0.21300202  0.08320046  0.55899985  1
  O  O339  1  0.21209386  0.08307706  0.80692662  1
  O  O340  1  0.21266928  0.41743845  0.05596508  1
  O  O341  1  0.21311565  0.41846901  0.30790114  1
  O  O342  1  0.21456893  0.41694381  0.55688366  1
  O  O343  1  0.21403090  0.41673510  0.80633385  1
  O  O344  1  0.21168076  0.74910842  0.05831129  1
  O  O345  1  0.21248936  0.75006789  0.30946440  1
  O  O346  1  0.21307503  0.74976726  0.55667060  1
  O  O347  1  0.21169853  0.74923900  0.80805815  1
  O  O348  1  0.71267479  0.08070732  0.05768633  1
  O  O349  1  0.71294204  0.08192727  0.30711019  1
  O  O350  1  0.71302517  0.08257666  0.55880489  1
  O  O351  1  0.71358437  0.08128308  0.80836263  1
  O  O352  1  0.71291662  0.41582115  0.05738324  1
  O  O353  1  0.71322336  0.41872446  0.30743751  1
  O  O354  1  0.71283944  0.41790072  0.55684841  1
  O  O355  1  0.71280237  0.41538478  0.80828592  1
  O  O356  1  0.71289597  0.75105800  0.05836304  1
  O  O357  1  0.71302165  0.75077181  0.30802293  1
  O  O358  1  0.71321658  0.75069214  0.55655286  1
  O  O359  1  0.71243970  0.75094680  0.80923081  1
  O  O360  1  0.28709663  0.25185120  0.19265526  1
  O  O361  1  0.28743090  0.25266297  0.44226346  1
  O  O362  1  0.28655241  0.25190107  0.69162725  1
  O  O363  1  0.28712644  0.25143047  0.94095894  1
  O  O364  1  0.28618162  0.58300381  0.19341564  1
  O  O365  1  0.28685526  0.58233603  0.44178657  1
  O  O366  1  0.28750447  0.58145143  0.69199126  1
  O  O367  1  0.28635322  0.58082305  0.94221629  1
  O  O368  1  0.28703541  0.91561063  0.19314028  1
  O  O369  1  0.28682764  0.91698238  0.44248877  1
  O  O370  1  0.28700850  0.91781927  0.69129607  1
  O  O371  1  0.28773748  0.91664496  0.94209643  1
  O  O372  1  0.78870392  0.24954532  0.19126215  1
  O  O373  1  0.78879602  0.24999658  0.44164208  1
  O  O374  1  0.78746585  0.25030697  0.69258416  1
  O  O375  1  0.78768572  0.24972781  0.94101837  1
  O  O376  1  0.78651277  0.58321435  0.19327111  1
  O  O377  1  0.78741247  0.58425068  0.44087565  1
  O  O378  1  0.78903425  0.58393269  0.69205445  1
  O  O379  1  0.78742180  0.58225932  0.94286729  1
  O  O380  1  0.78618080  0.91526497  0.19213794  1
  O  O381  1  0.78711094  0.91662291  0.44293260  1
  O  O382  1  0.78661984  0.91719379  0.69411010  1
  O  O383  1  0.78532273  0.91592087  0.94330549  1
  O  O384  1  0.22824490  0.25117807  0.05629999  1
  O  O385  1  0.22828950  0.25276509  0.30837496  1
  O  O386  1  0.22840044  0.25249102  0.55779400  1
  O  O387  1  0.22728510  0.25234254  0.80719085  1
  O  O388  1  0.22707662  0.58114656  0.05784118  1
  O  O389  1  0.22724032  0.58260844  0.30948268  1
  O  O390  1  0.22822724  0.58111894  0.55783838  1
  O  O391  1  0.22825497  0.58104134  0.80743956  1
  O  O392  1  0.22809122  0.91686316  0.05682006  1
  O  O393  1  0.22780469  0.91487900  0.30839953  1
  O  O394  1  0.22759640  0.91807063  0.55786977  1
  O  O395  1  0.22786520  0.91674803  0.80643396  1
  O  O396  1  0.72891513  0.24907690  0.05639286  1
  O  O397  1  0.72933562  0.25002909  0.30615044  1
  O  O398  1  0.72912637  0.24959003  0.55639823  1
  O  O399  1  0.72812134  0.25068710  0.80797493  1
  O  O400  1  0.72768849  0.58199131  0.05798137  1
  O  O401  1  0.72736178  0.58318539  0.30914344  1
  O  O402  1  0.72860550  0.58417072  0.55656555  1
  O  O403  1  0.72951064  0.58333178  0.80681130  1
  O  O404  1  0.72654836  0.91601927  0.05957059  1
  O  O405  1  0.72753468  0.91452908  0.30804847  1
  O  O406  1  0.72800008  0.91841300  0.55852604  1
  O  O407  1  0.72692248  0.91626363  0.80968415  1
  O  O408  1  0.27154730  0.08408217  0.19364075  1
  O  O409  1  0.27170416  0.08397724  0.44355493  1
  O  O410  1  0.27193121  0.08282803  0.69188006  1
  O  O411  1  0.27074454  0.08431522  0.94322883  1
  O  O412  1  0.27178974  0.41905220  0.19194016  1
  O  O413  1  0.27314938  0.41722849  0.44045978  1
  O  O414  1  0.27312357  0.41712700  0.69026239  1
  O  O415  1  0.27232319  0.41634247  0.94027885  1
  O  O416  1  0.27103821  0.74922593  0.19373689  1
  O  O417  1  0.27283637  0.75076544  0.44119204  1
  O  O418  1  0.27104668  0.74946809  0.69318508  1
  O  O419  1  0.27126967  0.74902962  0.94338177  1
  O  O420  1  0.77212625  0.08054605  0.19165533  1
  O  O421  1  0.77182937  0.08262160  0.44344316  1
  O  O422  1  0.77280220  0.08109084  0.69264731  1
  O  O423  1  0.77175602  0.08087644  0.94228910  1
  O  O424  1  0.77211927  0.41849294  0.19187187  1
  O  O425  1  0.77224446  0.41894557  0.44157808  1
  O  O426  1  0.77196785  0.41675396  0.69315597  1
  O  O427  1  0.77202489  0.41408669  0.94181998  1
  O  O428  1  0.77157330  0.75110144  0.19199049  1
  O  O429  1  0.77276306  0.75140121  0.44084170  1
  O  O430  1  0.77168881  0.75080120  0.69412790  1
  O  O431  1  0.77212636  0.75151620  0.94285114  1
  O  O432  1  0.02205118  0.08066812  0.18338156  1
  O  O433  1  0.02251765  0.08362472  0.43485600  1
  O  O434  1  0.02281906  0.08246141  0.68394230  1
  O  O435  1  0.02201050  0.08085170  0.93272901  1
  O  O436  1  0.02196337  0.41704440  0.18185574  1
  O  O437  1  0.02341499  0.41600916  0.43454011  1
  O  O438  1  0.02294991  0.41456163  0.68284388  1
  O  O439  1  0.02257885  0.41807567  0.93268199  1
  O  O440  1  0.02168702  0.75204080  0.18322444  1
  O  O441  1  0.02225349  0.75224805  0.43336559  1
  O  O442  1  0.02202909  0.75240346  0.68342562  1
  O  O443  1  0.02225478  0.75134439  0.93465300  1
  O  O444  1  0.52237462  0.08270577  0.18418411  1
  O  O445  1  0.52198945  0.08527325  0.43350534  1
  O  O446  1  0.52265570  0.08435648  0.68493470  1
  O  O447  1  0.52168639  0.08453430  0.93290262  1
  O  O448  1  0.52195619  0.41605982  0.18122761  1
  O  O449  1  0.52212868  0.41650315  0.43182429  1
  O  O450  1  0.52381728  0.41748710  0.68449814  1
  O  O451  1  0.52259729  0.41760033  0.93275906  1
  O  O452  1  0.52087259  0.75019884  0.18138253  1
  O  O453  1  0.52214699  0.74873372  0.43318312  1
  O  O454  1  0.52172223  0.75157168  0.68375411  1
  O  O455  1  0.52223472  0.75094105  0.93420448  1
  O  O456  1  0.47823058  0.24799928  0.06643711  1
  O  O457  1  0.47839570  0.24798489  0.31679439  1
  O  O458  1  0.47851544  0.24821285  0.56715038  1
  O  O459  1  0.47755757  0.24924391  0.81565975  1
  O  O460  1  0.47709848  0.58280862  0.06491886  1
  O  O461  1  0.47821100  0.58318725  0.31828079  1
  O  O462  1  0.47847555  0.58520882  0.56711657  1
  O  O463  1  0.47818614  0.58193399  0.81693835  1
  O  O464  1  0.47721203  0.91527286  0.06651984  1
  O  O465  1  0.47752259  0.91858914  0.31710999  1
  O  O466  1  0.47824477  0.91695302  0.56859505  1
  O  O467  1  0.47641016  0.91610959  0.81574551  1
  O  O468  1  0.97908215  0.24954850  0.06759942  1
  O  O469  1  0.97860189  0.24936821  0.31823105  1
  O  O470  1  0.97768619  0.24937385  0.56523134  1
  O  O471  1  0.97728892  0.25050811  0.81503719  1
  O  O472  1  0.97650861  0.58316470  0.06587490  1
  O  O473  1  0.97806833  0.58406791  0.31874478  1
  O  O474  1  0.97841061  0.58292393  0.56711287  1
  O  O475  1  0.97846094  0.58342129  0.81778034  1
  O  O476  1  0.97671409  0.91651622  0.06552563  1
  O  O477  1  0.97702684  0.91702198  0.31581644  1
  O  O478  1  0.97694286  0.91645464  0.56602226  1
  O  O479  1  0.97665424  0.91662446  0.81545361  1
  O  O480  1  0.07471509  0.31264534  0.07489092  1
  O  O481  1  0.07383657  0.31306942  0.32612882  1
  O  O482  1  0.07271473  0.31290357  0.57361846  1
  O  O483  1  0.07282458  0.31319393  0.82266996  1
  O  O484  1  0.07087108  0.64794258  0.07334208  1
  O  O485  1  0.07343383  0.64720386  0.32650546  1
  O  O486  1  0.07415693  0.64604257  0.57470413  1
  O  O487  1  0.07352597  0.64733207  0.82600066  1
  O  O488  1  0.07179407  0.98002594  0.07342455  1
  O  O489  1  0.07226708  0.98027028  0.32417169  1
  O  O490  1  0.07130774  0.98095577  0.57329307  1
  O  O491  1  0.07178902  0.98005902  0.82309111  1
  O  O492  1  0.57393314  0.31094270  0.07466361  1
  O  O493  1  0.57345945  0.31209384  0.32446225  1
  O  O494  1  0.57369585  0.31218952  0.57521073  1
  O  O495  1  0.57189545  0.31356122  0.82339160  1
  O  O496  1  0.57185185  0.64687056  0.07240988  1
  O  O497  1  0.57346682  0.64719638  0.32441143  1
  O  O498  1  0.57324953  0.64878231  0.57469524  1
  O  O499  1  0.57323600  0.64611305  0.82583487  1
  O  O500  1  0.57247209  0.97916370  0.07409842  1
  O  O501  1  0.57289931  0.98139815  0.32396089  1
  O  O502  1  0.57334732  0.98078556  0.57653372  1
  O  O503  1  0.57064052  0.98054437  0.82433382  1
  O  O504  1  0.42734905  0.01938657  0.17645190  1
  O  O505  1  0.42665511  0.02147176  0.42588580  1
  O  O506  1  0.42835654  0.02006865  0.67683393  1
  O  O507  1  0.42600029  0.02154346  0.92462958  1
  O  O508  1  0.42653149  0.35279810  0.17342732  1
  O  O509  1  0.42695030  0.35271065  0.42523017  1
  O  O510  1  0.42933483  0.35311511  0.67694195  1
  O  O511  1  0.42742434  0.35379332  0.92397356  1
  O  O512  1  0.42570106  0.68610251  0.17398328  1
  O  O513  1  0.42694721  0.68566034  0.42663032  1
  O  O514  1  0.42637722  0.68757684  0.67599887  1
  O  O515  1  0.42816966  0.68601679  0.92586496  1
  O  O516  1  0.92656798  0.01793151  0.17612353  1
  O  O517  1  0.92805754  0.01906140  0.42746580  1
  O  O518  1  0.92723757  0.01979002  0.67583228  1
  O  O519  1  0.92651829  0.01839200  0.92522023  1
  O  O520  1  0.92672141  0.35340098  0.17427839  1
  O  O521  1  0.92786449  0.35303750  0.42655756  1
  O  O522  1  0.92765658  0.35168696  0.67472289  1
  O  O523  1  0.92744069  0.35359673  0.92509678  1
  O  O524  1  0.92660541  0.68794686  0.17560215  1
  O  O525  1  0.92699147  0.68870084  0.42499399  1
  O  O526  1  0.92717697  0.68794276  0.67485967  1
  O  O527  1  0.92811089  0.68661460  0.92709579  1
  O  O528  1  0.17626099  0.02024211  0.20072559  1
  O  O529  1  0.17601204  0.02066955  0.45058395  1
  O  O530  1  0.17694436  0.01915235  0.69830047  1
  O  O531  1  0.17551928  0.02019866  0.94985442  1
  O  O532  1  0.17653245  0.35519715  0.19971189  1
  O  O533  1  0.17838028  0.35331398  0.44856678  1
  O  O534  1  0.17809385  0.35330526  0.69781532  1
  O  O535  1  0.17717088  0.35319120  0.94767132  1
  O  O536  1  0.17548975  0.68613326  0.20146289  1
  O  O537  1  0.17856544  0.68586776  0.44828197  1
  O  O538  1  0.17578292  0.68564189  0.69988022  1
  O  O539  1  0.17574427  0.68577756  0.95012401  1
  O  O540  1  0.67659993  0.01791050  0.19920656  1
  O  O541  1  0.67588534  0.01981851  0.45051728  1
  O  O542  1  0.67743577  0.01815847  0.69967796  1
  O  O543  1  0.67635490  0.01753967  0.94899890  1
  O  O544  1  0.67701126  0.35428545  0.19998314  1
  O  O545  1  0.67728794  0.35430011  0.44883797  1
  O  O546  1  0.67635657  0.35318801  0.69944818  1
  O  O547  1  0.67671514  0.35130995  0.94931388  1
  O  O548  1  0.67638422  0.68720576  0.19999248  1
  O  O549  1  0.67836195  0.68704897  0.44781556  1
  O  O550  1  0.67657782  0.68687970  0.70099597  1
  O  O551  1  0.67724487  0.68702231  0.95061700  1
  O  O552  1  0.32387056  0.31444005  0.04931556  1
  O  O553  1  0.32359648  0.31575331  0.30062030  1
  O  O554  1  0.32374131  0.31575844  0.55107319  1
  O  O555  1  0.32282010  0.31510250  0.80019813  1
  O  O556  1  0.32223858  0.64493042  0.05000196  1
  O  O557  1  0.32145093  0.64711198  0.30193802  1
  O  O558  1  0.32288655  0.64594720  0.54994707  1
  O  O559  1  0.32335280  0.64513774  0.80009368  1
  O  O560  1  0.32376419  0.98007421  0.05033967  1
  O  O561  1  0.32295215  0.97927644  0.30081679  1
  O  O562  1  0.32260414  0.98156985  0.55078798  1
  O  O563  1  0.32343967  0.98037435  0.79993785  1
  O  O564  1  0.82448827  0.31254056  0.04952984  1
  O  O565  1  0.82503541  0.31304481  0.29935125  1
  O  O566  1  0.82421562  0.31390912  0.54968391  1
  O  O567  1  0.82320865  0.31412559  0.80097681  1
  O  O568  1  0.82312231  0.64559664  0.05082738  1
  O  O569  1  0.82151975  0.64792218  0.30134602  1
  O  O570  1  0.82389009  0.64787165  0.54914161  1
  O  O571  1  0.82493842  0.64688565  0.80078403  1
  O  O572  1  0.82167711  0.97943617  0.05160352  1
  O  O573  1  0.82270173  0.97863342  0.30028633  1
  O  O574  1  0.82327586  0.98107694  0.55114290  1
  O  O575  1  0.82211456  0.98008335  0.80289276  1
  O  O576  1  0.42747193  0.14676930  0.17663171  1
  O  O577  1  0.42685741  0.14833774  0.42604288  1
  O  O578  1  0.42709578  0.14739954  0.67676083  1
  O  O579  1  0.42705380  0.14847736  0.92537552  1
  O  O580  1  0.42657980  0.47971085  0.17412962  1
  O  O581  1  0.42661288  0.47960974  0.42504924  1
  O  O582  1  0.42857374  0.48068845  0.67614615  1
  O  O583  1  0.42743751  0.48069103  0.92506420  1
  O  O584  1  0.42514584  0.81279168  0.17437557  1
  O  O585  1  0.42704594  0.81297251  0.42582764  1
  O  O586  1  0.42656230  0.81456369  0.67581320  1
  O  O587  1  0.42653228  0.81350259  0.92626170  1
  O  O588  1  0.92725143  0.14498128  0.17515823  1
  O  O589  1  0.92714238  0.14632021  0.42617961  1
  O  O590  1  0.92852498  0.14692481  0.67684678  1
  O  O591  1  0.92725105  0.14535783  0.92463446  1
  O  O592  1  0.92633436  0.48025654  0.17514482  1
  O  O593  1  0.92903397  0.48057169  0.42718590  1
  O  O594  1  0.92785687  0.47866176  0.67424975  1
  O  O595  1  0.92725751  0.48071763  0.92521609  1
  O  O596  1  0.92651571  0.81494540  0.17556590  1
  O  O597  1  0.92719201  0.81573964  0.42583754  1
  O  O598  1  0.92650427  0.81502419  0.67632684  1
  O  O599  1  0.92663520  0.81389120  0.92661864  1
  O  O600  1  0.07407088  0.18561397  0.07476988  1
  O  O601  1  0.07402726  0.18623333  0.32619060  1
  O  O602  1  0.07256688  0.18571779  0.57409434  1
  O  O603  1  0.07150319  0.18569684  0.82227175  1
  O  O604  1  0.07197899  0.52042860  0.07346194  1
  O  O605  1  0.07337429  0.52033910  0.32566155  1
  O  O606  1  0.07305455  0.51872225  0.57405414  1
  O  O607  1  0.07407095  0.52061543  0.82564048  1
  O  O608  1  0.07177737  0.85302407  0.07371483  1
  O  O609  1  0.07173692  0.85317606  0.32334017  1
  O  O610  1  0.07258860  0.85388252  0.57368910  1
  O  O611  1  0.07162037  0.85302791  0.82379096  1
  O  O612  1  0.57289080  0.18384338  0.07345093  1
  O  O613  1  0.57381507  0.18504366  0.32368214  1
  O  O614  1  0.57369551  0.18518703  0.57519442  1
  O  O615  1  0.57306903  0.18621827  0.82359771  1
  O  O616  1  0.57232083  0.51933517  0.07293423  1
  O  O617  1  0.57381441  0.52036570  0.32526672  1
  O  O618  1  0.57396174  0.52153843  0.57501242  1
  O  O619  1  0.57347357  0.51915770  0.82450783  1
  O  O620  1  0.57225931  0.85214871  0.07426320  1
  O  O621  1  0.57239927  0.85413352  0.32465079  1
  O  O622  1  0.57388712  0.85411963  0.57593678  1
  O  O623  1  0.57180592  0.85308122  0.82411020  1
  O  O624  1  0.32345926  0.18761196  0.04915393  1
  O  O625  1  0.32320944  0.18845886  0.30055590  1
  O  O626  1  0.32356891  0.18876580  0.55004057  1
  O  O627  1  0.32215170  0.18795569  0.79939299  1
  O  O628  1  0.32227078  0.51787262  0.05109157  1
  O  O629  1  0.32293279  0.51986993  0.30142147  1
  O  O630  1  0.32387587  0.51900589  0.55023781  1
  O  O631  1  0.32356860  0.51806486  0.80067395  1
  O  O632  1  0.32333105  0.85298588  0.05026098  1
  O  O633  1  0.32325660  0.85208568  0.30158337  1
  O  O634  1  0.32311897  0.85435275  0.55068846  1
  O  O635  1  0.32322154  0.85343567  0.79902593  1
  O  O636  1  0.82428131  0.18565463  0.04861617  1
  O  O637  1  0.82447118  0.18589092  0.29935482  1
  O  O638  1  0.82486234  0.18690584  0.55018288  1
  O  O639  1  0.82335807  0.18681413  0.80025574  1
  O  O640  1  0.82255706  0.51830109  0.05126950  1
  O  O641  1  0.82309669  0.52055188  0.30182324  1
  O  O642  1  0.82412758  0.52104869  0.54927725  1
  O  O643  1  0.82501024  0.51988854  0.79982092  1
  O  O644  1  0.82144276  0.85229172  0.05163522  1
  O  O645  1  0.82280735  0.85181052  0.30078390  1
  O  O646  1  0.82304134  0.85406402  0.55143429  1
  O  O647  1  0.82184499  0.85284338  0.80236415  1
  O  O648  1  0.17605033  0.14742563  0.20060960  1
  O  O649  1  0.17658895  0.14756768  0.45147547  1
  O  O650  1  0.17652523  0.14651247  0.69920040  1
  O  O651  1  0.17502130  0.14711278  0.94960243  1
  O  O652  1  0.17669126  0.48208601  0.19918672  1
  O  O653  1  0.17791251  0.48043326  0.44881045  1
  O  O654  1  0.17797775  0.48041572  0.69792295  1
  O  O655  1  0.17745292  0.48040414  0.94710368  1
  O  O656  1  0.17572113  0.81284285  0.20081225  1
  O  O657  1  0.17731872  0.81348184  0.44874821  1
  O  O658  1  0.17545431  0.81259252  0.69987415  1
  O  O659  1  0.17607573  0.81289461  0.95025235  1
  O  O660  1  0.67732574  0.14518911  0.19898490  1
  O  O661  1  0.67687720  0.14662793  0.45061334  1
  O  O662  1  0.67790551  0.14535286  0.70074853  1
  O  O663  1  0.67653753  0.14451189  0.94976485  1
  O  O664  1  0.67675395  0.48143970  0.19847402  1
  O  O665  1  0.67669235  0.48160435  0.44871889  1
  O  O666  1  0.67668911  0.48009632  0.70071568  1
  O  O667  1  0.67697861  0.47854220  0.94904284  1
  O  O668  1  0.67628874  0.81404258  0.19935968  1
  O  O669  1  0.67742068  0.81450674  0.44872887  1
  O  O670  1  0.67591288  0.81365547  0.70066290  1
  O  O671  1  0.67658231  0.81413652  0.94962814  1
