# generated using pymatgen
data_Na2MnFe(PO4)2
_symmetry_space_group_name_H-M   'P 1'
_cell_length_a   22.34419111
_cell_length_b   20.09109444
_cell_length_c   19.44844125
_cell_angle_alpha   89.95851180
_cell_angle_beta   89.98624626
_cell_angle_gamma   90.02991457
_symmetry_Int_Tables_number   1
_chemical_formula_structural   Na2MnFe(PO4)2
_chemical_formula_sum   'Na96 Mn48 Fe48 P96 O384'
_cell_volume   8730.77600248
_cell_formula_units_Z   48
loop_
 _symmetry_equiv_pos_site_id
 _symmetry_equiv_pos_as_xyz
  1  'x, y, z'
loop_
 _atom_site_type_symbol
 _atom_site_label
 _atom_site_symmetry_multiplicity
 _atom_site_fract_x
 _atom_site_fract_y
 _atom_site_fract_z
 _atom_site_occupancy
  Na  Na0  1  0.14000961  0.25007912  0.24388752  1
  Na  Na1  1  0.14003116  0.24861504  0.49350425  1
  Na  Na2  1  0.14053939  0.25005999  0.74464929  1
  Na  Na3  1  0.14046750  0.24960680  0.99420991  1
  Na  Na4  1  0.14108673  0.58437931  0.24297803  1
  Na  Na5  1  0.14057887  0.58293418  0.49357769  1
  Na  Na6  1  0.14039192  0.58510973  0.74414733  1
  Na  Na7  1  0.14087556  0.58412987  0.99339404  1
  Na  Na8  1  0.14042144  0.91518461  0.24334101  1
  Na  Na9  1  0.13992546  0.91583197  0.49424553  1
  Na  Na10  1  0.14028225  0.91786607  0.74388770  1
  Na  Na11  1  0.14051490  0.91624011  0.99382977  1
  Na  Na12  1  0.63995854  0.25042714  0.24442746  1
  Na  Na13  1  0.63983043  0.25065674  0.49278128  1
  Na  Na14  1  0.64035371  0.25113556  0.74386278  1
  Na  Na15  1  0.64043420  0.25040341  0.99429450  1
  Na  Na16  1  0.64103486  0.58475381  0.24436653  1
  Na  Na17  1  0.64012137  0.58361641  0.49327654  1
  Na  Na18  1  0.64045857  0.58422923  0.74278228  1
  Na  Na19  1  0.64073998  0.58456659  0.99357497  1
  Na  Na20  1  0.64029971  0.91592460  0.24256732  1
  Na  Na21  1  0.64034948  0.91562730  0.49293249  1
  Na  Na22  1  0.64012455  0.91476296  0.74378679  1
  Na  Na23  1  0.64025230  0.91643332  0.99412753  1
  Na  Na24  1  0.35948863  0.08210386  0.00679045  1
  Na  Na25  1  0.35976978  0.08236659  0.25693873  1
  Na  Na26  1  0.35953577  0.08260050  0.50551248  1
  Na  Na27  1  0.35889319  0.08448365  0.75651888  1
  Na  Na28  1  0.35962039  0.41773077  0.00615588  1
  Na  Na29  1  0.35963641  0.41668465  0.25611572  1
  Na  Na30  1  0.35987384  0.41516477  0.50669087  1
  Na  Na31  1  0.35974927  0.41774721  0.75617096  1
  Na  Na32  1  0.35953402  0.75078851  0.00633193  1
  Na  Na33  1  0.36012903  0.74989892  0.25518616  1
  Na  Na34  1  0.36027363  0.75005167  0.50612602  1
  Na  Na35  1  0.36022762  0.75186539  0.75722634  1
  Na  Na36  1  0.85919157  0.08260403  0.00653404  1
  Na  Na37  1  0.85960877  0.08427232  0.25739034  1
  Na  Na38  1  0.85942896  0.08213911  0.50609814  1
  Na  Na39  1  0.85929888  0.08119619  0.75594770  1
  Na  Na40  1  0.85922007  0.41691429  0.00643693  1
  Na  Na41  1  0.85949359  0.41711398  0.25681271  1
  Na  Na42  1  0.85971915  0.41688666  0.50651056  1
  Na  Na43  1  0.85928397  0.41593910  0.75630840  1
  Na  Na44  1  0.86003284  0.75035390  0.00593512  1
  Na  Na45  1  0.86016026  0.75087586  0.25589159  1
  Na  Na46  1  0.85953323  0.74913007  0.50630937  1
  Na  Na47  1  0.85985486  0.74783832  0.75576209  1
  Na  Na48  1  0.10954699  0.08413187  0.11889641  1
  Na  Na49  1  0.10921943  0.08215374  0.36945259  1
  Na  Na50  1  0.10916628  0.08160838  0.61878802  1
  Na  Na51  1  0.10971225  0.08248675  0.86968572  1
  Na  Na52  1  0.10966546  0.41760413  0.11859565  1
  Na  Na53  1  0.10964374  0.41596021  0.36879662  1
  Na  Na54  1  0.10918740  0.41527979  0.61876771  1
  Na  Na55  1  0.10924889  0.41614779  0.86950623  1
  Na  Na56  1  0.11054107  0.75171679  0.11731741  1
  Na  Na57  1  0.11030212  0.75080466  0.36875261  1
  Na  Na58  1  0.10995246  0.74974601  0.61885019  1
  Na  Na59  1  0.11044965  0.75030808  0.86824434  1
  Na  Na60  1  0.60966782  0.08358728  0.11957616  1
  Na  Na61  1  0.60893705  0.08359519  0.36697685  1
  Na  Na62  1  0.60917398  0.08399252  0.61898322  1
  Na  Na63  1  0.60954545  0.08417166  0.86856925  1
  Na  Na64  1  0.60954762  0.41650101  0.11952441  1
  Na  Na65  1  0.60957638  0.41596126  0.36972456  1
  Na  Na66  1  0.60949807  0.41749163  0.61831397  1
  Na  Na67  1  0.60970616  0.41908105  0.86860395  1
  Na  Na68  1  0.61072154  0.75038500  0.11840043  1
  Na  Na69  1  0.61053581  0.74976296  0.36810973  1
  Na  Na70  1  0.61021784  0.74896530  0.61790746  1
  Na  Na71  1  0.60992173  0.75107302  0.86845797  1
  Na  Na72  1  0.39070383  0.24941827  0.13191056  1
  Na  Na73  1  0.39006908  0.25066824  0.38130838  1
  Na  Na74  1  0.38993852  0.25061293  0.63120298  1
  Na  Na75  1  0.39036133  0.25232960  0.88107491  1
  Na  Na76  1  0.39024555  0.58322235  0.13098611  1
  Na  Na77  1  0.39092319  0.58264832  0.38094037  1
  Na  Na78  1  0.39095583  0.58387124  0.63133993  1
  Na  Na79  1  0.39046988  0.58593301  0.88177286  1
  Na  Na80  1  0.39021079  0.91666526  0.13198240  1
  Na  Na81  1  0.39033026  0.91518493  0.38019831  1
  Na  Na82  1  0.39030848  0.91567066  0.63195249  1
  Na  Na83  1  0.38960415  0.91683795  0.88180104  1
  Na  Na84  1  0.88990615  0.25052644  0.13145357  1
  Na  Na85  1  0.88992537  0.24904331  0.38221415  1
  Na  Na86  1  0.89025952  0.24740574  0.63045361  1
  Na  Na87  1  0.88995326  0.24854825  0.88203554  1
  Na  Na88  1  0.89070794  0.58587720  0.13075673  1
  Na  Na89  1  0.89067540  0.58452629  0.38176670  1
  Na  Na90  1  0.89011790  0.58201214  0.63098345  1
  Na  Na91  1  0.89012837  0.58257404  0.88097077  1
  Na  Na92  1  0.89029276  0.91779520  0.13146709  1
  Na  Na93  1  0.89033533  0.91628778  0.38142423  1
  Na  Na94  1  0.89006905  0.91424629  0.63042636  1
  Na  Na95  1  0.89002180  0.91531802  0.88091820  1
  Mn  Mn96  1  0.75059468  0.50079922  0.37520116  1
  Mn  Mn97  1  0.74974677  -0.00086394  0.87529163  1
  Mn  Mn98  1  0.49946851  -0.00017760  0.74974396  1
  Mn  Mn99  1  0.25011174  0.16664438  0.87582070  1
  Mn  Mn100  1  0.00017032  0.83246096  0.75011372  1
  Mn  Mn101  1  0.49938062  0.16844089  0.74899892  1
  Mn  Mn102  1  0.50079295  0.83238133  0.50016710  1
  Mn  Mn103  1  -0.00000796  0.16402800  0.75108306  1
  Mn  Mn104  1  0.49907260  0.16749459  0.49915533  1
  Mn  Mn105  1  0.74881597  -0.00154997  0.62519930  1
  Mn  Mn106  1  0.49965517  -0.00041527  -0.00027769  1
  Mn  Mn107  1  -0.00007864  0.50046198  -0.00020693  1
  Mn  Mn108  1  0.74962437  -0.00047193  0.37471389  1
  Mn  Mn109  1  0.24923142  0.33270544  0.62568695  1
  Mn  Mn110  1  0.50122112  0.66664077  0.24988336  1
  Mn  Mn111  1  -0.00055650  0.16651625  -0.00001393  1
  Mn  Mn112  1  0.75068525  0.33357303  0.62524253  1
  Mn  Mn113  1  0.25079094  0.16562564  0.12480116  1
  Mn  Mn114  1  0.49993743  0.16726927  0.00021136  1
  Mn  Mn115  1  -0.00021744  0.33233160  0.49983788  1
  Mn  Mn116  1  -0.00083167  0.33319935  0.25048422  1
  Mn  Mn117  1  0.24978710  -0.00175468  0.37602037  1
  Mn  Mn118  1  0.74985174  0.66644259  0.87446757  1
  Mn  Mn119  1  0.25080319  0.66847536  0.62447114  1
  Mn  Mn120  1  -0.00006557  0.00056297  0.25081653  1
  Mn  Mn121  1  0.24956457  0.50046870  0.62503556  1
  Mn  Mn122  1  -0.00044202  0.33162451  0.74920297  1
  Mn  Mn123  1  0.25073400  0.66742088  0.37407041  1
  Mn  Mn124  1  -0.00054264  0.49946491  0.75039041  1
  Mn  Mn125  1  0.25055991  0.33381217  0.12473637  1
  Mn  Mn126  1  0.00019421  0.83391626  -0.00084084  1
  Mn  Mn127  1  0.24931864  0.16627915  0.37489824  1
  Mn  Mn128  1  0.00078409  0.66622965  0.49956139  1
  Mn  Mn129  1  0.50000545  0.50131061  0.74925884  1
  Mn  Mn130  1  0.50053459  0.33488997  0.00059228  1
  Mn  Mn131  1  0.74953908  0.33319654  0.12543287  1
  Mn  Mn132  1  0.74960379  0.33329819  0.87533330  1
  Mn  Mn133  1  0.25005006  0.50082022  0.87501843  1
  Mn  Mn134  1  0.74951271  0.16623009  0.62485874  1
  Mn  Mn135  1  0.50047225  0.66770046  0.00037889  1
  Mn  Mn136  1  0.74979062  0.00030012  0.12501137  1
  Mn  Mn137  1  0.50087025  0.49906029  0.25117651  1
  Mn  Mn138  1  0.00022811  0.50108967  0.24916011  1
  Mn  Mn139  1  0.50010661  -0.00032576  0.49943727  1
  Mn  Mn140  1  0.25074313  0.49942699  0.37429773  1
  Mn  Mn141  1  0.00128239  0.66870414  0.25112698  1
  Mn  Mn142  1  0.25037281  -0.00013831  0.62525845  1
  Mn  Mn143  1  0.74989821  0.50163797  0.12617686  1
  Fe  Fe144  1  0.50015811  -0.00040498  0.24957487  1
  Fe  Fe145  1  0.75019779  0.16694009  0.12578861  1
  Fe  Fe146  1  0.24967449  0.16669381  0.62545288  1
  Fe  Fe147  1  0.49966491  0.16686601  0.25001630  1
  Fe  Fe148  1  0.00028784  0.49958727  0.50015488  1
  Fe  Fe149  1  0.24992484  0.83394372  0.87567002  1
  Fe  Fe150  1  0.50017319  0.33339993  0.49975809  1
  Fe  Fe151  1  0.24994015  0.33384089  0.87521081  1
  Fe  Fe152  1  0.50005739  0.50100553  -0.00002527  1
  Fe  Fe153  1  0.75002177  0.83255600  0.37413726  1
  Fe  Fe154  1  0.74949196  0.49994526  0.62456502  1
  Fe  Fe155  1  0.50009051  0.83303514  0.24985280  1
  Fe  Fe156  1  -0.00006356  0.83286364  0.50021168  1
  Fe  Fe157  1  0.49914229  0.33352936  0.25017039  1
  Fe  Fe158  1  0.00019781  0.83448380  0.24946444  1
  Fe  Fe159  1  0.24954549  -0.00010924  0.87517936  1
  Fe  Fe160  1  0.49986582  0.66671693  0.49998499  1
  Fe  Fe161  1  0.75004419  0.83249995  0.87463509  1
  Fe  Fe162  1  -0.00038700  0.00020848  0.00050628  1
  Fe  Fe163  1  0.00032043  0.66740788  -0.00013063  1
  Fe  Fe164  1  -0.00019128  0.33322036  0.00028463  1
  Fe  Fe165  1  0.75055251  0.66774095  0.12433453  1
  Fe  Fe166  1  0.24967298  0.50027980  0.12457073  1
  Fe  Fe167  1  0.49983594  0.33490535  0.74998009  1
  Fe  Fe168  1  0.25026899  0.66699972  0.12438908  1
  Fe  Fe169  1  -0.00022481  -0.00117198  0.49965803  1
  Fe  Fe170  1  0.50057482  0.83323065  0.75015689  1
  Fe  Fe171  1  0.25029682  0.66742672  0.87523253  1
  Fe  Fe172  1  0.75006281  0.50034584  0.87498839  1
  Fe  Fe173  1  0.50012045  0.83390277  0.00009471  1
  Fe  Fe174  1  0.25025919  0.83290245  0.12412967  1
  Fe  Fe175  1  0.49972871  0.49983331  0.50036964  1
  Fe  Fe176  1  0.25008754  0.83403704  0.62586571  1
  Fe  Fe177  1  0.24990640  0.33301939  0.37508052  1
  Fe  Fe178  1  0.50043861  0.66740856  0.75031708  1
  Fe  Fe179  1  0.75016163  0.66630907  0.62475548  1
  Fe  Fe180  1  0.25006526  0.83272939  0.37402786  1
  Fe  Fe181  1  0.75066499  0.66722142  0.37510330  1
  Fe  Fe182  1  -0.00015296  0.16669827  0.25012406  1
  Fe  Fe183  1  0.75009176  0.83202612  0.62407902  1
  Fe  Fe184  1  0.74987991  0.33343774  0.37543317  1
  Fe  Fe185  1  0.24972633  -0.00117987  0.12538712  1
  Fe  Fe186  1  -0.00061575  -0.00136416  0.74930628  1
  Fe  Fe187  1  -0.00025014  0.16509242  0.50052360  1
  Fe  Fe188  1  0.74936473  0.16679368  0.37539885  1
  Fe  Fe189  1  0.75072211  0.83314470  0.12482049  1
  Fe  Fe190  1  0.74958921  0.16614407  0.87519368  1
  Fe  Fe191  1  0.00025854  0.66572004  0.74930834  1
  P  P192  1  0.04212798  0.25113293  0.10285816  1
  P  P193  1  0.04176036  0.24794846  0.35311435  1
  P  P194  1  0.04210428  0.24720615  0.60240686  1
  P  P195  1  0.04235149  0.24928059  0.85372649  1
  P  P196  1  0.04267895  0.58560359  0.10213956  1
  P  P197  1  0.04349583  0.58321328  0.35352916  1
  P  P198  1  0.04258123  0.58173924  0.60270291  1
  P  P199  1  0.04206359  0.58457884  0.85280012  1
  P  P200  1  0.04208190  0.91830182  0.10268432  1
  P  P201  1  0.04213485  0.91541950  0.35319089  1
  P  P202  1  0.04106954  0.91608197  0.60189680  1
  P  P203  1  0.04191819  0.91783529  0.85264165  1
  P  P204  1  0.54245926  0.25025647  0.10435045  1
  P  P205  1  0.54081180  0.25065680  0.35165359  1
  P  P206  1  0.54206073  0.25184338  0.60232371  1
  P  P207  1  0.54216714  0.25264846  0.85220397  1
  P  P208  1  0.54281439  0.58239836  0.10252457  1
  P  P209  1  0.54309817  0.58310531  0.35441759  1
  P  P210  1  0.54122669  0.58387722  0.60168928  1
  P  P211  1  0.54239462  0.58537071  0.85254055  1
  P  P212  1  0.54202802  0.91562225  0.10328385  1
  P  P213  1  0.54171433  0.91603084  0.35110086  1
  P  P214  1  0.54293220  0.91605540  0.60338032  1
  P  P215  1  0.54194441  0.91573279  0.85269802  1
  P  P216  1  0.45855607  0.08326291  0.14858873  1
  P  P217  1  0.45739921  0.08309981  0.39538716  1
  P  P218  1  0.45641136  0.08367467  0.64653162  1
  P  P219  1  0.45689374  0.08405027  0.89683189  1
  P  P220  1  0.45757238  0.41621654  0.14760879  1
  P  P221  1  0.45853160  0.41620491  0.39844323  1
  P  P222  1  0.45788990  0.41613655  0.64663361  1
  P  P223  1  0.45781127  0.41930071  0.89735441  1
  P  P224  1  0.45859310  0.75123146  0.14716949  1
  P  P225  1  0.45836069  0.74887092  0.39707254  1
  P  P226  1  0.45889683  0.74956782  0.64833823  1
  P  P227  1  0.45827184  0.75223065  0.89724148  1
  P  P228  1  0.95746031  0.08467817  0.14776978  1
  P  P229  1  0.95827181  0.08262662  0.39838878  1
  P  P230  1  0.95741627  0.08058737  0.64663356  1
  P  P231  1  0.95714406  0.08094918  0.89745262  1
  P  P232  1  0.95686258  0.41695079  0.14640025  1
  P  P233  1  0.95764612  0.41775217  0.39766374  1
  P  P234  1  0.95694028  0.41604560  0.64630423  1
  P  P235  1  0.95734374  0.41507377  0.89770299  1
  P  P236  1  0.95863738  0.75198077  0.14711704  1
  P  P237  1  0.95818457  0.75174629  0.39735746  1
  P  P238  1  0.95817049  0.74814262  0.64697445  1
  P  P239  1  0.95815394  0.74837021  0.89677209  1
  P  P240  1  0.20773262  0.08138680  0.22750510  1
  P  P241  1  0.20715774  0.08279354  0.47891752  1
  P  P242  1  0.20765060  0.08441016  0.72799723  1
  P  P243  1  0.20794912  0.08112283  0.97826184  1
  P  P244  1  0.20771330  0.41782553  0.22744602  1
  P  P245  1  0.20773268  0.41515497  0.47734347  1
  P  P246  1  0.20685839  0.41713645  0.72887302  1
  P  P247  1  0.20791128  0.41627144  0.97782334  1
  P  P248  1  0.20885521  0.75010157  0.22597741  1
  P  P249  1  0.20814328  0.75164847  0.47744202  1
  P  P250  1  0.20810984  0.75215379  0.72845698  1
  P  P251  1  0.20893456  0.75025150  0.97720997  1
  P  P252  1  0.70800693  0.08489703  0.22819025  1
  P  P253  1  0.70688036  0.08372755  0.47711942  1
  P  P254  1  0.70674316  0.08275053  0.72872379  1
  P  P255  1  0.70757237  0.08437797  0.97802637  1
  P  P256  1  0.70753777  0.41692629  0.22917588  1
  P  P257  1  0.70830877  0.41637434  0.47778934  1
  P  P258  1  0.70778364  0.41819338  0.72766218  1
  P  P259  1  0.70763772  0.41846439  0.97765759  1
  P  P260  1  0.70909488  0.75006223  0.22690158  1
  P  P261  1  0.70878096  0.74984220  0.47683569  1
  P  P262  1  0.70885202  0.74967361  0.72630702  1
  P  P263  1  0.70813808  0.75118208  0.97771657  1
  P  P264  1  0.29322170  0.25008439  0.02151426  1
  P  P265  1  0.29202520  0.25090335  0.27258868  1
  P  P266  1  0.29184801  0.24857920  0.52240830  1
  P  P267  1  0.29205316  0.25130521  0.77278713  1
  P  P268  1  0.29156098  0.58410776  0.02285266  1
  P  P269  1  0.29317038  0.58354087  0.27042539  1
  P  P270  1  0.29319857  0.58355857  0.52162144  1
  P  P271  1  0.29251350  0.58583852  0.77275095  1
  P  P272  1  0.29126509  0.91651037  0.02277952  1
  P  P273  1  0.29203459  0.91502273  0.27163088  1
  P  P274  1  0.29258078  0.91474404  0.52258472  1
  P  P275  1  0.29131062  0.91697522  0.77364554  1
  P  P276  1  0.79181471  0.24854434  0.02255669  1
  P  P277  1  0.79119301  0.24993881  0.27366448  1
  P  P278  1  0.79215255  0.24981931  0.52099316  1
  P  P279  1  0.79222236  0.24848823  0.77299605  1
  P  P280  1  0.79234207  0.58483119  0.02222769  1
  P  P281  1  0.79278867  0.58582356  0.27239888  1
  P  P282  1  0.79126886  0.58352545  0.52300412  1
  P  P283  1  0.79196886  0.58171275  0.77158198  1
  P  P284  1  0.79222985  0.91543577  0.02241497  1
  P  P285  1  0.79202578  0.91513593  0.27195704  1
  P  P286  1  0.79158217  0.91452517  0.52172902  1
  P  P287  1  0.79182839  0.91411820  0.77197419  1
  O  O288  1  0.03685988  0.25056198  0.18282810  1
  O  O289  1  0.03647938  0.24753339  0.43307280  1
  O  O290  1  0.03706427  0.24720432  0.68237188  1
  O  O291  1  0.03706957  0.25017509  0.93368371  1
  O  O292  1  0.03771232  0.58554938  0.18211960  1
  O  O293  1  0.03835270  0.58241872  0.43350198  1
  O  O294  1  0.03699364  0.58238938  0.68263371  1
  O  O295  1  0.03671882  0.58490118  0.93274939  1
  O  O296  1  0.03699669  0.91748286  0.18262823  1
  O  O297  1  0.03666178  0.91518763  0.43306320  1
  O  O298  1  0.03590845  0.91621240  0.68185792  1
  O  O299  1  0.03661952  0.91808855  0.93257265  1
  O  O300  1  0.53661873  0.24997120  0.18421700  1
  O  O301  1  0.53585718  0.25076838  0.43164903  1
  O  O302  1  0.53688967  0.25224499  0.68227253  1
  O  O303  1  0.53719688  0.25227109  0.93221132  1
  O  O304  1  0.53803125  0.58241100  0.18251172  1
  O  O305  1  0.53745744  0.58338546  0.43426470  1
  O  O306  1  0.53648812  0.58437643  0.68168911  1
  O  O307  1  0.53731526  0.58475787  0.93246965  1
  O  O308  1  0.53660903  0.91571029  0.18317292  1
  O  O309  1  0.53727703  0.91628404  0.43114074  1
  O  O310  1  0.53775103  0.91554420  0.68333508  1
  O  O311  1  0.53683354  0.91561924  0.93270015  1
  O  O312  1  0.46313190  0.08311430  0.06855714  1
  O  O313  1  0.46302064  0.08321968  0.31547940  1
  O  O314  1  0.46153364  0.08358196  0.56652245  1
  O  O315  1  0.46179533  0.08410397  0.81686678  1
  O  O316  1  0.46296471  0.41730919  0.06771257  1
  O  O317  1  0.46332684  0.41588587  0.31847017  1
  O  O318  1  0.46321972  0.41596204  0.56676554  1
  O  O319  1  0.46284866  0.41891198  0.81738913  1
  O  O320  1  0.46362163  0.75150917  0.06722528  1
  O  O321  1  0.46373419  0.74970158  0.31716535  1
  O  O322  1  0.46376241  0.74893193  0.56834275  1
  O  O323  1  0.46373332  0.75208972  0.81736293  1
  O  O324  1  0.96240780  0.08406782  0.06783181  1
  O  O325  1  0.96330073  0.08360780  0.31841367  1
  O  O326  1  0.96298393  0.08119575  0.56675187  1
  O  O327  1  0.96237661  0.08037197  0.81748834  1
  O  O328  1  0.96209635  0.41630473  0.06642596  1
  O  O329  1  0.96267349  0.41765499  0.31766507  1
  O  O330  1  0.96236612  0.41672689  0.56635139  1
  O  O331  1  0.96244408  0.41526637  0.81771283  1
  O  O332  1  0.96375256  0.75124852  0.06714125  1
  O  O333  1  0.96338160  0.75229215  0.31740266  1
  O  O334  1  0.96356157  0.74897177  0.56705618  1
  O  O335  1  0.96333111  0.74797777  0.81682360  1
  O  O336  1  0.21334820  0.08080783  0.05818593  1
  O  O337  1  0.21268822  0.08166039  0.30749547  1
  O  O338  1  0.21260406  0.08349514  0.55881988  1
  O  O339  1  0.21297456  0.08378231  0.80795298  1
  O  O340  1  0.21346483  0.41721872  0.05774021  1
  O  O341  1  0.21309334  0.41695591  0.30738241  1
  O  O342  1  0.21252087  0.41541452  0.55736208  1
  O  O343  1  0.21230510  0.41682330  0.80880179  1
  O  O344  1  0.21406255  0.74949728  0.05708607  1
  O  O345  1  0.21364165  0.75059921  0.30596208  1
  O  O346  1  0.21331812  0.75188602  0.55740660  1
  O  O347  1  0.21340739  0.75184547  0.80833906  1
  O  O348  1  0.71306021  0.08463347  0.05800860  1
  O  O349  1  0.71330029  0.08474018  0.30812350  1
  O  O350  1  0.71170979  0.08314126  0.55713252  1
  O  O351  1  0.71219585  0.08304159  0.80868573  1
  O  O352  1  0.71276973  0.41819710  0.05762005  1
  O  O353  1  0.71308505  0.41636553  0.30907655  1
  O  O354  1  0.71344938  0.41678326  0.55775040  1
  O  O355  1  0.71295701  0.41828439  0.80762978  1
  O  O356  1  0.71367129  0.75099985  0.05755993  1
  O  O357  1  0.71425141  0.74991574  0.30682083  1
  O  O358  1  0.71392968  0.74985161  0.55673057  1
  O  O359  1  0.71338108  0.74958843  0.80627692  1
  O  O360  1  0.28727993  0.25061227  0.19259619  1
  O  O361  1  0.28658124  0.24947942  0.44244670  1
  O  O362  1  0.28643565  0.25035703  0.69285699  1
  O  O363  1  0.28787383  0.25063266  0.94158921  1
  O  O364  1  0.28770227  0.58344923  0.19050363  1
  O  O365  1  0.28823873  0.58348671  0.44162695  1
  O  O366  1  0.28749282  0.58564321  0.69280097  1
  O  O367  1  0.28638999  0.58465284  0.94287148  1
  O  O368  1  0.28671745  0.91584300  0.19177903  1
  O  O369  1  0.28742186  0.91434970  0.44263828  1
  O  O370  1  0.28633927  0.91680943  0.69366569  1
  O  O371  1  0.28609932  0.91656290  0.94288651  1
  O  O372  1  0.78630912  0.24947349  0.19363054  1
  O  O373  1  0.78661748  0.24993344  0.44106952  1
  O  O374  1  0.78718161  0.24907403  0.69300067  1
  O  O375  1  0.78635623  0.24849503  0.94263784  1
  O  O376  1  0.78736746  0.58609199  0.19247700  1
  O  O377  1  0.78670869  0.58437142  0.44301970  1
  O  O378  1  0.78658159  0.58176310  0.69172440  1
  O  O379  1  0.78697091  0.58405043  0.94228346  1
  O  O380  1  0.78694419  0.91539330  0.19199623  1
  O  O381  1  0.78632660  0.91463744  0.44176847  1
  O  O382  1  0.78626449  0.91412148  0.69204348  1
  O  O383  1  0.78698039  0.91549224  0.94247590  1
  O  O384  1  0.22892285  0.24964688  0.05690463  1
  O  O385  1  0.22760947  0.25122475  0.30783581  1
  O  O386  1  0.22755684  0.24782716  0.55817457  1
  O  O387  1  0.22794666  0.25163480  0.80898233  1
  O  O388  1  0.22746789  0.58395402  0.05906200  1
  O  O389  1  0.22900008  0.58352150  0.30628957  1
  O  O390  1  0.22874689  0.58424090  0.55666169  1
  O  O391  1  0.22817527  0.58547270  0.80820229  1
  O  O392  1  0.22720910  0.91681660  0.05904884  1
  O  O393  1  0.22785909  0.91449987  0.30781413  1
  O  O394  1  0.22825623  0.91503923  0.55825072  1
  O  O395  1  0.22716402  0.91653741  0.80972689  1
  O  O396  1  0.72764651  0.24823545  0.05860103  1
  O  O397  1  0.72700065  0.25010405  0.30958738  1
  O  O398  1  0.72800004  0.25033393  0.55683518  1
  O  O399  1  0.72785763  0.24837245  0.80845759  1
  O  O400  1  0.72813823  0.58567026  0.05815642  1
  O  O401  1  0.72860822  0.58549848  0.30835497  1
  O  O402  1  0.72707768  0.58314646  0.55880742  1
  O  O403  1  0.72781789  0.58171272  0.80777351  1
  O  O404  1  0.72805535  0.91528901  0.05834426  1
  O  O405  1  0.72773087  0.91517167  0.30758242  1
  O  O406  1  0.72736007  0.91420013  0.55757521  1
  O  O407  1  0.72771491  0.91422644  0.80815442  1
  O  O408  1  0.27213921  0.08089470  0.19214916  1
  O  O409  1  0.27134595  0.08267969  0.44321457  1
  O  O410  1  0.27187105  0.08487908  0.69208816  1
  O  O411  1  0.27210187  0.08141804  0.94234270  1
  O  O412  1  0.27195334  0.41867553  0.19164561  1
  O  O413  1  0.27217514  0.41471925  0.44207873  1
  O  O414  1  0.27115591  0.41703298  0.69339661  1
  O  O415  1  0.27205849  0.41587403  0.94176219  1
  O  O416  1  0.27303248  0.74949799  0.19013022  1
  O  O417  1  0.27243350  0.75183772  0.44166299  1
  O  O418  1  0.27236794  0.75268251  0.69244741  1
  O  O419  1  0.27295647  0.75108821  0.94090167  1
  O  O420  1  0.77219036  0.08477420  0.19223187  1
  O  O421  1  0.77131982  0.08374224  0.44194006  1
  O  O422  1  0.77096543  0.08223353  0.69306162  1
  O  O423  1  0.77172991  0.08425755  0.94196963  1
  O  O424  1  0.77168989  0.41716212  0.19342313  1
  O  O425  1  0.77249034  0.41603892  0.44197773  1
  O  O426  1  0.77207319  0.41855204  0.69196829  1
  O  O427  1  0.77189484  0.41810251  0.94195377  1
  O  O428  1  0.77315659  0.74991268  0.19044773  1
  O  O429  1  0.77288207  0.75002240  0.44046145  1
  O  O430  1  0.77306033  0.74982216  0.69054249  1
  O  O431  1  0.77223140  0.75097947  0.94143965  1
  O  O432  1  0.02178975  0.08488548  0.18334781  1
  O  O433  1  0.02236514  0.08177919  0.43443042  1
  O  O434  1  0.02156853  0.08016025  0.68289143  1
  O  O435  1  0.02143056  0.08148837  0.93314104  1
  O  O436  1  0.02123229  0.41667332  0.18163999  1
  O  O437  1  0.02195311  0.41770582  0.43320353  1
  O  O438  1  0.02121872  0.41595219  0.68174911  1
  O  O439  1  0.02166645  0.41509274  0.93323298  1
  O  O440  1  0.02292540  0.75276372  0.18284980  1
  O  O441  1  0.02246895  0.75132606  0.43294297  1
  O  O442  1  0.02231889  0.74791022  0.68300520  1
  O  O443  1  0.02240689  0.74887901  0.93254472  1
  O  O444  1  0.52274015  0.08396191  0.18415931  1
  O  O445  1  0.52153043  0.08360168  0.43135960  1
  O  O446  1  0.52083506  0.08387547  0.68153877  1
  O  O447  1  0.52136666  0.08366012  0.93177422  1
  O  O448  1  0.52183971  0.41475411  0.18339878  1
  O  O449  1  0.52266822  0.41604918  0.43437598  1
  O  O450  1  0.52203490  0.41621777  0.68277550  1
  O  O451  1  0.52216448  0.41965166  0.93294528  1
  O  O452  1  0.52288091  0.75153151  0.18279816  1
  O  O453  1  0.52260332  0.74796199  0.43287998  1
  O  O454  1  0.52315864  0.74951293  0.68414568  1
  O  O455  1  0.52242349  0.75223474  0.93334167  1
  O  O456  1  0.47834260  0.25075330  0.06835985  1
  O  O457  1  0.47667255  0.25073155  0.31564230  1
  O  O458  1  0.47770595  0.25201757  0.56675461  1
  O  O459  1  0.47779469  0.25304494  0.81674273  1
  O  O460  1  0.47843025  0.58263569  0.06716243  1
  O  O461  1  0.47902748  0.58327296  0.31837840  1
  O  O462  1  0.47711134  0.58430288  0.56574018  1
  O  O463  1  0.47810010  0.58584009  0.81690175  1
  O  O464  1  0.47786140  0.91518073  0.06711927  1
  O  O465  1  0.47742937  0.91563870  0.31570423  1
  O  O466  1  0.47859747  0.91598762  0.56807887  1
  O  O467  1  0.47768106  0.91544829  0.81710635  1
  O  O468  1  0.97784336  0.25153685  0.06712326  1
  O  O469  1  0.97747920  0.24793765  0.31738308  1
  O  O470  1  0.97777734  0.24774749  0.56699883  1
  O  O471  1  0.97804796  0.24841611  0.81834401  1
  O  O472  1  0.97829709  0.58546040  0.06681709  1
  O  O473  1  0.97909956  0.58422585  0.31843304  1
  O  O474  1  0.97841296  0.58147765  0.56664271  1
  O  O475  1  0.97784062  0.58464820  0.81689146  1
  O  O476  1  0.97780648  0.91809283  0.06697178  1
  O  O477  1  0.97800299  0.91537885  0.31695767  1
  O  O478  1  0.97705065  0.91642602  0.56561380  1
  O  O479  1  0.97770977  0.91735041  0.81677296  1
  O  O480  1  0.07302199  0.31471339  0.07451318  1
  O  O481  1  0.07257994  0.31199514  0.32566625  1
  O  O482  1  0.07348943  0.31078280  0.57474180  1
  O  O483  1  0.07334945  0.31245489  0.82468293  1
  O  O484  1  0.07328512  0.64921596  0.07359041  1
  O  O485  1  0.07481285  0.64698771  0.32606651  1
  O  O486  1  0.07396642  0.64521930  0.57471315  1
  O  O487  1  0.07317909  0.64771618  0.82377996  1
  O  O488  1  0.07229114  0.98235548  0.07457177  1
  O  O489  1  0.07317954  0.97927629  0.32549729  1
  O  O490  1  0.07249315  0.97930168  0.57351015  1
  O  O491  1  0.07276500  0.98103943  0.82358547  1
  O  O492  1  0.57409354  0.31352271  0.07618438  1
  O  O493  1  0.57194398  0.31414185  0.32347618  1
  O  O494  1  0.57328792  0.31493094  0.57332085  1
  O  O495  1  0.57294889  0.31630049  0.82396049  1
  O  O496  1  0.57387996  0.64612730  0.07483316  1
  O  O497  1  0.57464846  0.64617869  0.32556799  1
  O  O498  1  0.57276780  0.64696480  0.57313511  1
  O  O499  1  0.57324798  0.64903178  0.82419551  1
  O  O500  1  0.57290889  0.97949308  0.07528874  1
  O  O501  1  0.57194290  0.98000885  0.32247843  1
  O  O502  1  0.57374723  0.97980446  0.57529776  1
  O  O503  1  0.57282150  0.97966562  0.82509542  1
  O  O504  1  0.42852884  0.01901874  0.17683480  1
  O  O505  1  0.42650212  0.01940930  0.42366342  1
  O  O506  1  0.42550362  0.02009506  0.67475221  1
  O  O507  1  0.42579264  0.02055825  0.92509519  1
  O  O508  1  0.42607723  0.35283888  0.17559870  1
  O  O509  1  0.42718363  0.35292107  0.42678486  1
  O  O510  1  0.42695971  0.35291694  0.67594530  1
  O  O511  1  0.42672363  0.35582671  0.92557576  1
  O  O512  1  0.42796588  0.68714134  0.17473236  1
  O  O513  1  0.42710228  0.68547088  0.42525648  1
  O  O514  1  0.42774429  0.68631852  0.67719278  1
  O  O515  1  0.42710804  0.68859945  0.92535761  1
  O  O516  1  0.92627398  0.02125735  0.17614096  1
  O  O517  1  0.92708531  0.01875467  0.42572561  1
  O  O518  1  0.92631411  0.01705799  0.67491862  1
  O  O519  1  0.92641813  0.01765376  0.92664610  1
  O  O520  1  0.92523019  0.35405660  0.17536915  1
  O  O521  1  0.92663712  0.35389356  0.42512325  1
  O  O522  1  0.92599328  0.35211705  0.67382846  1
  O  O523  1  0.92661113  0.35154798  0.92618040  1
  O  O524  1  0.92780913  0.68843095  0.17562907  1
  O  O525  1  0.92709462  0.68784555  0.42479008  1
  O  O526  1  0.92745935  0.68431389  0.67492515  1
  O  O527  1  0.92731399  0.68516371  0.92596085  1
  O  O528  1  0.17665408  0.01798474  0.19931489  1
  O  O529  1  0.17633251  0.01885615  0.45142457  1
  O  O530  1  0.17664120  0.02082636  0.69988337  1
  O  O531  1  0.17702163  0.01793672  0.94917748  1
  O  O532  1  0.17668160  0.35425070  0.19934918  1
  O  O533  1  0.17695675  0.35154158  0.44902283  1
  O  O534  1  0.17530853  0.35398751  0.70058531  1
  O  O535  1  0.17714842  0.35247248  0.94998574  1
  O  O536  1  0.17764607  0.68655471  0.19802873  1
  O  O537  1  0.17743591  0.68765830  0.44974195  1
  O  O538  1  0.17725065  0.68854136  0.69999401  1
  O  O539  1  0.17859693  0.68648958  0.94812834  1
  O  O540  1  0.67697880  0.02106305  0.20055420  1
  O  O541  1  0.67570599  0.02025624  0.44898122  1
  O  O542  1  0.67549760  0.01917720  0.70088404  1
  O  O543  1  0.67657387  0.02038066  0.95078610  1
  O  O544  1  0.67624050  0.35377523  0.20057691  1
  O  O545  1  0.67750645  0.35276298  0.44938349  1
  O  O546  1  0.67717003  0.35412746  0.70006820  1
  O  O547  1  0.67628352  0.35487930  0.95004046  1
  O  O548  1  0.67797767  0.68661216  0.19837971  1
  O  O549  1  0.67806470  0.68607761  0.44851789  1
  O  O550  1  0.67861350  0.68562693  0.69777913  1
  O  O551  1  0.67665715  0.68780706  0.94956387  1
  O  O552  1  0.32450846  0.31326044  0.04997645  1
  O  O553  1  0.32267834  0.31450278  0.30105545  1
  O  O554  1  0.32277192  0.31210145  0.55081152  1
  O  O555  1  0.32270251  0.31521542  0.80057522  1
  O  O556  1  0.32276797  0.64754006  0.05110106  1
  O  O557  1  0.32433929  0.64701840  0.29870876  1
  O  O558  1  0.32459937  0.64687691  0.54961723  1
  O  O559  1  0.32292952  0.64952978  0.80134715  1
  O  O560  1  0.32270792  0.97964146  0.05151252  1
  O  O561  1  0.32304957  0.97838967  0.30041846  1
  O  O562  1  0.32362505  0.97860519  0.55010445  1
  O  O563  1  0.32160097  0.98114562  0.80158960  1
  O  O564  1  0.82241563  0.31266410  0.05016281  1
  O  O565  1  0.82189601  0.31391137  0.30147618  1
  O  O566  1  0.82393592  0.31284464  0.54939158  1
  O  O567  1  0.82319437  0.31216774  0.80094994  1
  O  O568  1  0.82338530  0.64847904  0.05009816  1
  O  O569  1  0.82373158  0.64904907  0.30127329  1
  O  O570  1  0.82195794  0.64710119  0.55187269  1
  O  O571  1  0.82312206  0.64537754  0.79952014  1
  O  O572  1  0.82303369  0.97930127  0.05034774  1
  O  O573  1  0.82305444  0.97887661  0.29983915  1
  O  O574  1  0.82227518  0.97843177  0.54953235  1
  O  O575  1  0.82296451  0.97777824  0.79976763  1
  O  O576  1  0.42708920  0.14655162  0.17661702  1
  O  O577  1  0.42575233  0.14626651  0.42364249  1
  O  O578  1  0.42534219  0.14714529  0.67452548  1
  O  O579  1  0.42617914  0.14761955  0.92509811  1
  O  O580  1  0.42722148  0.47993913  0.17618652  1
  O  O581  1  0.42840034  0.48037799  0.42664265  1
  O  O582  1  0.42672915  0.47985213  0.67440410  1
  O  O583  1  0.42725824  0.48302759  0.92584561  1
  O  O584  1  0.42739383  0.81427602  0.17609259  1
  O  O585  1  0.42767304  0.81251209  0.42550941  1
  O  O586  1  0.42851632  0.81365207  0.67622213  1
  O  O587  1  0.42729027  0.81547795  0.92616459  1
  O  O588  1  0.92695196  0.14836699  0.17623633  1
  O  O589  1  0.92768281  0.14612787  0.42730946  1
  O  O590  1  0.92640861  0.14406599  0.67514986  1
  O  O591  1  0.92600083  0.14473883  0.92477377  1
  O  O592  1  0.92632213  0.48100250  0.17401717  1
  O  O593  1  0.92698536  0.48131873  0.42603760  1
  O  O594  1  0.92560588  0.47905624  0.67513263  1
  O  O595  1  0.92640668  0.47890347  0.92522802  1
  O  O596  1  0.92767274  0.81556439  0.17516512  1
  O  O597  1  0.92731582  0.81485293  0.42654983  1
  O  O598  1  0.92691537  0.81147208  0.67520757  1
  O  O599  1  0.92707782  0.81224798  0.92410311  1
  O  O600  1  0.07317696  0.18757720  0.07473410  1
  O  O601  1  0.07277785  0.18479574  0.32411759  1
  O  O602  1  0.07239353  0.18346908  0.57390739  1
  O  O603  1  0.07358197  0.18550224  0.82644947  1
  O  O604  1  0.07366668  0.52191789  0.07440126  1
  O  O605  1  0.07431447  0.52004948  0.32443827  1
  O  O606  1  0.07333913  0.51807924  0.57456542  1
  O  O607  1  0.07287743  0.52051973  0.82558897  1
  O  O608  1  0.07360386  0.85524411  0.07414490  1
  O  O609  1  0.07319291  0.85236581  0.32391837  1
  O  O610  1  0.07146734  0.85194276  0.57409838  1
  O  O611  1  0.07296645  0.85394096  0.82529974  1
  O  O612  1  0.57340676  0.18680724  0.07572671  1
  O  O613  1  0.57132330  0.18670540  0.32360199  1
  O  O614  1  0.57269239  0.18785131  0.57458190  1
  O  O615  1  0.57289977  0.18889567  0.82426478  1
  O  O616  1  0.57324617  0.51879781  0.07393730  1
  O  O617  1  0.57415079  0.51947618  0.32644970  1
  O  O618  1  0.57112141  0.51949456  0.57373569  1
  O  O619  1  0.57340086  0.52205346  0.82395693  1
  O  O620  1  0.57322633  0.85249865  0.07439771  1
  O  O621  1  0.57281456  0.85244524  0.32328091  1
  O  O622  1  0.57423855  0.85289103  0.57474656  1
  O  O623  1  0.57306795  0.85254013  0.82390607  1
  O  O624  1  0.32421192  0.18632090  0.04937994  1
  O  O625  1  0.32283078  0.18710407  0.30030280  1
  O  O626  1  0.32276882  0.18498467  0.55057701  1
  O  O627  1  0.32343623  0.18796365  0.80085820  1
  O  O628  1  0.32207492  0.52007824  0.05067613  1
  O  O629  1  0.32452466  0.52030340  0.29904879  1
  O  O630  1  0.32354097  0.51973815  0.54989928  1
  O  O631  1  0.32387838  0.52234734  0.80048719  1
  O  O632  1  0.32170147  0.85253135  0.05122346  1
  O  O633  1  0.32298674  0.85140963  0.29983575  1
  O  O634  1  0.32346466  0.85162825  0.55185968  1
  O  O635  1  0.32267250  0.85378188  0.80207830  1
  O  O636  1  0.82317594  0.18550236  0.05132547  1
  O  O637  1  0.82207128  0.18642593  0.30226221  1
  O  O638  1  0.82296220  0.18607979  0.54921207  1
  O  O639  1  0.82290334  0.18478849  0.80104680  1
  O  O640  1  0.82325949  0.52134788  0.05063233  1
  O  O641  1  0.82391880  0.52200366  0.29989028  1
  O  O642  1  0.82211742  0.51971414  0.55077725  1
  O  O643  1  0.82290116  0.51848454  0.80076925  1
  O  O644  1  0.82344822  0.85219794  0.05087591  1
  O  O645  1  0.82290197  0.85178535  0.30060773  1
  O  O646  1  0.82279654  0.85129709  0.55030499  1
  O  O647  1  0.82279891  0.85069788  0.80045650  1
  O  O648  1  0.17716382  0.14532366  0.19958629  1
  O  O649  1  0.17569162  0.14571958  0.45008506  1
  O  O650  1  0.17686706  0.14803904  0.69976391  1
  O  O651  1  0.17675327  0.14495866  0.95093518  1
  O  O652  1  0.17674562  0.48140071  0.19919403  1
  O  O653  1  0.17701080  0.47889605  0.44934682  1
  O  O654  1  0.17615251  0.48095948  0.70082414  1
  O  O655  1  0.17664595  0.47970889  0.94973786  1
  O  O656  1  0.17837617  0.81379351  0.19719023  1
  O  O657  1  0.17699513  0.81469602  0.44842372  1
  O  O658  1  0.17695237  0.81548576  0.69979545  1
  O  O659  1  0.17735371  0.81369376  0.94942797  1
  O  O660  1  0.67710639  0.14825545  0.19965864  1
  O  O661  1  0.67640686  0.14754941  0.44892729  1
  O  O662  1  0.67570662  0.14618540  0.70036755  1
  O  O663  1  0.67653902  0.14757871  0.94914710  1
  O  O664  1  0.67645518  0.48070063  0.20160481  1
  O  O665  1  0.67715696  0.47991142  0.44990293  1
  O  O666  1  0.67652511  0.48121368  0.69857195  1
  O  O667  1  0.67728575  0.48221007  0.94919774  1
  O  O668  1  0.67831568  0.81377833  0.19851600  1
  O  O669  1  0.67763622  0.81321638  0.44809980  1
  O  O670  1  0.67758647  0.81289752  0.69787492  1
  O  O671  1  0.67742332  0.81469148  0.94892341  1
