# generated using pymatgen
data_Na2MnFe(PO4)2
_symmetry_space_group_name_H-M   'P 1'
_cell_length_a   22.34565160
_cell_length_b   20.09782013
_cell_length_c   19.44838311
_cell_angle_alpha   89.98749110
_cell_angle_beta   89.96556607
_cell_angle_gamma   89.98267101
_symmetry_Int_Tables_number   1
_chemical_formula_structural   Na2MnFe(PO4)2
_chemical_formula_sum   'Na96 Mn48 Fe48 P96 O384'
_cell_volume   8734.24501546
_cell_formula_units_Z   48
loop_
 _symmetry_equiv_pos_site_id
 _symmetry_equiv_pos_as_xyz
  1  'x, y, z'
loop_
 _atom_site_type_symbol
 _atom_site_label
 _atom_site_symmetry_multiplicity
 _atom_site_fract_x
 _atom_site_fract_y
 _atom_site_fract_z
 _atom_site_occupancy
  Na  Na0  1  0.14008350  0.24915450  0.24364497  1
  Na  Na1  1  0.14043773  0.24800525  0.49336948  1
  Na  Na2  1  0.14047330  0.24833787  0.74382566  1
  Na  Na3  1  0.14032308  0.24937604  0.99409502  1
  Na  Na4  1  0.14059805  0.58341165  0.24553511  1
  Na  Na5  1  0.14053441  0.58336072  0.49314078  1
  Na  Na6  1  0.14032624  0.58368864  0.74417039  1
  Na  Na7  1  0.14032576  0.58324926  0.99450667  1
  Na  Na8  1  0.14039657  0.91652517  0.24622296  1
  Na  Na9  1  0.14071364  0.91588105  0.49439668  1
  Na  Na10  1  0.14052214  0.91825959  0.74285043  1
  Na  Na11  1  0.14051657  0.91827952  0.99444232  1
  Na  Na12  1  0.64016968  0.24967259  0.24168375  1
  Na  Na13  1  0.64029287  0.25075401  0.49223817  1
  Na  Na14  1  0.64066759  0.25035043  0.74316827  1
  Na  Na15  1  0.64038433  0.24944479  0.99315657  1
  Na  Na16  1  0.64066460  0.58415027  0.24278885  1
  Na  Na17  1  0.64070892  0.58492286  0.49316552  1
  Na  Na18  1  0.64067883  0.58584549  0.74306464  1
  Na  Na19  1  0.64002901  0.58497322  0.99382752  1
  Na  Na20  1  0.64084619  0.91526126  0.24397814  1
  Na  Na21  1  0.64014793  0.91547078  0.49314028  1
  Na  Na22  1  0.64008082  0.91625216  0.74344734  1
  Na  Na23  1  0.64113211  0.91631735  0.99334110  1
  Na  Na24  1  0.36032136  0.08373679  0.00506364  1
  Na  Na25  1  0.36009948  0.08201047  0.25639339  1
  Na  Na26  1  0.36029148  0.08139778  0.50729502  1
  Na  Na27  1  0.36048870  0.08330222  0.75610848  1
  Na  Na28  1  0.35972403  0.41630682  0.00583087  1
  Na  Na29  1  0.36005836  0.41632970  0.25691662  1
  Na  Na30  1  0.36006502  0.41590349  0.50538538  1
  Na  Na31  1  0.35932518  0.41570964  0.75493036  1
  Na  Na32  1  0.36012767  0.75070634  0.00670821  1
  Na  Na33  1  0.35985610  0.75001109  0.25843724  1
  Na  Na34  1  0.36006470  0.75018247  0.50636067  1
  Na  Na35  1  0.36026590  0.75184332  0.75624368  1
  Na  Na36  1  0.85891636  0.08346089  0.00600780  1
  Na  Na37  1  0.85943448  0.08263378  0.25690086  1
  Na  Na38  1  0.85976817  0.08187747  0.50611859  1
  Na  Na39  1  0.85933286  0.08226323  0.75688125  1
  Na  Na40  1  0.85911429  0.41760431  0.00798947  1
  Na  Na41  1  0.85938198  0.41742055  0.25594930  1
  Na  Na42  1  0.85909011  0.41845770  0.50641217  1
  Na  Na43  1  0.85865840  0.41785337  0.75657276  1
  Na  Na44  1  0.85867423  0.75046983  0.00643024  1
  Na  Na45  1  0.85870416  0.74996507  0.25646969  1
  Na  Na46  1  0.85871659  0.74948862  0.50640957  1
  Na  Na47  1  0.85896134  0.75084367  0.75580482  1
  Na  Na48  1  0.10978620  0.08424468  0.11922909  1
  Na  Na49  1  0.10973822  0.08320788  0.36983904  1
  Na  Na50  1  0.10990852  0.08171744  0.61842342  1
  Na  Na51  1  0.11030295  0.08340208  0.86811376  1
  Na  Na52  1  0.10956581  0.41611516  0.11974063  1
  Na  Na53  1  0.10926188  0.41631577  0.36930312  1
  Na  Na54  1  0.10919042  0.41545509  0.61861841  1
  Na  Na55  1  0.10910985  0.41641109  0.87030385  1
  Na  Na56  1  0.10958131  0.74961102  0.12017602  1
  Na  Na57  1  0.10992948  0.75060430  0.36958098  1
  Na  Na58  1  0.10959212  0.75039067  0.61763852  1
  Na  Na59  1  0.10941025  0.75073515  0.86910848  1
  Na  Na60  1  0.61009740  0.08293421  0.11847576  1
  Na  Na61  1  0.60969231  0.08190554  0.36794850  1
  Na  Na62  1  0.60986327  0.08416333  0.61895843  1
  Na  Na63  1  0.61029061  0.08305161  0.86750141  1
  Na  Na64  1  0.60994379  0.41651375  0.11778681  1
  Na  Na65  1  0.60986671  0.41664036  0.36733208  1
  Na  Na66  1  0.60957535  0.41834018  0.61764724  1
  Na  Na67  1  0.60933529  0.41743176  0.86854884  1
  Na  Na68  1  0.61016030  0.75014315  0.11873042  1
  Na  Na69  1  0.61022742  0.74924702  0.36759083  1
  Na  Na70  1  0.61030372  0.75121528  0.61799304  1
  Na  Na71  1  0.61005617  0.75045431  0.86786635  1
  Na  Na72  1  0.39111748  0.24916959  0.13052618  1
  Na  Na73  1  0.39126502  0.24839394  0.38070587  1
  Na  Na74  1  0.39082987  0.24913639  0.63080190  1
  Na  Na75  1  0.39043910  0.24884067  0.88007998  1
  Na  Na76  1  0.39076154  0.58382261  0.13219819  1
  Na  Na77  1  0.39051758  0.58278238  0.38162693  1
  Na  Na78  1  0.39074710  0.58471024  0.63006001  1
  Na  Na79  1  0.39061467  0.58440556  0.88039769  1
  Na  Na80  1  0.39040800  0.91708128  0.13231134  1
  Na  Na81  1  0.39047698  0.91520652  0.38245837  1
  Na  Na82  1  0.39080480  0.91728859  0.63281325  1
  Na  Na83  1  0.39044992  0.91768060  0.88076329  1
  Na  Na84  1  0.89012440  0.25096826  0.13094795  1
  Na  Na85  1  0.89044600  0.25003483  0.38024103  1
  Na  Na86  1  0.89020543  0.24834620  0.63075639  1
  Na  Na87  1  0.88984952  0.25042318  0.88163589  1
  Na  Na88  1  0.88941991  0.58228192  0.13183468  1
  Na  Na89  1  0.88918610  0.58371233  0.38209422  1
  Na  Na90  1  0.88930973  0.58303558  0.63112149  1
  Na  Na91  1  0.88970741  0.58332708  0.88210948  1
  Na  Na92  1  0.88926788  0.91777004  0.13220432  1
  Na  Na93  1  0.88952984  0.91734189  0.38238338  1
  Na  Na94  1  0.88965335  0.91605858  0.63051462  1
  Na  Na95  1  0.88953040  0.91726904  0.88125798  1
  Mn  Mn96  1  -0.00060352  0.16764719  -0.00030844  1
  Mn  Mn97  1  -0.00071029  0.83394791  0.25049204  1
  Mn  Mn98  1  0.74970014  0.16635562  0.62441233  1
  Mn  Mn99  1  -0.00056303  0.66660286  0.25069040  1
  Mn  Mn100  1  -0.00062791  0.49914127  0.75086126  1
  Mn  Mn101  1  -0.00011314  0.66638592  0.50032691  1
  Mn  Mn102  1  0.74985978  0.16595878  0.12461506  1
  Mn  Mn103  1  0.75011811  0.16578938  0.37398313  1
  Mn  Mn104  1  -0.00027566  0.00088912  0.00079998  1
  Mn  Mn105  1  0.50035228  -0.00064731  0.24999533  1
  Mn  Mn106  1  0.00013920  0.49936500  0.25056947  1
  Mn  Mn107  1  0.25038047  0.66696453  0.12631390  1
  Mn  Mn108  1  0.24959378  0.83536497  0.87599251  1
  Mn  Mn109  1  0.00039449  0.00148020  0.25125070  1
  Mn  Mn110  1  0.49950548  0.50101135  -0.00074337  1
  Mn  Mn111  1  0.74913926  0.50165939  0.87578155  1
  Mn  Mn112  1  -0.00089751  0.66602093  0.00000584  1
  Mn  Mn113  1  0.24995589  0.83440283  0.12628647  1
  Mn  Mn114  1  -0.00008642  0.83405043  -0.00002707  1
  Mn  Mn115  1  0.50036692  0.50026773  0.49889768  1
  Mn  Mn116  1  0.25060558  0.16462506  0.37461692  1
  Mn  Mn117  1  0.74928970  -0.00128554  0.62577853  1
  Mn  Mn118  1  0.50068322  0.16639971  0.49950819  1
  Mn  Mn119  1  0.74910076  0.33375320  0.87489857  1
  Mn  Mn120  1  0.24945918  0.33168240  0.62511512  1
  Mn  Mn121  1  -0.00008630  0.66626577  0.74981824  1
  Mn  Mn122  1  -0.00033555  0.33264213  0.50003499  1
  Mn  Mn123  1  0.25057197  0.16496882  0.12463243  1
  Mn  Mn124  1  0.50086419  0.00066982  0.00041351  1
  Mn  Mn125  1  0.25053158  0.66778890  0.62448876  1
  Mn  Mn126  1  0.24956451  0.33202035  0.87486421  1
  Mn  Mn127  1  0.49997472  0.33230261  -0.00136697  1
  Mn  Mn128  1  0.50021855  0.83289245  0.00032541  1
  Mn  Mn129  1  0.50001578  0.83326296  0.50065895  1
  Mn  Mn130  1  0.49974669  0.50141425  0.74844611  1
  Mn  Mn131  1  0.25033241  0.50002809  0.87493883  1
  Mn  Mn132  1  0.25060839  0.33257666  0.37500009  1
  Mn  Mn133  1  0.25033010  0.50023738  0.12562303  1
  Mn  Mn134  1  -0.00102139  0.33285592  0.75008866  1
  Mn  Mn135  1  0.49983221  0.33316736  0.74921196  1
  Mn  Mn136  1  -0.00048431  0.83435839  0.74934737  1
  Mn  Mn137  1  0.75006156  0.33453821  0.37420183  1
  Mn  Mn138  1  0.24997653  0.49986322  0.62470280  1
  Mn  Mn139  1  0.75033827  0.33461011  0.62440203  1
  Mn  Mn140  1  0.25028050  0.33278632  0.12516745  1
  Mn  Mn141  1  0.25005630  0.66797792  0.87490081  1
  Mn  Mn142  1  0.50019346  0.49967393  0.24956825  1
  Mn  Mn143  1  0.00009524  0.16538870  0.75037245  1
  Fe  Fe144  1  0.50029054  0.16608990  0.25006089  1
  Fe  Fe145  1  0.50105197  0.16680795  0.74931700  1
  Fe  Fe146  1  0.50035552  0.66726422  0.49959604  1
  Fe  Fe147  1  0.74985041  0.83292291  0.62431060  1
  Fe  Fe148  1  0.49973710  0.66740605  -0.00005858  1
  Fe  Fe149  1  0.50085006  0.16637246  -0.00035296  1
  Fe  Fe150  1  0.74942097  0.50093234  0.37442945  1
  Fe  Fe151  1  0.74924741  0.50148717  0.62507633  1
  Fe  Fe152  1  0.74941576  0.50116841  0.12508691  1
  Fe  Fe153  1  -0.00014109  0.00033698  0.49982036  1
  Fe  Fe154  1  -0.00003476  0.49939083  0.00100694  1
  Fe  Fe155  1  0.75033699  0.83330578  0.12480514  1
  Fe  Fe156  1  0.25055981  0.16522236  0.62469405  1
  Fe  Fe157  1  -0.00049787  0.49948184  0.50020921  1
  Fe  Fe158  1  0.25068674  -0.00036597  0.62531654  1
  Fe  Fe159  1  0.00003674  0.33339986  0.00102671  1
  Fe  Fe160  1  -0.00036258  -0.00037889  0.74919279  1
  Fe  Fe161  1  0.50027648  0.00052538  0.75043744  1
  Fe  Fe162  1  0.25038962  0.66689890  0.37583521  1
  Fe  Fe163  1  -0.00032222  0.33322957  0.25046785  1
  Fe  Fe164  1  0.50056550  0.33230508  0.24868663  1
  Fe  Fe165  1  0.74987521  0.33380125  0.12453788  1
  Fe  Fe166  1  -0.00022784  0.16746361  0.25011004  1
  Fe  Fe167  1  0.50048311  0.33291628  0.49902321  1
  Fe  Fe168  1  0.25052650  0.16559956  0.87453654  1
  Fe  Fe169  1  0.24996961  -0.00011486  0.12516598  1
  Fe  Fe170  1  0.49999053  0.66669740  0.24999830  1
  Fe  Fe171  1  0.74981686  0.66736156  0.12499139  1
  Fe  Fe172  1  0.74973349  -0.00127208  0.37509748  1
  Fe  Fe173  1  0.25044844  -0.00112895  0.37649256  1
  Fe  Fe174  1  0.74996235  0.83294763  0.37413804  1
  Fe  Fe175  1  0.25008690  0.83383665  0.62509778  1
  Fe  Fe176  1  0.50041820  -0.00013666  0.50062281  1
  Fe  Fe177  1  0.75021760  0.16683827  0.87531669  1
  Fe  Fe178  1  0.50051754  0.66771851  0.74985319  1
  Fe  Fe179  1  0.25060746  0.83368512  0.37590967  1
  Fe  Fe180  1  0.74975013  0.83321966  0.87524297  1
  Fe  Fe181  1  0.75034619  0.66767208  0.87464153  1
  Fe  Fe182  1  0.50034617  0.83261452  0.25053719  1
  Fe  Fe183  1  0.50026229  0.83371483  0.74993195  1
  Fe  Fe184  1  0.24956286  0.49986750  0.37554552  1
  Fe  Fe185  1  0.74963269  -0.00066247  0.87529361  1
  Fe  Fe186  1  -0.00097179  0.83368874  0.50020898  1
  Fe  Fe187  1  0.00001049  0.16636331  0.50008238  1
  Fe  Fe188  1  0.25043248  0.00075467  0.87423216  1
  Fe  Fe189  1  0.74974370  -0.00075133  0.12474503  1
  Fe  Fe190  1  0.74996763  0.66690728  0.37478312  1
  Fe  Fe191  1  0.74982692  0.66757003  0.62437233  1
  P  P192  1  0.04217484  0.25120305  0.10358964  1
  P  P193  1  0.04155815  0.24971547  0.35215800  1
  P  P194  1  0.04237600  0.24789061  0.60238946  1
  P  P195  1  0.04253133  0.25024966  0.85357877  1
  P  P196  1  0.04197151  0.58184365  0.10300282  1
  P  P197  1  0.04225808  0.58296923  0.35420225  1
  P  P198  1  0.04218716  0.58143377  0.60249587  1
  P  P199  1  0.04243141  0.58260436  0.85397459  1
  P  P200  1  0.04272707  0.91727480  0.10384854  1
  P  P201  1  0.04181931  0.91712879  0.35496008  1
  P  P202  1  0.04100589  0.91705723  0.60142920  1
  P  P203  1  0.04235102  0.91833404  0.85211897  1
  P  P204  1  0.54253485  0.24844365  0.10252842  1
  P  P205  1  0.54211210  0.24972513  0.35114901  1
  P  P206  1  0.54280300  0.25102400  0.60179321  1
  P  P207  1  0.54267425  0.24852473  0.85196166  1
  P  P208  1  0.54176305  0.58535441  0.10258681  1
  P  P209  1  0.54222794  0.58446249  0.35203064  1
  P  P210  1  0.54235735  0.58565383  0.60191378  1
  P  P211  1  0.54226585  0.58527173  0.85212943  1
  P  P212  1  0.54291953  0.91619028  0.10362811  1
  P  P213  1  0.54231383  0.91475968  0.35289201  1
  P  P214  1  0.54210908  0.91819932  0.60354821  1
  P  P215  1  0.54135111  0.91669791  0.85161796  1
  P  P216  1  0.45832114  0.08453846  0.14743994  1
  P  P217  1  0.45823454  0.08138475  0.39761831  1
  P  P218  1  0.45939262  0.08340522  0.64820984  1
  P  P219  1  0.45905851  0.08451343  0.89668988  1
  P  P220  1  0.45804899  0.41519553  0.14709687  1
  P  P221  1  0.45856931  0.41458397  0.39634335  1
  P  P222  1  0.45735500  0.41677068  0.64540354  1
  P  P223  1  0.45695558  0.41689203  0.89607009  1
  P  P224  1  0.45830604  0.75004835  0.14868035  1
  P  P225  1  0.45842633  0.74881804  0.39710782  1
  P  P226  1  0.45907896  0.75041579  0.64812413  1
  P  P227  1  0.45808296  0.74937674  0.89687756  1
  P  P228  1  0.95738079  0.08533826  0.14819258  1
  P  P229  1  0.95834002  0.08421620  0.39825411  1
  P  P230  1  0.95752522  0.08147954  0.64661725  1
  P  P231  1  0.95685069  0.08314289  0.89660619  1
  P  P232  1  0.95777782  0.41518379  0.14745660  1
  P  P233  1  0.95725057  0.41715704  0.39756888  1
  P  P234  1  0.95642863  0.41635125  0.64659777  1
  P  P235  1  0.95761963  0.41624058  0.89962302  1
  P  P236  1  0.95650947  0.74990873  0.14719926  1
  P  P237  1  0.95727650  0.75119289  0.39814678  1
  P  P238  1  0.95721636  0.75022577  0.64619814  1
  P  P239  1  0.95670496  0.75053132  0.89682497  1
  P  P240  1  0.20792868  0.08084490  0.22814678  1
  P  P241  1  0.20848809  0.08099084  0.47870161  1
  P  P242  1  0.20898500  0.08298334  0.72697079  1
  P  P243  1  0.20850420  0.08277249  0.97657513  1
  P  P244  1  0.20770423  0.41675145  0.22913455  1
  P  P245  1  0.20778152  0.41673688  0.47742495  1
  P  P246  1  0.20681865  0.41594275  0.72801505  1
  P  P247  1  0.20730579  0.41629316  0.97834357  1
  P  P248  1  0.20765307  0.75043145  0.23025531  1
  P  P249  1  0.20908988  0.75059607  0.47722611  1
  P  P250  1  0.20754238  0.75220336  0.72730067  1
  P  P251  1  0.20701537  0.75117009  0.97885987  1
  P  P252  1  0.70802032  0.08089923  0.22749270  1
  P  P253  1  0.70760173  0.08150192  0.47691210  1
  P  P254  1  0.70757499  0.08324577  0.72905968  1
  P  P255  1  0.70872691  0.08291767  0.97660916  1
  P  P256  1  0.70871633  0.41750117  0.22634652  1
  P  P257  1  0.70772899  0.41924590  0.47722299  1
  P  P258  1  0.70724032  0.41894508  0.72711077  1
  P  P259  1  0.70689212  0.41729171  0.97906724  1
  P  P260  1  0.70889867  0.75030354  0.22690826  1
  P  P261  1  0.70857095  0.75015595  0.47634135  1
  P  P262  1  0.70877576  0.75082223  0.72668141  1
  P  P263  1  0.70855811  0.75008010  0.97699849  1
  P  P264  1  0.29293857  0.24882141  0.02125638  1
  P  P265  1  0.29329217  0.24868917  0.27171503  1
  P  P266  1  0.29258849  0.24755965  0.52237049  1
  P  P267  1  0.29222603  0.24740929  0.77172973  1
  P  P268  1  0.29330122  0.58390948  0.02227812  1
  P  P269  1  0.29178703  0.58334217  0.27439971  1
  P  P270  1  0.29256362  0.58350708  0.52070242  1
  P  P271  1  0.29304815  0.58412012  0.77156165  1
  P  P272  1  0.29276045  0.91872503  0.02275359  1
  P  P273  1  0.29191063  0.91699739  0.27407509  1
  P  P274  1  0.29217485  0.91621275  0.52344825  1
  P  P275  1  0.29225499  0.91858989  0.77180901  1
  P  P276  1  0.79155673  0.25087830  0.02208057  1
  P  P277  1  0.79194322  0.25043161  0.27063130  1
  P  P278  1  0.79258518  0.25023211  0.52122466  1
  P  P279  1  0.79200448  0.24920361  0.77258083  1
  P  P280  1  0.79110450  0.58457860  0.02348670  1
  P  P281  1  0.79097923  0.58387584  0.27270164  1
  P  P282  1  0.79082635  0.58386146  0.52267434  1
  P  P283  1  0.79183299  0.58543617  0.77205072  1
  P  P284  1  0.79113989  0.91656622  0.02270986  1
  P  P285  1  0.79159519  0.91630878  0.27263142  1
  P  P286  1  0.79142184  0.91498990  0.52169511  1
  P  P287  1  0.79073747  0.91590368  0.77345942  1
  O  O288  1  0.03678725  0.25084110  0.18349319  1
  O  O289  1  0.03634593  0.24910418  0.43212654  1
  O  O290  1  0.03724050  0.24805642  0.68231429  1
  O  O291  1  0.03741235  0.25093287  0.93356384  1
  O  O292  1  0.03691532  0.58220681  0.18302268  1
  O  O293  1  0.03706349  0.58255961  0.43414444  1
  O  O294  1  0.03708881  0.58185223  0.68250989  1
  O  O295  1  0.03707082  0.58216319  0.93394985  1
  O  O296  1  0.03770264  0.91743703  0.18384130  1
  O  O297  1  0.03612267  0.91702315  0.43485707  1
  O  O298  1  0.03602079  0.91748962  0.68143221  1
  O  O299  1  0.03759752  0.91809252  0.93212532  1
  O  O300  1  0.53702092  0.24877597  0.18243365  1
  O  O301  1  0.53707188  0.25033481  0.43116008  1
  O  O302  1  0.53760460  0.25032937  0.68170452  1
  O  O303  1  0.53742972  0.24826161  0.93191223  1
  O  O304  1  0.53637592  0.58519345  0.18254832  1
  O  O305  1  0.53707525  0.58431907  0.43194860  1
  O  O306  1  0.53696849  0.58588485  0.68184098  1
  O  O307  1  0.53686217  0.58528543  0.93209897  1
  O  O308  1  0.53776866  0.91564580  0.18355684  1
  O  O309  1  0.53711204  0.91523508  0.43281719  1
  O  O310  1  0.53671659  0.91788583  0.68341365  1
  O  O311  1  0.53693865  0.91666533  0.93162920  1
  O  O312  1  0.46374489  0.08468098  0.06752316  1
  O  O313  1  0.46321472  0.08173186  0.31771001  1
  O  O314  1  0.46413345  0.08264845  0.56823850  1
  O  O315  1  0.46450370  0.08433216  0.81683644  1
  O  O316  1  0.46281349  0.41577565  0.06710115  1
  O  O317  1  0.46421001  0.41429653  0.31639838  1
  O  O318  1  0.46294106  0.41633496  0.56544400  1
  O  O319  1  0.46210165  0.41707432  0.81608743  1
  O  O320  1  0.46307731  0.74982535  0.06866850  1
  O  O321  1  0.46364636  0.74916091  0.31724203  1
  O  O322  1  0.46377611  0.75045327  0.56813885  1
  O  O323  1  0.46357707  0.74977283  0.81701051  1
  O  O324  1  0.96213547  0.08502119  0.06819155  1
  O  O325  1  0.96356258  0.08481593  0.31830053  1
  O  O326  1  0.96291951  0.08183587  0.56670170  1
  O  O327  1  0.96182631  0.08232894  0.81661819  1
  O  O328  1  0.96306959  0.41553443  0.06757217  1
  O  O329  1  0.96272091  0.41653122  0.31765301  1
  O  O330  1  0.96161609  0.41689639  0.56664844  1
  O  O331  1  0.96225602  0.41628484  0.81955914  1
  O  O332  1  0.96158864  0.74985083  0.06722513  1
  O  O333  1  0.96195989  0.75095514  0.31813639  1
  O  O334  1  0.96243226  0.75074210  0.56623451  1
  O  O335  1  0.96186572  0.75048376  0.81682272  1
  O  O336  1  0.21346526  0.08233081  0.05655326  1
  O  O337  1  0.21312308  0.08075254  0.30807181  1
  O  O338  1  0.21400858  0.08169676  0.55855370  1
  O  O339  1  0.21400204  0.08312263  0.80690546  1
  O  O340  1  0.21254535  0.41621598  0.05833158  1
  O  O341  1  0.21299803  0.41722773  0.30910140  1
  O  O342  1  0.21250897  0.41639016  0.55742072  1
  O  O343  1  0.21207124  0.41586913  0.80798163  1
  O  O344  1  0.21207618  0.75109321  0.05887630  1
  O  O345  1  0.21318973  0.75010172  0.31014980  1
  O  O346  1  0.21396214  0.75129992  0.55720512  1
  O  O347  1  0.21238192  0.75224809  0.80730970  1
  O  O348  1  0.71363298  0.08223212  0.05659968  1
  O  O349  1  0.71341813  0.08085491  0.30740701  1
  O  O350  1  0.71260876  0.08181321  0.55690293  1
  O  O351  1  0.71300539  0.08374073  0.80892659  1
  O  O352  1  0.71244960  0.41687530  0.05895272  1
  O  O353  1  0.71351545  0.41808057  0.30634054  1
  O  O354  1  0.71294790  0.41922392  0.55716704  1
  O  O355  1  0.71230843  0.41849612  0.80710606  1
  O  O356  1  0.71382726  0.75003010  0.05682282  1
  O  O357  1  0.71393919  0.75071577  0.30674666  1
  O  O358  1  0.71348642  0.74982236  0.55619677  1
  O  O359  1  0.71366627  0.75062893  0.80651441  1
  O  O360  1  0.28820551  0.24873421  0.19175988  1
  O  O361  1  0.28758939  0.24774961  0.44237511  1
  O  O362  1  0.28690450  0.24711458  0.69176565  1
  O  O363  1  0.28761907  0.24823059  0.94128274  1
  O  O364  1  0.28705884  0.58343994  0.19435128  1
  O  O365  1  0.28684626  0.58345185  0.44079575  1
  O  O366  1  0.28796296  0.58419038  0.69154687  1
  O  O367  1  0.28825374  0.58415187  0.94229457  1
  O  O368  1  0.28713900  0.91721730  0.19414134  1
  O  O369  1  0.28712553  0.91609356  0.44354721  1
  O  O370  1  0.28701760  0.91798074  0.69192612  1
  O  O371  1  0.28765219  0.91889401  0.94278938  1
  O  O372  1  0.78629536  0.25092903  0.19071200  1
  O  O373  1  0.78753655  0.25014550  0.44122982  1
  O  O374  1  0.78690253  0.24960818  0.69257612  1
  O  O375  1  0.78627011  0.25026572  0.94211178  1
  O  O376  1  0.78594411  0.58432816  0.19285359  1
  O  O377  1  0.78585368  0.58374963  0.44280756  1
  O  O378  1  0.78639742  0.58486060  0.69221027  1
  O  O379  1  0.78646906  0.58446066  0.94355051  1
  O  O380  1  0.78659216  0.91685031  0.19273007  1
  O  O381  1  0.78611267  0.91538252  0.44182542  1
  O  O382  1  0.78611256  0.91578026  0.69351898  1
  O  O383  1  0.78574821  0.91619439  0.94287974  1
  O  O384  1  0.22866161  0.24889768  0.05678654  1
  O  O385  1  0.22886814  0.24873060  0.30677098  1
  O  O386  1  0.22819341  0.24697257  0.55770587  1
  O  O387  1  0.22803549  0.24730079  0.80766751  1
  O  O388  1  0.22880478  0.58381948  0.05726093  1
  O  O389  1  0.22755704  0.58382642  0.31009354  1
  O  O390  1  0.22841454  0.58395231  0.55661834  1
  O  O391  1  0.22861019  0.58408275  0.80664800  1
  O  O392  1  0.22836620  0.91849599  0.05833848  1
  O  O393  1  0.22778639  0.91730207  0.31014168  1
  O  O394  1  0.22803418  0.91632283  0.55968351  1
  O  O395  1  0.22805388  0.91932356  0.80784129  1
  O  O396  1  0.72744422  0.25082493  0.05802132  1
  O  O397  1  0.72783003  0.25012746  0.30649986  1
  O  O398  1  0.72817654  0.25060336  0.55631746  1
  O  O399  1  0.72768522  0.24875667  0.80810940  1
  O  O400  1  0.72688455  0.58516781  0.05934599  1
  O  O401  1  0.72692458  0.58344348  0.30906985  1
  O  O402  1  0.72684516  0.58386331  0.55921024  1
  O  O403  1  0.72768875  0.58611803  0.80831185  1
  O  O404  1  0.72718635  0.91692607  0.05933485  1
  O  O405  1  0.72747012  0.91594130  0.30895638  1
  O  O406  1  0.72731885  0.91451879  0.55797278  1
  O  O407  1  0.72657714  0.91573728  0.80938666  1
  O  O408  1  0.27225427  0.08070302  0.19244134  1
  O  O409  1  0.27265606  0.08062387  0.44255934  1
  O  O410  1  0.27314529  0.08294167  0.69079158  1
  O  O411  1  0.27274494  0.08283571  0.94053628  1
  O  O412  1  0.27205406  0.41640576  0.19376570  1
  O  O413  1  0.27218043  0.41693375  0.44221460  1
  O  O414  1  0.27123886  0.41568801  0.69285111  1
  O  O415  1  0.27166118  0.41591726  0.94305651  1
  O  O416  1  0.27187868  0.75066481  0.19437984  1
  O  O417  1  0.27319439  0.74973243  0.44122055  1
  O  O418  1  0.27205899  0.75240049  0.69214841  1
  O  O419  1  0.27147002  0.75148120  0.94379917  1
  O  O420  1  0.77214891  0.08098110  0.19143365  1
  O  O421  1  0.77195965  0.08138937  0.44149465  1
  O  O422  1  0.77168976  0.08277283  0.69301681  1
  O  O423  1  0.77276470  0.08337653  0.94049947  1
  O  O424  1  0.77277472  0.41724123  0.19034876  1
  O  O425  1  0.77196208  0.41954929  0.44138446  1
  O  O426  1  0.77157311  0.41941717  0.69157894  1
  O  O427  1  0.77102896  0.41741907  0.94312460  1
  O  O428  1  0.77284399  0.74953854  0.19038931  1
  O  O429  1  0.77260570  0.75071920  0.44000042  1
  O  O430  1  0.77279085  0.75112520  0.69022738  1
  O  O431  1  0.77255720  0.75023927  0.94036049  1
  O  O432  1  0.02183774  0.08568267  0.18332294  1
  O  O433  1  0.02245063  0.08376308  0.43437301  1
  O  O434  1  0.02176898  0.08103255  0.68260697  1
  O  O435  1  0.02128762  0.08375141  0.93164059  1
  O  O436  1  0.02189735  0.41459121  0.18357666  1
  O  O437  1  0.02144936  0.41760534  0.43349786  1
  O  O438  1  0.02085500  0.41596583  0.68169441  1
  O  O439  1  0.02195975  0.41645449  0.93512961  1
  O  O440  1  0.02096947  0.75006371  0.18217159  1
  O  O441  1  0.02165253  0.75093946  0.43324892  1
  O  O442  1  0.02150852  0.75033125  0.68154025  1
  O  O443  1  0.02111139  0.75007004  0.93187722  1
  O  O444  1  0.52250181  0.08434098  0.18334578  1
  O  O445  1  0.52256144  0.08133631  0.43314347  1
  O  O446  1  0.52351797  0.08392114  0.68405150  1
  O  O447  1  0.52318278  0.08495859  0.93292169  1
  O  O448  1  0.52246101  0.41542649  0.18227250  1
  O  O449  1  0.52266809  0.41494178  0.43244939  1
  O  O450  1  0.52155552  0.41708541  0.68104086  1
  O  O451  1  0.52130085  0.41695686  0.93127677  1
  O  O452  1  0.52263136  0.75037179  0.18431478  1
  O  O453  1  0.52259817  0.74891016  0.43306240  1
  O  O454  1  0.52327995  0.75025895  0.68388165  1
  O  O455  1  0.52225765  0.74886657  0.93302122  1
  O  O456  1  0.47846961  0.24771089  0.06619385  1
  O  O457  1  0.47797561  0.24931849  0.31517815  1
  O  O458  1  0.47853572  0.25114092  0.56609302  1
  O  O459  1  0.47841000  0.24832580  0.81624922  1
  O  O460  1  0.47759800  0.58553194  0.06665129  1
  O  O461  1  0.47796084  0.58423367  0.31642808  1
  O  O462  1  0.47821602  0.58527872  0.56593581  1
  O  O463  1  0.47808916  0.58560355  0.81621725  1
  O  O464  1  0.47862785  0.91667865  0.06833894  1
  O  O465  1  0.47812293  0.91448577  0.31704961  1
  O  O466  1  0.47798655  0.91831213  0.56740468  1
  O  O467  1  0.47721229  0.91644432  0.81600965  1
  O  O468  1  0.97798677  0.25168019  0.06748810  1
  O  O469  1  0.97745239  0.24999816  0.31592250  1
  O  O470  1  0.97800530  0.24800309  0.56702340  1
  O  O471  1  0.97812597  0.24934678  0.81840845  1
  O  O472  1  0.97759748  0.58131320  0.06765324  1
  O  O473  1  0.97789086  0.58292968  0.31901983  1
  O  O474  1  0.97779008  0.58143169  0.56718689  1
  O  O475  1  0.97801889  0.58315354  0.81878122  1
  O  O476  1  0.97818630  0.91717723  0.06906705  1
  O  O477  1  0.97774534  0.91770956  0.31896722  1
  O  O478  1  0.97683913  0.91739595  0.56563549  1
  O  O479  1  0.97780962  0.91868897  0.81706334  1
  O  O480  1  0.07320355  0.31450341  0.07485008  1
  O  O481  1  0.07217036  0.31370347  0.32442965  1
  O  O482  1  0.07351045  0.31140826  0.57441327  1
  O  O483  1  0.07322030  0.31363051  0.82476567  1
  O  O484  1  0.07275718  0.64561780  0.07514682  1
  O  O485  1  0.07298551  0.64678730  0.32623654  1
  O  O486  1  0.07330077  0.64515930  0.57487858  1
  O  O487  1  0.07363387  0.64610123  0.82582647  1
  O  O488  1  0.07353076  0.98088594  0.07566140  1
  O  O489  1  0.07345493  0.98039202  0.32688851  1
  O  O490  1  0.07251664  0.98014079  0.57296595  1
  O  O491  1  0.07307711  0.98167650  0.82323193  1
  O  O492  1  0.57323278  0.31221097  0.07425603  1
  O  O493  1  0.57308905  0.31307040  0.32235062  1
  O  O494  1  0.57346747  0.31466138  0.57339700  1
  O  O495  1  0.57339237  0.31257787  0.82448726  1
  O  O496  1  0.57279077  0.64869047  0.07409081  1
  O  O497  1  0.57297509  0.64789769  0.32338733  1
  O  O498  1  0.57308007  0.64914113  0.57324429  1
  O  O499  1  0.57346548  0.64847295  0.82345172  1
  O  O500  1  0.57402195  0.97976120  0.07560380  1
  O  O501  1  0.57350106  0.97818213  0.32482092  1
  O  O502  1  0.57299061  0.98159410  0.57476321  1
  O  O503  1  0.57175243  0.98061726  0.82342780  1
  O  O504  1  0.42726323  0.02072832  0.17500968  1
  O  O505  1  0.42773476  0.01781729  0.42644433  1
  O  O506  1  0.42881890  0.01989334  0.67733642  1
  O  O507  1  0.42828630  0.02071141  0.92491121  1
  O  O508  1  0.42767608  0.35138528  0.17535822  1
  O  O509  1  0.42766809  0.35128681  0.42514169  1
  O  O510  1  0.42611638  0.35351369  0.67386485  1
  O  O511  1  0.42611843  0.35316204  0.92388191  1
  O  O512  1  0.42765564  0.68641125  0.17722125  1
  O  O513  1  0.42771274  0.68530420  0.42583737  1
  O  O514  1  0.42778742  0.68711641  0.67628971  1
  O  O515  1  0.42699028  0.68615230  0.92571819  1
  O  O516  1  0.92665253  0.02161995  0.17632076  1
  O  O517  1  0.92736053  0.02044720  0.42602934  1
  O  O518  1  0.92646897  0.01810814  0.67529458  1
  O  O519  1  0.92586383  0.01997398  0.92560405  1
  O  O520  1  0.92663134  0.35199768  0.17631948  1
  O  O521  1  0.92614663  0.35359815  0.42548706  1
  O  O522  1  0.92547273  0.35259542  0.67445013  1
  O  O523  1  0.92709656  0.35240234  0.92769579  1
  O  O524  1  0.92576056  0.68628416  0.17547660  1
  O  O525  1  0.92588993  0.68774339  0.42589454  1
  O  O526  1  0.92651440  0.68635954  0.67394546  1
  O  O527  1  0.92531081  0.68730923  0.92499841  1
  O  O528  1  0.17689854  0.01770735  0.19928955  1
  O  O529  1  0.17755553  0.01747078  0.45050630  1
  O  O530  1  0.17821155  0.01933898  0.69851236  1
  O  O531  1  0.17754508  0.01943981  0.94791271  1
  O  O532  1  0.17667127  0.35311698  0.20128824  1
  O  O533  1  0.17676485  0.35303934  0.44971243  1
  O  O534  1  0.17572961  0.35243239  0.69999896  1
  O  O535  1  0.17603181  0.35294227  0.95033043  1
  O  O536  1  0.17647117  0.68708743  0.20172504  1
  O  O537  1  0.17764572  0.68712143  0.44957492  1
  O  O538  1  0.17672200  0.68849407  0.69938250  1
  O  O539  1  0.17617008  0.68769330  0.95054759  1
  O  O540  1  0.67692731  0.01770846  0.19886680  1
  O  O541  1  0.67691990  0.01785782  0.44873707  1
  O  O542  1  0.67627075  0.01971324  0.70120117  1
  O  O543  1  0.67815799  0.01915731  0.94799735  1
  O  O544  1  0.67773752  0.35377680  0.19854792  1
  O  O545  1  0.67713316  0.35526085  0.44934042  1
  O  O546  1  0.67653964  0.35516965  0.69913642  1
  O  O547  1  0.67550350  0.35417361  0.95033943  1
  O  O548  1  0.67732249  0.68703078  0.19883669  1
  O  O549  1  0.67832196  0.68627816  0.44742653  1
  O  O550  1  0.67828155  0.68720168  0.69762584  1
  O  O551  1  0.67785835  0.68653234  0.94827513  1
  O  O552  1  0.32391854  0.31250297  0.04904120  1
  O  O553  1  0.32438085  0.31205657  0.29987917  1
  O  O554  1  0.32315077  0.31147661  0.55011469  1
  O  O555  1  0.32316318  0.31133695  0.79907360  1
  O  O556  1  0.32415573  0.64733397  0.05081890  1
  O  O557  1  0.32296974  0.64681938  0.30236032  1
  O  O558  1  0.32407799  0.64678076  0.54888549  1
  O  O559  1  0.32389620  0.64772616  0.79961089  1
  O  O560  1  0.32345054  0.98209830  0.05160520  1
  O  O561  1  0.32332728  0.98007036  0.30264750  1
  O  O562  1  0.32312306  0.97972340  0.55190618  1
  O  O563  1  0.32351744  0.98187670  0.80021019  1
  O  O564  1  0.82203601  0.31468001  0.05033793  1
  O  O565  1  0.82320116  0.31363357  0.29903247  1
  O  O566  1  0.82371889  0.31368229  0.54921656  1
  O  O567  1  0.82273728  0.31310141  0.80027996  1
  O  O568  1  0.82269543  0.64763313  0.05171461  1
  O  O569  1  0.82149095  0.64753309  0.30172920  1
  O  O570  1  0.82145108  0.64768649  0.55112106  1
  O  O571  1  0.82295814  0.64880195  0.80049335  1
  O  O572  1  0.82247226  0.97998525  0.05085463  1
  O  O573  1  0.82230636  0.97981911  0.30163842  1
  O  O574  1  0.82232988  0.97854749  0.55007243  1
  O  O575  1  0.82099585  0.97990611  0.80195110  1
  O  O576  1  0.42741140  0.14774408  0.17638043  1
  O  O577  1  0.42711272  0.14492290  0.42569341  1
  O  O578  1  0.42843358  0.14721944  0.67586471  1
  O  O579  1  0.42777497  0.14763180  0.92542183  1
  O  O580  1  0.42678328  0.47863436  0.17527799  1
  O  O581  1  0.42736928  0.47844636  0.42354854  1
  O  O582  1  0.42620874  0.48044846  0.67306772  1
  O  O583  1  0.42585297  0.48026830  0.92435988  1
  O  O584  1  0.42751678  0.81376796  0.17696992  1
  O  O585  1  0.42710290  0.81214468  0.42560553  1
  O  O586  1  0.42879121  0.81443696  0.67661770  1
  O  O587  1  0.42709948  0.81305871  0.92510104  1
  O  O588  1  0.92655617  0.14882986  0.17652790  1
  O  O589  1  0.92750486  0.14776873  0.42672105  1
  O  O590  1  0.92654796  0.14506476  0.67489539  1
  O  O591  1  0.92570775  0.14673361  0.92445025  1
  O  O592  1  0.92682476  0.47889911  0.17557845  1
  O  O593  1  0.92642277  0.48079367  0.42576195  1
  O  O594  1  0.92532421  0.47946230  0.67559817  1
  O  O595  1  0.92685957  0.47998321  0.92782139  1
  O  O596  1  0.92542000  0.81336269  0.17528292  1
  O  O597  1  0.92695475  0.81499561  0.42660932  1
  O  O598  1  0.92574133  0.81335273  0.67465184  1
  O  O599  1  0.92613267  0.81434165  0.92486567  1
  O  O600  1  0.07314244  0.18756280  0.07530533  1
  O  O601  1  0.07255001  0.18624523  0.32367897  1
  O  O602  1  0.07298272  0.18428183  0.57391972  1
  O  O603  1  0.07387219  0.18675557  0.82572433  1
  O  O604  1  0.07290273  0.51829686  0.07487261  1
  O  O605  1  0.07371185  0.51990817  0.32570035  1
  O  O606  1  0.07282273  0.51790380  0.57400234  1
  O  O607  1  0.07338764  0.51919535  0.82552165  1
  O  O608  1  0.07373910  0.85382882  0.07561943  1
  O  O609  1  0.07280664  0.85363550  0.32662601  1
  O  O610  1  0.07128478  0.85283472  0.57355538  1
  O  O611  1  0.07309461  0.85456351  0.82411355  1
  O  O612  1  0.57393459  0.18518882  0.07412652  1
  O  O613  1  0.57277705  0.18559981  0.32366551  1
  O  O614  1  0.57404094  0.18759844  0.57351626  1
  O  O615  1  0.57384537  0.18547443  0.82302096  1
  O  O616  1  0.57266848  0.52151935  0.07489436  1
  O  O617  1  0.57340464  0.52085161  0.32407915  1
  O  O618  1  0.57356703  0.52202199  0.57424383  1
  O  O619  1  0.57305764  0.52138652  0.82433473  1
  O  O620  1  0.57399004  0.85298328  0.07487413  1
  O  O621  1  0.57306231  0.85113881  0.32451136  1
  O  O622  1  0.57324770  0.85465996  0.57530848  1
  O  O623  1  0.57235608  0.85313968  0.82338971  1
  O  O624  1  0.32423533  0.18562012  0.04977679  1
  O  O625  1  0.32424614  0.18511301  0.29969825  1
  O  O626  1  0.32371969  0.18419641  0.55062913  1
  O  O627  1  0.32331586  0.18426208  0.80062601  1
  O  O628  1  0.32429907  0.52033445  0.05030854  1
  O  O629  1  0.32212606  0.51923930  0.30223264  1
  O  O630  1  0.32364426  0.51998622  0.54888645  1
  O  O631  1  0.32402184  0.52048502  0.79941756  1
  O  O632  1  0.32381209  0.85507524  0.05074798  1
  O  O633  1  0.32207403  0.85287151  0.30251510  1
  O  O634  1  0.32304242  0.85258096  0.55192724  1
  O  O635  1  0.32305261  0.85503936  0.80043286  1
  O  O636  1  0.82311931  0.18753750  0.04998618  1
  O  O637  1  0.82312206  0.18670819  0.29811342  1
  O  O638  1  0.82338650  0.18658486  0.54931593  1
  O  O639  1  0.82300715  0.18580731  0.80094732  1
  O  O640  1  0.82101092  0.52041169  0.05223137  1
  O  O641  1  0.82225362  0.52042404  0.30092858  1
  O  O642  1  0.82193351  0.52054008  0.55139870  1
  O  O643  1  0.82269817  0.52186787  0.80070689  1
  O  O644  1  0.82169321  0.85282183  0.05150665  1
  O  O645  1  0.82264076  0.85268457  0.30075036  1
  O  O646  1  0.82252014  0.85166438  0.55030851  1
  O  O647  1  0.82208382  0.85269316  0.80191952  1
  O  O648  1  0.17718328  0.14474119  0.20027811  1
  O  O649  1  0.17731746  0.14436612  0.45013230  1
  O  O650  1  0.17788620  0.14636522  0.69832070  1
  O  O651  1  0.17788453  0.14666381  0.94853121  1
  O  O652  1  0.17657061  0.48010677  0.20072334  1
  O  O653  1  0.17715307  0.48040541  0.44907372  1
  O  O654  1  0.17596296  0.47952884  0.69995312  1
  O  O655  1  0.17659374  0.48003627  0.95043381  1
  O  O656  1  0.17636636  0.81386255  0.20212831  1
  O  O657  1  0.17884665  0.81449088  0.44858090  1
  O  O658  1  0.17676307  0.81561658  0.69854766  1
  O  O659  1  0.17588156  0.81465778  0.95080709  1
  O  O660  1  0.67699567  0.14471873  0.19986792  1
  O  O661  1  0.67654085  0.14511751  0.44897414  1
  O  O662  1  0.67644289  0.14644247  0.70005669  1
  O  O663  1  0.67771226  0.14667200  0.94897291  1
  O  O664  1  0.67799284  0.48121905  0.19776239  1
  O  O665  1  0.67644945  0.48231439  0.44844189  1
  O  O666  1  0.67626628  0.48248171  0.69906682  1
  O  O667  1  0.67564298  0.48087301  0.95115093  1
  O  O668  1  0.67868936  0.81414890  0.19789116  1
  O  O669  1  0.67704031  0.81335307  0.44801306  1
  O  O670  1  0.67757748  0.81422313  0.69812082  1
  O  O671  1  0.67746427  0.81365590  0.94863433  1
