# generated using pymatgen
data_Na2MnFe(PO4)2
_symmetry_space_group_name_H-M   'P 1'
_cell_length_a   22.34600461
_cell_length_b   20.09774758
_cell_length_c   19.44723435
_cell_angle_alpha   90.00082928
_cell_angle_beta   90.01355243
_cell_angle_gamma   90.01107703
_symmetry_Int_Tables_number   1
_chemical_formula_structural   Na2MnFe(PO4)2
_chemical_formula_sum   'Na96 Mn48 Fe48 P96 O384'
_cell_volume   8733.83733051
_cell_formula_units_Z   48
loop_
 _symmetry_equiv_pos_site_id
 _symmetry_equiv_pos_as_xyz
  1  'x, y, z'
loop_
 _atom_site_type_symbol
 _atom_site_label
 _atom_site_symmetry_multiplicity
 _atom_site_fract_x
 _atom_site_fract_y
 _atom_site_fract_z
 _atom_site_occupancy
  Na  Na0  1  0.14018295  0.24912530  0.24246744  1
  Na  Na1  1  0.14002673  0.24992859  0.49424396  1
  Na  Na2  1  0.14001844  0.25018221  0.74494783  1
  Na  Na3  1  0.14003798  0.24989079  0.99328767  1
  Na  Na4  1  0.13990690  0.58338805  0.24416426  1
  Na  Na5  1  0.13992575  0.58351108  0.49560940  1
  Na  Na6  1  0.13977897  0.58339024  0.74492919  1
  Na  Na7  1  0.14036190  0.58479393  0.99268591  1
  Na  Na8  1  0.13996550  0.91802832  0.24300656  1
  Na  Na9  1  0.13930697  0.91684952  0.49349058  1
  Na  Na10  1  0.14018061  0.91686304  0.74445524  1
  Na  Na11  1  0.14066242  0.91742990  0.99269716  1
  Na  Na12  1  0.64113947  0.24901331  0.24391631  1
  Na  Na13  1  0.63990945  0.24838120  0.49289503  1
  Na  Na14  1  0.64026206  0.25003442  0.74193151  1
  Na  Na15  1  0.64110714  0.25108223  0.99314800  1
  Na  Na16  1  0.64018579  0.58256531  0.24312082  1
  Na  Na17  1  0.63983477  0.58304351  0.49398247  1
  Na  Na18  1  0.64070512  0.58353174  0.74268917  1
  Na  Na19  1  0.64093697  0.58454394  0.99526527  1
  Na  Na20  1  0.64036757  0.91567621  0.24365011  1
  Na  Na21  1  0.64039645  0.91595027  0.49386021  1
  Na  Na22  1  0.64075444  0.91585982  0.74356885  1
  Na  Na23  1  0.64025159  0.91675786  0.99310375  1
  Na  Na24  1  0.36002730  0.08303881  0.00527252  1
  Na  Na25  1  0.36009246  0.08338626  0.25406113  1
  Na  Na26  1  0.35976348  0.08347362  0.50589645  1
  Na  Na27  1  0.35933943  0.08291260  0.75601021  1
  Na  Na28  1  0.35961276  0.41693087  0.00544154  1
  Na  Na29  1  0.35997688  0.41712850  0.25662728  1
  Na  Na30  1  0.36026772  0.41640612  0.50764327  1
  Na  Na31  1  0.36000447  0.41607253  0.75637177  1
  Na  Na32  1  0.35984442  0.75145861  0.00586245  1
  Na  Na33  1  0.36042304  0.75043363  0.25672751  1
  Na  Na34  1  0.36030821  0.75015549  0.50657619  1
  Na  Na35  1  0.35931031  0.75052947  0.75676011  1
  Na  Na36  1  0.85964036  0.08439678  0.00660862  1
  Na  Na37  1  0.86023445  0.08259936  0.25630174  1
  Na  Na38  1  0.85926049  0.08162546  0.50600406  1
  Na  Na39  1  0.85894787  0.08275635  0.75549771  1
  Na  Na40  1  0.85936353  0.41784474  0.00681501  1
  Na  Na41  1  0.85978499  0.41599687  0.25585735  1
  Na  Na42  1  0.85972546  0.41533518  0.50752022  1
  Na  Na43  1  0.85947735  0.41665940  0.75665915  1
  Na  Na44  1  0.85984871  0.75083630  0.00680924  1
  Na  Na45  1  0.85960333  0.75009054  0.25592116  1
  Na  Na46  1  0.85902810  0.74991486  0.50856148  1
  Na  Na47  1  0.85946427  0.74974255  0.75716558  1
  Na  Na48  1  0.10986648  0.08382417  0.11733933  1
  Na  Na49  1  0.10920575  0.08303707  0.36825416  1
  Na  Na50  1  0.10943244  0.08360065  0.61862938  1
  Na  Na51  1  0.10999035  0.08475585  0.86876190  1
  Na  Na52  1  0.10924828  0.41717236  0.11838741  1
  Na  Na53  1  0.10928242  0.41556786  0.36958840  1
  Na  Na54  1  0.10907369  0.41677645  0.62058917  1
  Na  Na55  1  0.10889571  0.41744193  0.86886778  1
  Na  Na56  1  0.10924154  0.75024615  0.11798599  1
  Na  Na57  1  0.10869395  0.75094774  0.36983160  1
  Na  Na58  1  0.10945995  0.74933728  0.61974017  1
  Na  Na59  1  0.10963622  0.74906983  0.86868291  1
  Na  Na60  1  0.61038723  0.08176812  0.11819922  1
  Na  Na61  1  0.61028251  0.08265057  0.36841058  1
  Na  Na62  1  0.61003734  0.08303580  0.61688253  1
  Na  Na63  1  0.61019591  0.08211295  0.86747099  1
  Na  Na64  1  0.61061712  0.41788242  0.11880954  1
  Na  Na65  1  0.60932549  0.41745192  0.36927040  1
  Na  Na66  1  0.60884530  0.41648202  0.61766474  1
  Na  Na67  1  0.61022935  0.41746524  0.86873526  1
  Na  Na68  1  0.60979015  0.75052644  0.11908009  1
  Na  Na69  1  0.60951898  0.74868880  0.36959867  1
  Na  Na70  1  0.60991344  0.74957797  0.61811176  1
  Na  Na71  1  0.61029409  0.75111554  0.86868201  1
  Na  Na72  1  0.39073365  0.25005912  0.13040604  1
  Na  Na73  1  0.39080139  0.25047974  0.38123799  1
  Na  Na74  1  0.39035224  0.24934519  0.63074530  1
  Na  Na75  1  0.39096365  0.24921827  0.88098055  1
  Na  Na76  1  0.39071557  0.58451821  0.13128668  1
  Na  Na77  1  0.39126504  0.58342388  0.38171277  1
  Na  Na78  1  0.39020457  0.58410763  0.63192351  1
  Na  Na79  1  0.39023385  0.58455631  0.88138265  1
  Na  Na80  1  0.39038190  0.91630615  0.12994040  1
  Na  Na81  1  0.39068731  0.91595554  0.38046849  1
  Na  Na82  1  0.39042138  0.91631263  0.63094653  1
  Na  Na83  1  0.39011069  0.91670259  0.88149648  1
  Na  Na84  1  0.89053391  0.25023460  0.13133717  1
  Na  Na85  1  0.89045833  0.24764604  0.38098029  1
  Na  Na86  1  0.89002657  0.25002535  0.63075178  1
  Na  Na87  1  0.89019088  0.25103623  0.88121647  1
  Na  Na88  1  0.89019217  0.58380992  0.13143882  1
  Na  Na89  1  0.89034255  0.58225856  0.38152955  1
  Na  Na90  1  0.88997311  0.58204802  0.63363954  1
  Na  Na91  1  0.88976657  0.58306063  0.88186404  1
  Na  Na92  1  0.89061855  0.91782633  0.13089764  1
  Na  Na93  1  0.89056115  0.91727346  0.38182811  1
  Na  Na94  1  0.88954073  0.91616394  0.63168905  1
  Na  Na95  1  0.88961321  0.91678719  0.88271433  1
  Mn  Mn96  1  0.75052258  0.49941565  0.37480608  1
  Mn  Mn97  1  0.50019394  0.50072867  -0.00012099  1
  Mn  Mn98  1  -0.00011163  0.16628416  0.50002502  1
  Mn  Mn99  1  0.50019992  0.16682845  0.74907806  1
  Mn  Mn100  1  0.50075296  0.66802466  0.00071608  1
  Mn  Mn101  1  0.00009539  0.83265416  0.75080042  1
  Mn  Mn102  1  -0.00032960  0.49871356  0.50142538  1
  Mn  Mn103  1  0.25024781  0.33303046  0.37502025  1
  Mn  Mn104  1  0.25050839  0.50045802  0.12470827  1
  Mn  Mn105  1  0.74991178  0.33183384  0.37550651  1
  Mn  Mn106  1  0.74967979  0.33262658  0.62471280  1
  Mn  Mn107  1  0.24979539  0.66718944  0.37515540  1
  Mn  Mn108  1  0.24984127  0.00056657  0.37426731  1
  Mn  Mn109  1  0.24998466  0.50041836  0.37586639  1
  Mn  Mn110  1  0.75009273  0.66702667  0.87508155  1
  Mn  Mn111  1  0.50170746  0.16621223  -0.00062963  1
  Mn  Mn112  1  0.25041338  0.66742103  0.12451736  1
  Mn  Mn113  1  0.50104606  0.33462911  0.25076931  1
  Mn  Mn114  1  0.24958675  0.83371295  0.37482180  1
  Mn  Mn115  1  -0.00098825  0.66651061  0.25047281  1
  Mn  Mn116  1  0.24962759  0.00052572  0.62507209  1
  Mn  Mn117  1  0.74974092  0.16606419  0.12457209  1
  Mn  Mn118  1  0.74995416  0.33473331  0.87386607  1
  Mn  Mn119  1  -0.00053799  0.16782051  0.74925241  1
  Mn  Mn120  1  -0.00043776  0.00000684  0.75063510  1
  Mn  Mn121  1  0.24988803  0.16638885  0.37419259  1
  Mn  Mn122  1  0.24965968  0.50069984  0.62621754  1
  Mn  Mn123  1  0.24957785  0.33293659  0.12469273  1
  Mn  Mn124  1  0.49994799  -0.00118067  0.74847919  1
  Mn  Mn125  1  0.50037273  0.66792589  0.75018502  1
  Mn  Mn126  1  -0.00011430  0.00077750  0.00020665  1
  Mn  Mn127  1  -0.00002653  0.50060336  -0.00049853  1
  Mn  Mn128  1  0.75056626  0.83422781  0.12543600  1
  Mn  Mn129  1  0.50016201  -0.00088189  0.49922757  1
  Mn  Mn130  1  0.24948425  0.33239547  0.62638664  1
  Mn  Mn131  1  0.50005969  -0.00104999  0.24977614  1
  Mn  Mn132  1  0.24980591  0.83300066  0.62524715  1
  Mn  Mn133  1  0.75067957  0.66598607  0.37572731  1
  Mn  Mn134  1  0.00009367  0.33286013  0.24970792  1
  Mn  Mn135  1  0.50062999  0.16671833  0.24944503  1
  Mn  Mn136  1  0.74958051  0.83346442  0.37572413  1
  Mn  Mn137  1  0.50024736  0.33384299  0.00014614  1
  Mn  Mn138  1  -0.00048649  0.83422045  0.24978686  1
  Mn  Mn139  1  0.25028278  0.33298140  0.87531863  1
  Mn  Mn140  1  -0.00033505  0.66646354  0.50051404  1
  Mn  Mn141  1  0.50018859  0.49967754  0.74974762  1
  Mn  Mn142  1  0.24938114  0.83447161  0.12456409  1
  Mn  Mn143  1  0.75019801  0.16616422  0.87473828  1
  Fe  Fe144  1  -0.00095251  0.66656776  0.75034981  1
  Fe  Fe145  1  0.25003149  0.50049190  0.87521569  1
  Fe  Fe146  1  0.50054143  -0.00093086  -0.00076011  1
  Fe  Fe147  1  0.25028608  0.66707159  0.87513718  1
  Fe  Fe148  1  0.75037941  0.66711440  0.12492199  1
  Fe  Fe149  1  0.24967971  0.00078299  0.87459498  1
  Fe  Fe150  1  0.50000507  0.83347876  0.00009893  1
  Fe  Fe151  1  0.00053717  0.16649363  0.24994782  1
  Fe  Fe152  1  0.00057179  0.00021338  0.24976771  1
  Fe  Fe153  1  0.75012683  0.83378245  0.87500922  1
  Fe  Fe154  1  0.75018865  -0.00049118  0.37554306  1
  Fe  Fe155  1  0.50055071  0.83280706  0.25011443  1
  Fe  Fe156  1  0.75014669  -0.00014473  0.12500903  1
  Fe  Fe157  1  -0.00003338  0.49975400  0.25009125  1
  Fe  Fe158  1  -0.00006963  0.33348218  0.75076623  1
  Fe  Fe159  1  0.75014912  0.16511078  0.37425690  1
  Fe  Fe160  1  -0.00060387  0.33375419  0.00025719  1
  Fe  Fe161  1  0.74968713  -0.00010925  0.87451023  1
  Fe  Fe162  1  0.74960565  0.49970779  0.62529374  1
  Fe  Fe163  1  0.75021282  0.66633612  0.62581783  1
  Fe  Fe164  1  0.49968005  0.16663323  0.49948276  1
  Fe  Fe165  1  0.49976366  0.66627545  0.49918026  1
  Fe  Fe166  1  0.50007598  0.33311393  0.74899165  1
  Fe  Fe167  1  0.25049829  0.16641676  0.87507653  1
  Fe  Fe168  1  -0.00017648  0.16731014  -0.00009076  1
  Fe  Fe169  1  -0.00106404  0.83316450  0.50060058  1
  Fe  Fe170  1  0.50027428  0.66702408  0.25054300  1
  Fe  Fe171  1  0.49987450  0.33325660  0.49947732  1
  Fe  Fe172  1  0.25050847  0.00064401  0.12354891  1
  Fe  Fe173  1  0.49985563  0.50056793  0.25059887  1
  Fe  Fe174  1  0.24980253  0.83387196  0.87483209  1
  Fe  Fe175  1  0.75045393  0.33327890  0.12475220  1
  Fe  Fe176  1  0.50008567  0.83240409  0.49983152  1
  Fe  Fe177  1  0.74944989  -0.00031044  0.62497530  1
  Fe  Fe178  1  -0.00030232  0.33280575  0.49992071  1
  Fe  Fe179  1  0.75046269  0.50009805  0.12504969  1
  Fe  Fe180  1  0.74987611  0.83363087  0.62584765  1
  Fe  Fe181  1  0.25066801  0.16643305  0.12364685  1
  Fe  Fe182  1  0.24982870  0.66686369  0.62616934  1
  Fe  Fe183  1  0.00001996  0.66663799  0.00030273  1
  Fe  Fe184  1  0.74973885  0.50080800  0.87549710  1
  Fe  Fe185  1  0.24926471  0.16636418  0.62546622  1
  Fe  Fe186  1  0.74990471  0.16557162  0.62446979  1
  Fe  Fe187  1  0.00031139  0.83333164  0.00033667  1
  Fe  Fe188  1  -0.00085646  0.49958471  0.75084145  1
  Fe  Fe189  1  0.49970103  0.50014776  0.50000955  1
  Fe  Fe190  1  0.49996242  0.83333764  0.74985973  1
  Fe  Fe191  1  -0.00017837  -0.00056378  0.49961876  1
  P  P192  1  0.04129924  0.25014795  0.10163930  1
  P  P193  1  0.04239118  0.24858941  0.35247046  1
  P  P194  1  0.04192879  0.25163537  0.60279203  1
  P  P195  1  0.04175182  0.25146331  0.85345076  1
  P  P196  1  0.04231483  0.58431394  0.10262748  1
  P  P197  1  0.04174916  0.58185306  0.35295902  1
  P  P198  1  0.04166902  0.58303923  0.60492244  1
  P  P199  1  0.04044904  0.58387258  0.85199354  1
  P  P200  1  0.04236101  0.91635168  0.10245822  1
  P  P201  1  0.04196479  0.91824832  0.35291920  1
  P  P202  1  0.04096278  0.91619143  0.60194320  1
  P  P203  1  0.04226930  0.91638830  0.85410858  1
  P  P204  1  0.54390845  0.25035643  0.10298954  1
  P  P205  1  0.54292258  0.25009533  0.35395657  1
  P  P206  1  0.54135621  0.25025731  0.60108742  1
  P  P207  1  0.54295835  0.25122353  0.85151468  1
  P  P208  1  0.54276981  0.58399847  0.10439207  1
  P  P209  1  0.54157024  0.58353620  0.35235622  1
  P  P210  1  0.54085201  0.58368480  0.60131627  1
  P  P211  1  0.54322309  0.58397342  0.85281853  1
  P  P212  1  0.54194936  0.91586476  0.10166708  1
  P  P213  1  0.54256052  0.91436126  0.35268511  1
  P  P214  1  0.54226573  0.91461102  0.60213817  1
  P  P215  1  0.54214247  0.91543275  0.85256338  1
  P  P216  1  0.45843409  0.08235257  0.14569355  1
  P  P217  1  0.45804335  0.08389908  0.39716160  1
  P  P218  1  0.45751686  0.08341614  0.64557044  1
  P  P219  1  0.45874993  0.08185703  0.89700568  1
  P  P220  1  0.45800660  0.41842711  0.14798130  1
  P  P221  1  0.45859975  0.41726912  0.39834169  1
  P  P222  1  0.45785264  0.41526176  0.64646997  1
  P  P223  1  0.45737969  0.41667112  0.89619525  1
  P  P224  1  0.45867061  0.75051509  0.14844146  1
  P  P225  1  0.45872886  0.74966923  0.39759450  1
  P  P226  1  0.45781958  0.75155843  0.64689102  1
  P  P227  1  0.45808797  0.75192744  0.89747746  1
  P  P228  1  0.95909797  0.08400176  0.14803950  1
  P  P229  1  0.95813312  0.08172309  0.39692859  1
  P  P230  1  0.95724197  0.08275638  0.64636345  1
  P  P231  1  0.95747837  0.08523221  0.89770820  1
  P  P232  1  0.95799513  0.41771305  0.14723805  1
  P  P233  1  0.95742032  0.41486816  0.39764631  1
  P  P234  1  0.95809770  0.41574218  0.64889766  1
  P  P235  1  0.95753907  0.41570144  0.89721131  1
  P  P236  1  0.95733111  0.75026177  0.14610423  1
  P  P237  1  0.95672587  0.75117871  0.39822645  1
  P  P238  1  0.95719493  0.74903059  0.64792136  1
  P  P239  1  0.95854668  0.74944056  0.89868158  1
  P  P240  1  0.20852406  0.08351225  0.22514792  1
  P  P241  1  0.20666860  0.08369173  0.47821498  1
  P  P242  1  0.20722419  0.08446111  0.72848814  1
  P  P243  1  0.20873447  0.08358270  0.97684624  1
  P  P244  1  0.20696835  0.41687183  0.22802242  1
  P  P245  1  0.20722710  0.41647045  0.47889788  1
  P  P246  1  0.20735735  0.41699549  0.72965285  1
  P  P247  1  0.20751973  0.41799489  0.97719911  1
  P  P248  1  0.20676960  0.75059228  0.22772909  1
  P  P249  1  0.20676258  0.74995433  0.47899863  1
  P  P250  1  0.20779409  0.74892310  0.72901557  1
  P  P251  1  0.20858783  0.75060632  0.97621853  1
  P  P252  1  0.70804959  0.08149585  0.22800041  1
  P  P253  1  0.70849707  0.08260900  0.47709256  1
  P  P254  1  0.70805550  0.08258897  0.72641338  1
  P  P255  1  0.70789202  0.08181237  0.97733145  1
  P  P256  1  0.70912671  0.41604221  0.22646585  1
  P  P257  1  0.70765446  0.41640620  0.47857338  1
  P  P258  1  0.70731604  0.41788300  0.72734456  1
  P  P259  1  0.70828352  0.41866635  0.97821103  1
  P  P260  1  0.70814068  0.74894123  0.22748906  1
  P  P261  1  0.70772109  0.74941755  0.47956962  1
  P  P262  1  0.70896459  0.75037626  0.72707316  1
  P  P263  1  0.70851235  0.75156421  0.97776395  1
  P  P264  1  0.29250888  0.24866996  0.02159694  1
  P  P265  1  0.29314080  0.24949236  0.27085137  1
  P  P266  1  0.29194169  0.24850195  0.52297567  1
  P  P267  1  0.29230764  0.24811434  0.77250931  1
  P  P268  1  0.29305294  0.58400022  0.02062522  1
  P  P269  1  0.29322563  0.58374107  0.27213372  1
  P  P270  1  0.29231601  0.58484849  0.52354942  1
  P  P271  1  0.29151638  0.58390358  0.77359491  1
  P  P272  1  0.29174796  0.91834006  0.02086183  1
  P  P273  1  0.29288770  0.91741982  0.27082461  1
  P  P274  1  0.29267562  0.91683937  0.52201485  1
  P  P275  1  0.29118718  0.91729598  0.77346282  1
  P  P276  1  0.79222137  0.25137190  0.02233779  1
  P  P277  1  0.79227029  0.24816223  0.27207880  1
  P  P278  1  0.79169373  0.24725879  0.52192477  1
  P  P279  1  0.79235991  0.24946429  0.77105149  1
  P  P280  1  0.79155504  0.58370274  0.02335013  1
  P  P281  1  0.79279201  0.58296818  0.27106474  1
  P  P282  1  0.79154466  0.58267446  0.52431886  1
  P  P283  1  0.79157291  0.58212358  0.77216821  1
  P  P284  1  0.79232334  0.91838821  0.02182766  1
  P  P285  1  0.79233488  0.91795912  0.27280014  1
  P  P286  1  0.79088056  0.91671657  0.52372144  1
  P  P287  1  0.79147179  0.91671058  0.77294426  1
  O  O288  1  0.03655636  0.24936093  0.18164670  1
  O  O289  1  0.03701628  0.24898692  0.43235378  1
  O  O290  1  0.03669862  0.25196694  0.68274940  1
  O  O291  1  0.03621133  0.25107324  0.93331406  1
  O  O292  1  0.03707504  0.58370313  0.18255384  1
  O  O293  1  0.03643766  0.58192307  0.43294468  1
  O  O294  1  0.03605829  0.58327806  0.68479098  1
  O  O295  1  0.03600822  0.58418253  0.93202002  1
  O  O296  1  0.03714859  0.91694628  0.18242599  1
  O  O297  1  0.03668241  0.91834230  0.43279713  1
  O  O298  1  0.03598855  0.91615924  0.68197751  1
  O  O299  1  0.03716586  0.91608372  0.93403779  1
  O  O300  1  0.53888390  0.25040880  0.18297554  1
  O  O301  1  0.53717941  0.24980543  0.43385912  1
  O  O302  1  0.53657194  0.25061355  0.68111423  1
  O  O303  1  0.53805201  0.25077503  0.93151466  1
  O  O304  1  0.53745676  0.58393844  0.18431079  1
  O  O305  1  0.53618124  0.58352101  0.43226267  1
  O  O306  1  0.53653364  0.58346858  0.68130240  1
  O  O307  1  0.53828440  0.58410230  0.93278392  1
  O  O308  1  0.53707744  0.91551491  0.18164284  1
  O  O309  1  0.53716616  0.91450924  0.43259774  1
  O  O310  1  0.53696610  0.91464581  0.68207353  1
  O  O311  1  0.53679653  0.91602399  0.93246626  1
  O  O312  1  0.46414304  0.08183590  0.06578071  1
  O  O313  1  0.46312949  0.08365946  0.31716190  1
  O  O314  1  0.46272336  0.08386916  0.56563356  1
  O  O315  1  0.46326442  0.08201517  0.81696365  1
  O  O316  1  0.46292319  0.41806828  0.06797467  1
  O  O317  1  0.46364658  0.41811663  0.31838717  1
  O  O318  1  0.46324350  0.41546435  0.56658403  1
  O  O319  1  0.46245762  0.41582730  0.81620548  1
  O  O320  1  0.46377091  0.75090735  0.06847060  1
  O  O321  1  0.46413375  0.74949395  0.31771271  1
  O  O322  1  0.46280071  0.75121110  0.56701248  1
  O  O323  1  0.46298427  0.75193703  0.81753385  1
  O  O324  1  0.96409398  0.08452329  0.06805177  1
  O  O325  1  0.96358664  0.08185633  0.31705186  1
  O  O326  1  0.96272322  0.08194109  0.56644833  1
  O  O327  1  0.96229888  0.08496634  0.81773116  1
  O  O328  1  0.96324821  0.41730392  0.06730800  1
  O  O329  1  0.96268341  0.41569572  0.31772989  1
  O  O330  1  0.96274814  0.41567742  0.56891808  1
  O  O331  1  0.96292278  0.41571359  0.81733955  1
  O  O332  1  0.96302623  0.75029044  0.06621437  1
  O  O333  1  0.96174326  0.75102452  0.31824000  1
  O  O334  1  0.96214127  0.74970043  0.56799124  1
  O  O335  1  0.96350377  0.74900196  0.81866305  1
  O  O336  1  0.21424609  0.08352409  0.05672429  1
  O  O337  1  0.21309804  0.08360451  0.30519138  1
  O  O338  1  0.21129670  0.08404298  0.55823771  1
  O  O339  1  0.21292454  0.08411482  0.80836471  1
  O  O340  1  0.21251028  0.41769587  0.05719856  1
  O  O341  1  0.21198096  0.41667289  0.30806237  1
  O  O342  1  0.21217101  0.41639038  0.55892810  1
  O  O343  1  0.21287793  0.41744218  0.80955374  1
  O  O344  1  0.21312336  0.75092184  0.05622956  1
  O  O345  1  0.21154963  0.75069904  0.30775936  1
  O  O346  1  0.21185393  0.74942545  0.55902746  1
  O  O347  1  0.21352842  0.74937264  0.80889179  1
  O  O348  1  0.71307007  0.08175161  0.05729048  1
  O  O349  1  0.71360426  0.08176049  0.30788665  1
  O  O350  1  0.71355872  0.08300641  0.55701348  1
  O  O351  1  0.71315197  0.08229297  0.80637471  1
  O  O352  1  0.71415924  0.41805537  0.05806985  1
  O  O353  1  0.71424635  0.41561197  0.30645942  1
  O  O354  1  0.71268727  0.41683152  0.55853407  1
  O  O355  1  0.71252011  0.41821338  0.80732790  1
  O  O356  1  0.71393013  0.75106838  0.05765784  1
  O  O357  1  0.71318552  0.74908245  0.30745461  1
  O  O358  1  0.71286579  0.74930495  0.55947055  1
  O  O359  1  0.71356941  0.75093047  0.80709821  1
  O  O360  1  0.28823062  0.24919268  0.19082440  1
  O  O361  1  0.28694827  0.24907279  0.44294644  1
  O  O362  1  0.28678404  0.24804416  0.69258874  1
  O  O363  1  0.28734279  0.24862783  0.94163086  1
  O  O364  1  0.28853496  0.58379091  0.19209278  1
  O  O365  1  0.28733787  0.58443984  0.44357975  1
  O  O366  1  0.28616976  0.58443730  0.69363519  1
  O  O367  1  0.28757318  0.58391816  0.94068318  1
  O  O368  1  0.28784615  0.91781450  0.19079830  1
  O  O369  1  0.28787392  0.91678725  0.44200015  1
  O  O370  1  0.28649773  0.91692999  0.69346871  1
  O  O371  1  0.28616613  0.91808691  0.94099570  1
  O  O372  1  0.78702239  0.24893766  0.19212888  1
  O  O373  1  0.78642992  0.24701895  0.44196924  1
  O  O374  1  0.78707197  0.24873960  0.69108797  1
  O  O375  1  0.78695352  0.25131312  0.94239170  1
  O  O376  1  0.78743013  0.58313615  0.19115359  1
  O  O377  1  0.78730527  0.58292035  0.44424415  1
  O  O378  1  0.78616227  0.58221889  0.69230708  1
  O  O379  1  0.78632603  0.58361920  0.94336961  1
  O  O380  1  0.78731600  0.91810833  0.19281063  1
  O  O381  1  0.78612445  0.91673377  0.44377080  1
  O  O382  1  0.78617153  0.91642388  0.69308118  1
  O  O383  1  0.78688210  0.91800899  0.94196104  1
  O  O384  1  0.22820376  0.24845186  0.05720169  1
  O  O385  1  0.22862048  0.24986145  0.30571474  1
  O  O386  1  0.22760794  0.24812392  0.55856586  1
  O  O387  1  0.22812782  0.24825970  0.80837548  1
  O  O388  1  0.22874369  0.58403406  0.05614444  1
  O  O389  1  0.22860251  0.58354021  0.30668656  1
  O  O390  1  0.22793638  0.58528995  0.55898095  1
  O  O391  1  0.22744573  0.58396605  0.80982905  1
  O  O392  1  0.22770291  0.91885746  0.05719496  1
  O  O393  1  0.22839469  0.91719625  0.30586696  1
  O  O394  1  0.22817868  0.91679729  0.55684111  1
  O  O395  1  0.22699854  0.91795731  0.80908582  1
  O  O396  1  0.72803264  0.25124300  0.05811631  1
  O  O397  1  0.72808109  0.24770217  0.30795730  1
  O  O398  1  0.72751381  0.24755349  0.55781301  1
  O  O399  1  0.72813131  0.24981603  0.80651466  1
  O  O400  1  0.72760856  0.58335311  0.05973402  1
  O  O401  1  0.72854350  0.58292440  0.30677367  1
  O  O402  1  0.72714557  0.58260037  0.55947240  1
  O  O403  1  0.72752305  0.58224827  0.80845285  1
  O  O404  1  0.72819551  0.91858359  0.05807279  1
  O  O405  1  0.72800364  0.91809405  0.30837673  1
  O  O406  1  0.72673320  0.91672601  0.55956473  1
  O  O407  1  0.72741784  0.91653189  0.80937975  1
  O  O408  1  0.27287078  0.08343202  0.18968733  1
  O  O409  1  0.27123403  0.08346990  0.44344770  1
  O  O410  1  0.27134777  0.08493383  0.69223251  1
  O  O411  1  0.27273532  0.08323169  0.94031141  1
  O  O412  1  0.27146630  0.41648213  0.19312756  1
  O  O413  1  0.27172437  0.41662142  0.44397767  1
  O  O414  1  0.27151590  0.41663313  0.69396795  1
  O  O415  1  0.27189478  0.41821269  0.94193578  1
  O  O416  1  0.27136149  0.75103912  0.19312209  1
  O  O417  1  0.27120796  0.75043101  0.44389144  1
  O  O418  1  0.27183659  0.74864691  0.69256763  1
  O  O419  1  0.27282826  0.75000030  0.94075748  1
  O  O420  1  0.77212729  0.08134822  0.19162085  1
  O  O421  1  0.77255397  0.08244561  0.44067149  1
  O  O422  1  0.77219577  0.08292366  0.69037823  1
  O  O423  1  0.77216282  0.08164154  0.94167561  1
  O  O424  1  0.77320845  0.41639635  0.19039689  1
  O  O425  1  0.77201879  0.41594644  0.44338673  1
  O  O426  1  0.77164089  0.41765088  0.69180066  1
  O  O427  1  0.77225256  0.41890863  0.94159805  1
  O  O428  1  0.77239936  0.74913621  0.19187260  1
  O  O429  1  0.77195894  0.74990757  0.44388655  1
  O  O430  1  0.77309476  0.75028584  0.69135718  1
  O  O431  1  0.77258501  0.75174552  0.94160560  1
  O  O432  1  0.02324437  0.08399737  0.18406938  1
  O  O433  1  0.02219437  0.08170661  0.43320136  1
  O  O434  1  0.02144635  0.08334266  0.68205192  1
  O  O435  1  0.02187070  0.08515729  0.93296905  1
  O  O436  1  0.02215670  0.41784553  0.18322147  1
  O  O437  1  0.02169855  0.41469812  0.43347478  1
  O  O438  1  0.02220130  0.41579248  0.68493049  1
  O  O439  1  0.02164402  0.41547559  0.93340677  1
  O  O440  1  0.02135947  0.75008028  0.18225699  1
  O  O441  1  0.02109652  0.75149805  0.43367276  1
  O  O442  1  0.02153962  0.74819746  0.68345074  1
  O  O443  1  0.02274164  0.74934424  0.93465606  1
  O  O444  1  0.52253615  0.08239009  0.18163410  1
  O  O445  1  0.52233189  0.08369124  0.43259747  1
  O  O446  1  0.52184973  0.08299909  0.68088469  1
  O  O447  1  0.52315675  0.08165579  0.93215983  1
  O  O448  1  0.52241645  0.41915955  0.18333415  1
  O  O449  1  0.52270375  0.41644908  0.43432456  1
  O  O450  1  0.52202182  0.41504767  0.68264337  1
  O  O451  1  0.52179851  0.41704419  0.93137958  1
  O  O452  1  0.52283662  0.75035061  0.18454816  1
  O  O453  1  0.52267522  0.74959213  0.43419742  1
  O  O454  1  0.52216953  0.75220492  0.68266921  1
  O  O455  1  0.52245566  0.75237195  0.93296177  1
  O  O456  1  0.47945165  0.24959460  0.06799813  1
  O  O457  1  0.47880777  0.25053828  0.31799178  1
  O  O458  1  0.47718422  0.25048374  0.56517876  1
  O  O459  1  0.47850994  0.25147381  0.81620506  1
  O  O460  1  0.47861709  0.58429242  0.06847099  1
  O  O461  1  0.47760370  0.58359959  0.31574880  1
  O  O462  1  0.47662271  0.58387631  0.56582581  1
  O  O463  1  0.47876726  0.58393619  0.81787162  1
  O  O464  1  0.47778849  0.91581868  0.06557364  1
  O  O465  1  0.47832657  0.91417197  0.31683560  1
  O  O466  1  0.47803726  0.91484063  0.56638033  1
  O  O467  1  0.47791851  0.91483247  0.81650666  1
  O  O468  1  0.97707163  0.25063759  0.06582543  1
  O  O469  1  0.97817530  0.24811222  0.31656193  1
  O  O470  1  0.97769652  0.25119662  0.56696125  1
  O  O471  1  0.97765871  0.25196011  0.81708523  1
  O  O472  1  0.97801230  0.58478721  0.06688526  1
  O  O473  1  0.97747677  0.58149505  0.31721546  1
  O  O474  1  0.97755626  0.58285703  0.56890151  1
  O  O475  1  0.97624736  0.58416939  0.81631137  1
  O  O476  1  0.97810772  0.91607292  0.06680983  1
  O  O477  1  0.97778220  0.91877562  0.31686835  1
  O  O478  1  0.97678414  0.91621461  0.56600083  1
  O  O479  1  0.97789827  0.91628540  0.81889658  1
  O  O480  1  0.07214057  0.31401576  0.07394270  1
  O  O481  1  0.07347299  0.31208956  0.32435246  1
  O  O482  1  0.07255378  0.31502570  0.57382324  1
  O  O483  1  0.07301349  0.31476030  0.82503160  1
  O  O484  1  0.07314924  0.64787802  0.07420094  1
  O  O485  1  0.07254379  0.64580132  0.32552643  1
  O  O486  1  0.07293526  0.64625723  0.57621705  1
  O  O487  1  0.07194121  0.64695512  0.82354110  1
  O  O488  1  0.07359968  0.97977576  0.07440559  1
  O  O489  1  0.07326841  0.98124235  0.32359013  1
  O  O490  1  0.07194149  0.97983488  0.57406956  1
  O  O491  1  0.07301659  0.98013853  0.82606165  1
  O  O492  1  0.57427784  0.31423135  0.07490218  1
  O  O493  1  0.57440290  0.31357429  0.32608477  1
  O  O494  1  0.57275184  0.31344583  0.57268762  1
  O  O495  1  0.57367382  0.31471871  0.82308866  1
  O  O496  1  0.57403554  0.64741651  0.07602042  1
  O  O497  1  0.57261910  0.64710484  0.32406369  1
  O  O498  1  0.57181318  0.64726519  0.57321821  1
  O  O499  1  0.57411757  0.64757865  0.82465624  1
  O  O500  1  0.57240072  0.97977639  0.07339116  1
  O  O501  1  0.57332695  0.97822056  0.32480859  1
  O  O502  1  0.57337700  0.97838079  0.57452569  1
  O  O503  1  0.57308498  0.97893080  0.82393008  1
  O  O504  1  0.42698833  0.01920499  0.17411962  1
  O  O505  1  0.42660987  0.02036904  0.42469559  1
  O  O506  1  0.42635085  0.01980401  0.67339949  1
  O  O507  1  0.42808734  0.01832701  0.92561388  1
  O  O508  1  0.42751320  0.35444422  0.17584611  1
  O  O509  1  0.42720779  0.35368867  0.42591537  1
  O  O510  1  0.42695095  0.35187247  0.67524059  1
  O  O511  1  0.42626535  0.35348715  0.92511453  1
  O  O512  1  0.42791972  0.68677429  0.17661762  1
  O  O513  1  0.42783726  0.68604946  0.42619783  1
  O  O514  1  0.42727575  0.68776059  0.67542630  1
  O  O515  1  0.42763162  0.68796138  0.92546113  1
  O  O516  1  0.92856393  0.01994013  0.17578737  1
  O  O517  1  0.92709565  0.01847230  0.42589065  1
  O  O518  1  0.92612834  0.01959102  0.67521820  1
  O  O519  1  0.92637682  0.02165571  0.92558119  1
  O  O520  1  0.92669102  0.35425082  0.17514407  1
  O  O521  1  0.92703888  0.35087971  0.42579844  1
  O  O522  1  0.92689904  0.35236350  0.67704770  1
  O  O523  1  0.92643504  0.35256937  0.92624713  1
  O  O524  1  0.92588236  0.68703125  0.17448967  1
  O  O525  1  0.92586101  0.68739430  0.42594741  1
  O  O526  1  0.92611359  0.68564846  0.67635426  1
  O  O527  1  0.92725192  0.68612823  0.92702570  1
  O  O528  1  0.17777754  0.01982043  0.19702074  1
  O  O529  1  0.17591587  0.02006052  0.44978998  1
  O  O530  1  0.17620885  0.02074274  0.70042779  1
  O  O531  1  0.17732723  0.02028040  0.94841863  1
  O  O532  1  0.17576471  0.35351832  0.19965816  1
  O  O533  1  0.17637722  0.35300887  0.45045070  1
  O  O534  1  0.17614895  0.35338766  0.70193561  1
  O  O535  1  0.17663394  0.35416959  0.94966076  1
  O  O536  1  0.17620585  0.68687477  0.19950274  1
  O  O537  1  0.17567041  0.68665050  0.45044453  1
  O  O538  1  0.17680672  0.68547133  0.70060958  1
  O  O539  1  0.17729183  0.68715994  0.94833574  1
  O  O540  1  0.67695676  0.01816428  0.19936784  1
  O  O541  1  0.67758653  0.01879511  0.44909095  1
  O  O542  1  0.67724660  0.01892922  0.69807769  1
  O  O543  1  0.67678882  0.01870641  0.94841125  1
  O  O544  1  0.67849684  0.35222805  0.19830321  1
  O  O545  1  0.67656909  0.35285180  0.45061897  1
  O  O546  1  0.67634476  0.35407228  0.69969722  1
  O  O547  1  0.67695221  0.35527926  0.94983763  1
  O  O548  1  0.67761849  0.68537520  0.19887957  1
  O  O549  1  0.67687831  0.68591922  0.45088744  1
  O  O550  1  0.67844054  0.68631021  0.69916046  1
  O  O551  1  0.67715819  0.68810774  0.94983882  1
  O  O552  1  0.32329563  0.31256901  0.04932434  1
  O  O553  1  0.32412680  0.31297982  0.29934647  1
  O  O554  1  0.32277499  0.31220364  0.55098514  1
  O  O555  1  0.32341825  0.31188404  0.80006967  1
  O  O556  1  0.32418637  0.64749297  0.04899235  1
  O  O557  1  0.32395939  0.64734759  0.30036655  1
  O  O558  1  0.32312222  0.64832710  0.55197450  1
  O  O559  1  0.32290217  0.64721936  0.80185189  1
  O  O560  1  0.32298948  0.98158813  0.04947423  1
  O  O561  1  0.32396512  0.98075749  0.29931769  1
  O  O562  1  0.32363706  0.98031219  0.55025110  1
  O  O563  1  0.32257601  0.98073201  0.80120619  1
  O  O564  1  0.82288284  0.31494654  0.05077124  1
  O  O565  1  0.82346781  0.31155167  0.30037974  1
  O  O566  1  0.82279310  0.31108495  0.54942845  1
  O  O567  1  0.82342282  0.31316578  0.79875059  1
  O  O568  1  0.82187343  0.64794708  0.05106925  1
  O  O569  1  0.82402718  0.64623606  0.29973536  1
  O  O570  1  0.82191873  0.64646899  0.55301441  1
  O  O571  1  0.82287699  0.64568643  0.80017376  1
  O  O572  1  0.82341736  0.98170591  0.05051159  1
  O  O573  1  0.82340341  0.98105530  0.30176778  1
  O  O574  1  0.82194033  0.98015815  0.55209499  1
  O  O575  1  0.82228010  0.98049836  0.80106748  1
  O  O576  1  0.42741743  0.14609250  0.17333088  1
  O  O577  1  0.42758686  0.14760969  0.42563017  1
  O  O578  1  0.42648290  0.14659543  0.67438356  1
  O  O579  1  0.42790333  0.14561774  0.92479755  1
  O  O580  1  0.42686189  0.48169698  0.17637299  1
  O  O581  1  0.42820586  0.48097187  0.42728380  1
  O  O582  1  0.42678572  0.47894964  0.67446372  1
  O  O583  1  0.42646518  0.48041993  0.92390301  1
  O  O584  1  0.42774303  0.81407900  0.17667553  1
  O  O585  1  0.42762289  0.81321677  0.42576827  1
  O  O586  1  0.42660160  0.81465645  0.67588658  1
  O  O587  1  0.42683740  0.81495152  0.92635276  1
  O  O588  1  0.92798498  0.14732123  0.17664406  1
  O  O589  1  0.92691148  0.14529515  0.42491757  1
  O  O590  1  0.92609402  0.14649952  0.67373354  1
  O  O591  1  0.92690890  0.14880355  0.92629195  1
  O  O592  1  0.92748711  0.48140791  0.17568728  1
  O  O593  1  0.92599941  0.47798681  0.42624436  1
  O  O594  1  0.92777846  0.47975234  0.67736900  1
  O  O595  1  0.92655058  0.47950407  0.92495907  1
  O  O596  1  0.92608342  0.81373026  0.17425757  1
  O  O597  1  0.92603898  0.81470303  0.42679438  1
  O  O598  1  0.92653304  0.81268078  0.67637926  1
  O  O599  1  0.92822926  0.81358866  0.92659170  1
  O  O600  1  0.07192032  0.18661024  0.07273462  1
  O  O601  1  0.07326172  0.18510394  0.32394829  1
  O  O602  1  0.07307433  0.18789234  0.57531790  1
  O  O603  1  0.07261963  0.18784352  0.82504767  1
  O  O604  1  0.07338135  0.52092371  0.07421439  1
  O  O605  1  0.07255732  0.51838958  0.32449293  1
  O  O606  1  0.07300945  0.51957926  0.57692500  1
  O  O607  1  0.07042410  0.51953624  0.82392127  1
  O  O608  1  0.07299334  0.85264122  0.07413948  1
  O  O609  1  0.07278427  0.85439910  0.32503568  1
  O  O610  1  0.07147307  0.85222555  0.57401482  1
  O  O611  1  0.07360383  0.85326308  0.82554987  1
  O  O612  1  0.57542955  0.18717725  0.07483695  1
  O  O613  1  0.57406808  0.18677262  0.32540872  1
  O  O614  1  0.57154610  0.18601261  0.57312571  1
  O  O615  1  0.57376818  0.18742819  0.82358704  1
  O  O616  1  0.57387625  0.52071231  0.07575658  1
  O  O617  1  0.57252022  0.51987345  0.32413561  1
  O  O618  1  0.57128817  0.51981606  0.57287527  1
  O  O619  1  0.57422960  0.52063487  0.82443077  1
  O  O620  1  0.57304866  0.85247939  0.07324646  1
  O  O621  1  0.57369559  0.85115297  0.32410894  1
  O  O622  1  0.57310401  0.85132681  0.57341360  1
  O  O623  1  0.57328136  0.85210915  0.82405601  1
  O  O624  1  0.32358103  0.18536333  0.05008685  1
  O  O625  1  0.32414429  0.18612852  0.29937709  1
  O  O626  1  0.32268149  0.18491897  0.55112121  1
  O  O627  1  0.32333144  0.18482107  0.80112337  1
  O  O628  1  0.32429002  0.52070854  0.04912490  1
  O  O629  1  0.32414323  0.52035781  0.30066830  1
  O  O630  1  0.32309333  0.52107678  0.55147075  1
  O  O631  1  0.32211147  0.51979438  0.80110357  1
  O  O632  1  0.32267210  0.85462582  0.04891155  1
  O  O633  1  0.32377204  0.85387703  0.29914336  1
  O  O634  1  0.32365382  0.85346394  0.55045208  1
  O  O635  1  0.32128396  0.85321524  0.80185475  1
  O  O636  1  0.82334515  0.18769348  0.04990980  1
  O  O637  1  0.82294535  0.18441062  0.30020208  1
  O  O638  1  0.82261435  0.18398508  0.55066113  1
  O  O639  1  0.82361276  0.18631268  0.79973287  1
  O  O640  1  0.82304644  0.52045279  0.05146837  1
  O  O641  1  0.82390692  0.51953010  0.29952799  1
  O  O642  1  0.82240419  0.51897439  0.55230404  1
  O  O643  1  0.82240491  0.51875858  0.80102924  1
  O  O644  1  0.82341842  0.85484921  0.05010754  1
  O  O645  1  0.82297111  0.85394820  0.30048425  1
  O  O646  1  0.82137815  0.85294333  0.55233120  1
  O  O647  1  0.82249171  0.85325430  0.80171319  1
  O  O648  1  0.17792926  0.14725266  0.19682474  1
  O  O649  1  0.17565771  0.14688998  0.44933834  1
  O  O650  1  0.17605353  0.14774765  0.69996100  1
  O  O651  1  0.17798388  0.14738397  0.94870216  1
  O  O652  1  0.17626568  0.48048624  0.19988593  1
  O  O653  1  0.17619316  0.48007844  0.45101512  1
  O  O654  1  0.17611700  0.48026610  0.70136032  1
  O  O655  1  0.17670434  0.48149932  0.94874504  1
  O  O656  1  0.17549159  0.81381737  0.19933669  1
  O  O657  1  0.17572837  0.81350440  0.45089057  1
  O  O658  1  0.17660943  0.81255133  0.70104416  1
  O  O659  1  0.17840297  0.81461899  0.94783783  1
  O  O660  1  0.67689439  0.14506949  0.19989798  1
  O  O661  1  0.67764226  0.14600303  0.44814965  1
  O  O662  1  0.67717934  0.14626536  0.69823282  1
  O  O663  1  0.67715673  0.14580165  0.94966920  1
  O  O664  1  0.67809947  0.47977393  0.19889809  1
  O  O665  1  0.67669593  0.47975050  0.44991809  1
  O  O666  1  0.67641584  0.48113978  0.69846693  1
  O  O667  1  0.67732806  0.48228161  0.95004953  1
  O  O668  1  0.67704264  0.81261113  0.19982031  1
  O  O669  1  0.67637331  0.81264650  0.45099256  1
  O  O670  1  0.67794031  0.81372053  0.69835448  1
  O  O671  1  0.67781739  0.81515215  0.94930651  1
