# generated using pymatgen
data_Na2MnFe(PO4)2
_symmetry_space_group_name_H-M   'P 1'
_cell_length_a   22.34670929
_cell_length_b   20.09728843
_cell_length_c   19.44747204
_cell_angle_alpha   89.96440695
_cell_angle_beta   90.01120956
_cell_angle_gamma   89.94317486
_symmetry_Int_Tables_number   1
_chemical_formula_structural   Na2MnFe(PO4)2
_chemical_formula_sum   'Na96 Mn48 Fe48 P96 O384'
_cell_volume   8734.01422061
_cell_formula_units_Z   48
loop_
 _symmetry_equiv_pos_site_id
 _symmetry_equiv_pos_as_xyz
  1  'x, y, z'
loop_
 _atom_site_type_symbol
 _atom_site_label
 _atom_site_symmetry_multiplicity
 _atom_site_fract_x
 _atom_site_fract_y
 _atom_site_fract_z
 _atom_site_occupancy
  Na  Na0  1  0.14037828  0.24923704  0.24377934  1
  Na  Na1  1  0.13981620  0.24935913  0.49245679  1
  Na  Na2  1  0.14007768  0.24950873  0.74354442  1
  Na  Na3  1  0.14075635  0.25054637  0.99193792  1
  Na  Na4  1  0.14047984  0.58365286  0.24336170  1
  Na  Na5  1  0.13995538  0.58488406  0.49304818  1
  Na  Na6  1  0.13990142  0.58388925  0.74283198  1
  Na  Na7  1  0.14058021  0.58399044  0.99318140  1
  Na  Na8  1  0.14002324  0.91554746  0.24280930  1
  Na  Na9  1  0.14043103  0.91758135  0.49346124  1
  Na  Na10  1  0.14030410  0.91633042  0.74341869  1
  Na  Na11  1  0.13999927  0.91736369  0.99272187  1
  Na  Na12  1  0.64059280  0.24924833  0.24390529  1
  Na  Na13  1  0.64032850  0.24920221  0.49425437  1
  Na  Na14  1  0.64057355  0.24913821  0.74452102  1
  Na  Na15  1  0.64069821  0.25005473  0.99385919  1
  Na  Na16  1  0.64058182  0.58373809  0.24404372  1
  Na  Na17  1  0.64014056  0.58313778  0.49547823  1
  Na  Na18  1  0.64045222  0.58359970  0.74586248  1
  Na  Na19  1  0.64068540  0.58536714  0.99350326  1
  Na  Na20  1  0.64042344  0.91703327  0.24345568  1
  Na  Na21  1  0.63951722  0.91712167  0.49489704  1
  Na  Na22  1  0.63953625  0.91595784  0.74413599  1
  Na  Na23  1  0.64027517  0.91803873  0.99337825  1
  Na  Na24  1  0.35963686  0.08237539  0.00573955  1
  Na  Na25  1  0.35901491  0.08149888  0.25581982  1
  Na  Na26  1  0.35911491  0.08174872  0.50635095  1
  Na  Na27  1  0.35921350  0.08180299  0.75753895  1
  Na  Na28  1  0.35902794  0.41739844  0.00495683  1
  Na  Na29  1  0.35951125  0.41602226  0.25633316  1
  Na  Na30  1  0.35970377  0.41644827  0.50690503  1
  Na  Na31  1  0.35901047  0.41564822  0.75714605  1
  Na  Na32  1  0.35918652  0.75135598  0.00646390  1
  Na  Na33  1  0.35928251  0.75164076  0.25537603  1
  Na  Na34  1  0.35892073  0.75172052  0.50714636  1
  Na  Na35  1  0.35929203  0.75039469  0.75699015  1
  Na  Na36  1  0.85995427  0.08363909  0.00561406  1
  Na  Na37  1  0.85993914  0.08333253  0.25512529  1
  Na  Na38  1  0.86063943  0.08251432  0.50594878  1
  Na  Na39  1  0.86006783  0.08143433  0.75568292  1
  Na  Na40  1  0.86038989  0.41759385  0.00717159  1
  Na  Na41  1  0.86078306  0.41652681  0.25676078  1
  Na  Na42  1  0.86071020  0.41632073  0.50695332  1
  Na  Na43  1  0.86020295  0.41588185  0.75790461  1
  Na  Na44  1  0.85977707  0.75160258  0.00582407  1
  Na  Na45  1  0.86007630  0.75075204  0.25556835  1
  Na  Na46  1  0.85991275  0.75009701  0.50595270  1
  Na  Na47  1  0.85995802  0.74899609  0.75731907  1
  Na  Na48  1  0.10976111  0.08314384  0.11721126  1
  Na  Na49  1  0.11028982  0.08300432  0.36760983  1
  Na  Na50  1  0.10963532  0.08315640  0.61784434  1
  Na  Na51  1  0.10993126  0.08344941  0.86745576  1
  Na  Na52  1  0.10955675  0.41710912  0.11863068  1
  Na  Na53  1  0.10939165  0.41652028  0.36910214  1
  Na  Na54  1  0.10900493  0.41625163  0.61853538  1
  Na  Na55  1  0.10993720  0.41786213  0.86807880  1
  Na  Na56  1  0.11003584  0.75078430  0.11718194  1
  Na  Na57  1  0.10974556  0.74915533  0.36835974  1
  Na  Na58  1  0.10990828  0.74921340  0.61758956  1
  Na  Na59  1  0.10965961  0.75190723  0.86790148  1
  Na  Na60  1  0.61012069  0.08337062  0.11786049  1
  Na  Na61  1  0.60969044  0.08128673  0.36912595  1
  Na  Na62  1  0.60944778  0.08283368  0.61927038  1
  Na  Na63  1  0.60960580  0.08384608  0.86894050  1
  Na  Na64  1  0.60928567  0.41746384  0.11873100  1
  Na  Na65  1  0.60944301  0.41559932  0.37010043  1
  Na  Na66  1  0.60949317  0.41610800  0.62084366  1
  Na  Na67  1  0.60965674  0.41766104  0.86919337  1
  Na  Na68  1  0.60975298  0.75112086  0.11822913  1
  Na  Na69  1  0.60937053  0.74979736  0.36937141  1
  Na  Na70  1  0.60924864  0.75049652  0.62108200  1
  Na  Na71  1  0.60964230  0.75078509  0.86835269  1
  Na  Na72  1  0.39003645  0.24912558  0.12972124  1
  Na  Na73  1  0.39014500  0.24824721  0.38148117  1
  Na  Na74  1  0.39033312  0.24910446  0.63114314  1
  Na  Na75  1  0.39013059  0.24957443  0.88152618  1
  Na  Na76  1  0.39021279  0.58539766  0.13073576  1
  Na  Na77  1  0.39048710  0.58282677  0.38120919  1
  Na  Na78  1  0.39008967  0.58338622  0.63237436  1
  Na  Na79  1  0.38972708  0.58403136  0.88115677  1
  Na  Na80  1  0.38938204  0.91731339  0.13109023  1
  Na  Na81  1  0.38915461  0.91582387  0.38148648  1
  Na  Na82  1  0.38956169  0.91624822  0.63255783  1
  Na  Na83  1  0.38952393  0.91675010  0.88197359  1
  Na  Na84  1  0.89113220  0.25128193  0.13067050  1
  Na  Na85  1  0.89157370  0.25010677  0.38142807  1
  Na  Na86  1  0.89107853  0.24892031  0.63095657  1
  Na  Na87  1  0.89083541  0.25043652  0.88223053  1
  Na  Na88  1  0.89062569  0.58359257  0.13121528  1
  Na  Na89  1  0.89147886  0.58205623  0.38129230  1
  Na  Na90  1  0.89081422  0.58209106  0.63190174  1
  Na  Na91  1  0.89065323  0.58412234  0.88293161  1
  Na  Na92  1  0.89043728  0.91759816  0.13058303  1
  Na  Na93  1  0.89050870  0.91647844  0.38122850  1
  Na  Na94  1  0.89035635  0.91652939  0.63091436  1
  Na  Na95  1  0.89059665  0.91708384  0.88104901  1
  Mn  Mn96  1  0.49995623  0.33236346  0.24960220  1
  Mn  Mn97  1  0.75059451  0.66708162  0.37529775  1
  Mn  Mn98  1  0.49930469  -0.00106374  0.24942572  1
  Mn  Mn99  1  0.49983282  0.49990766  0.25023761  1
  Mn  Mn100  1  0.75044565  0.50001672  0.37519979  1
  Mn  Mn101  1  0.24924554  0.66758471  0.87451196  1
  Mn  Mn102  1  0.49945255  0.66658980  0.50054215  1
  Mn  Mn103  1  0.00078091  0.16765146  -0.00083434  1
  Mn  Mn104  1  -0.00012288  0.83362675  0.74895844  1
  Mn  Mn105  1  0.75018583  0.83390647  0.12482339  1
  Mn  Mn106  1  0.25035351  0.50088609  0.37489540  1
  Mn  Mn107  1  0.75071458  0.16523680  0.37461187  1
  Mn  Mn108  1  0.00007782  0.83220170  0.50025035  1
  Mn  Mn109  1  0.74949378  0.83459079  0.37518847  1
  Mn  Mn110  1  0.50031320  0.66775001  0.25082584  1
  Mn  Mn111  1  0.49988789  0.83397648  -0.00055650  1
  Mn  Mn112  1  0.49995679  0.16540769  0.25048758  1
  Mn  Mn113  1  0.24908660  0.50080676  0.62500772  1
  Mn  Mn114  1  0.00059184  0.66636414  0.24922738  1
  Mn  Mn115  1  -0.00014282  0.16667682  0.74968128  1
  Mn  Mn116  1  0.75047957  0.66660522  0.62614411  1
  Mn  Mn117  1  0.00019919  0.66757437  0.00050473  1
  Mn  Mn118  1  0.75050374  0.33281402  0.87585773  1
  Mn  Mn119  1  0.24992911  0.50086536  0.12479019  1
  Mn  Mn120  1  0.49941357  0.33314380  -0.00008285  1
  Mn  Mn121  1  -0.00029865  0.50009802  0.75008208  1
  Mn  Mn122  1  0.24984849  0.33228759  0.37516892  1
  Mn  Mn123  1  0.75027481  0.49980681  0.62607998  1
  Mn  Mn124  1  0.24992410  0.16531884  0.62483367  1
  Mn  Mn125  1  0.25009550  0.33282591  0.12429475  1
  Mn  Mn126  1  0.24978246  0.33270612  0.62527913  1
  Mn  Mn127  1  0.74981829  0.00009091  0.87508300  1
  Mn  Mn128  1  0.75013991  0.50114981  0.12568345  1
  Mn  Mn129  1  0.00029201  0.16774932  0.24922503  1
  Mn  Mn130  1  0.75053840  0.16482161  0.62446118  1
  Mn  Mn131  1  0.25011366  0.16520654  0.12387057  1
  Mn  Mn132  1  0.74956709  0.83372011  0.62523507  1
  Mn  Mn133  1  0.49917354  0.50009803  0.75038496  1
  Mn  Mn134  1  0.75061328  0.33287395  0.37512086  1
  Mn  Mn135  1  0.75006451  0.33306272  0.12510214  1
  Mn  Mn136  1  0.25070827  0.66867444  0.37429638  1
  Mn  Mn137  1  0.49961230  0.16666287  0.74984363  1
  Mn  Mn138  1  0.49914810  0.83369511  0.50091312  1
  Mn  Mn139  1  0.00002502  -0.00050838  0.24918852  1
  Mn  Mn140  1  0.49929389  0.50139887  -0.00062201  1
  Mn  Mn141  1  0.75020676  0.33238984  0.62626710  1
  Mn  Mn142  1  0.50019077  0.49849523  0.50162235  1
  Mn  Mn143  1  0.50007823  0.16568781  0.50073542  1
  Fe  Fe144  1  0.24951741  0.83411468  0.62545298  1
  Fe  Fe145  1  0.75041265  0.66761547  0.12450743  1
  Fe  Fe146  1  0.00006542  0.00038310  -0.00069341  1
  Fe  Fe147  1  0.49981492  0.66709067  0.75068000  1
  Fe  Fe148  1  0.74996380  -0.00073816  0.62559427  1
  Fe  Fe149  1  0.24973105  0.16569745  0.87482688  1
  Fe  Fe150  1  0.49924141  0.00024303  0.75051045  1
  Fe  Fe151  1  0.25002934  0.66765756  0.12419125  1
  Fe  Fe152  1  0.24936196  -0.00062805  0.62563604  1
  Fe  Fe153  1  0.24887307  -0.00059033  0.12493744  1
  Fe  Fe154  1  0.00070450  0.49946948  0.25067656  1
  Fe  Fe155  1  0.75022998  0.16604442  0.87510739  1
  Fe  Fe156  1  0.00010329  0.83425305  -0.00123848  1
  Fe  Fe157  1  0.24996499  0.50077555  0.87437498  1
  Fe  Fe158  1  0.00077889  0.33454465  0.00045510  1
  Fe  Fe159  1  0.49994200  0.83392653  0.24968829  1
  Fe  Fe160  1  0.24966711  -0.00089488  0.87515644  1
  Fe  Fe161  1  0.00068277  0.50019048  0.00029416  1
  Fe  Fe162  1  0.00083068  0.33423559  0.25058758  1
  Fe  Fe163  1  0.00053446  0.16625389  0.49985484  1
  Fe  Fe164  1  0.49965040  0.66795595  0.00021376  1
  Fe  Fe165  1  0.00012491  0.33325409  0.74955987  1
  Fe  Fe166  1  0.75083772  0.16649181  0.12511543  1
  Fe  Fe167  1  0.24924187  0.83356932  0.87543108  1
  Fe  Fe168  1  0.00018530  0.00024961  0.74939178  1
  Fe  Fe169  1  0.00010437  0.33298954  0.49997947  1
  Fe  Fe170  1  0.75042941  0.83369317  0.87498825  1
  Fe  Fe171  1  0.75027308  0.00013582  0.37431571  1
  Fe  Fe172  1  0.24896769  0.83407244  0.37516388  1
  Fe  Fe173  1  0.49973486  -0.00084325  0.50058144  1
  Fe  Fe174  1  0.24975513  -0.00081068  0.37533732  1
  Fe  Fe175  1  0.25023692  0.66756702  0.62505211  1
  Fe  Fe176  1  0.00017249  0.49916936  0.50034079  1
  Fe  Fe177  1  0.00015786  0.83318177  0.24957999  1
  Fe  Fe178  1  0.49971326  0.33301558  0.75049375  1
  Fe  Fe179  1  0.50029655  0.16646972  -0.00048645  1
  Fe  Fe180  1  0.75024939  0.66714194  0.87551139  1
  Fe  Fe181  1  0.25012459  0.16540061  0.37427153  1
  Fe  Fe182  1  0.49907601  0.83372681  0.75108254  1
  Fe  Fe183  1  0.49981608  0.33232046  0.50026455  1
  Fe  Fe184  1  0.24956012  0.33317944  0.87443456  1
  Fe  Fe185  1  0.24971006  0.83414193  0.12515526  1
  Fe  Fe186  1  0.75011110  0.00060357  0.12395026  1
  Fe  Fe187  1  -0.00043549  0.66568194  0.49918744  1
  Fe  Fe188  1  0.00022206  0.66652749  0.74953069  1
  Fe  Fe189  1  0.00036063  -0.00065037  0.49927229  1
  Fe  Fe190  1  0.75024331  0.50039213  0.87640496  1
  Fe  Fe191  1  0.49986915  0.00001775  -0.00004975  1
  P  P192  1  0.04304991  0.25221098  0.10237333  1
  P  P193  1  0.04234780  0.25130027  0.35308535  1
  P  P194  1  0.04156310  0.24982299  0.60156222  1
  P  P195  1  0.04205926  0.25183040  0.85238393  1
  P  P196  1  0.04245388  0.58214016  0.10265231  1
  P  P197  1  0.04255605  0.58196334  0.35287528  1
  P  P198  1  0.04109604  0.58324315  0.60152083  1
  P  P199  1  0.04209991  0.58493546  0.85252851  1
  P  P200  1  0.04130209  0.91668042  0.10098671  1
  P  P201  1  0.04202474  0.91521858  0.35235198  1
  P  P202  1  0.04199379  0.91769240  0.60225893  1
  P  P203  1  0.04182594  0.91823262  0.85224821  1
  P  P204  1  0.54236495  0.24853470  0.10205856  1
  P  P205  1  0.54284964  0.24909046  0.35384389  1
  P  P206  1  0.54223631  0.25089380  0.60325274  1
  P  P207  1  0.54205192  0.25050079  0.85286968  1
  P  P208  1  0.54219133  0.58555850  0.10223825  1
  P  P209  1  0.54302177  0.58285073  0.35368800  1
  P  P210  1  0.54230142  0.58359269  0.60460229  1
  P  P211  1  0.54157022  0.58525811  0.85313350  1
  P  P212  1  0.54216387  0.91761844  0.10230606  1
  P  P213  1  0.54206525  0.91527526  0.35274419  1
  P  P214  1  0.54132837  0.91781371  0.60419360  1
  P  P215  1  0.54074195  0.91759549  0.85219509  1
  P  P216  1  0.45727728  0.08310437  0.14569097  1
  P  P217  1  0.45743269  0.08096097  0.39805519  1
  P  P218  1  0.45726462  0.08177968  0.64762959  1
  P  P219  1  0.45853213  0.08283699  0.89799971  1
  P  P220  1  0.45665237  0.41678824  0.14660331  1
  P  P221  1  0.45740866  0.41473290  0.39809459  1
  P  P222  1  0.45715651  0.41451539  0.64786823  1
  P  P223  1  0.45694647  0.41669288  0.89629777  1
  P  P224  1  0.45785508  0.75187798  0.14723451  1
  P  P225  1  0.45660436  0.75051498  0.39708853  1
  P  P226  1  0.45804122  0.75030090  0.64942655  1
  P  P227  1  0.45752749  0.74942174  0.89699767  1
  P  P228  1  0.95808806  0.08370321  0.14577034  1
  P  P229  1  0.95959637  0.08301588  0.39793553  1
  P  P230  1  0.95843935  0.08201101  0.64629086  1
  P  P231  1  0.95833768  0.08248152  0.89673445  1
  P  P232  1  0.95917734  0.41709531  0.14819355  1
  P  P233  1  0.95910821  0.41631355  0.39816295  1
  P  P234  1  0.95786055  0.41503195  0.64721820  1
  P  P235  1  0.95904491  0.41706787  0.89854886  1
  P  P236  1  0.95840867  0.75179363  0.14665538  1
  P  P237  1  0.95795602  0.74853104  0.39689628  1
  P  P238  1  0.95786151  0.74805682  0.64690626  1
  P  P239  1  0.95811957  0.75155021  0.89699048  1
  P  P240  1  0.20736279  0.08143599  0.22756891  1
  P  P241  1  0.20847073  0.08280038  0.47644777  1
  P  P242  1  0.20771809  0.08152259  0.72825633  1
  P  P243  1  0.20827864  0.08249755  0.97631500  1
  P  P244  1  0.20744328  0.41636545  0.22774118  1
  P  P245  1  0.20734444  0.41709605  0.47799742  1
  P  P246  1  0.20712916  0.41664546  0.72890170  1
  P  P247  1  0.20887080  0.41733198  0.97586262  1
  P  P248  1  0.20830423  0.75056611  0.22619349  1
  P  P249  1  0.20766853  0.75223359  0.47809736  1
  P  P250  1  0.20814973  0.75061204  0.72660799  1
  P  P251  1  0.20744259  0.75176044  0.97797901  1
  P  P252  1  0.70875299  0.08282072  0.22639632  1
  P  P253  1  0.70793679  0.08112213  0.47770121  1
  P  P254  1  0.70761209  0.08166860  0.72794308  1
  P  P255  1  0.70802803  0.08478327  0.97819970  1
  P  P256  1  0.70727647  0.41667653  0.22829723  1
  P  P257  1  0.70751503  0.41626399  0.47885085  1
  P  P258  1  0.70780001  0.41664608  0.72997390  1
  P  P259  1  0.70792878  0.41800259  0.97806600  1
  P  P260  1  0.70777836  0.74946115  0.22708773  1
  P  P261  1  0.70692784  0.75059374  0.47853497  1
  P  P262  1  0.70761165  0.75011199  0.72971931  1
  P  P263  1  0.70881546  0.75086416  0.97677651  1
  P  P264  1  0.29221629  0.24928279  0.02010400  1
  P  P265  1  0.29235429  0.24773379  0.27219260  1
  P  P266  1  0.29232877  0.24871616  0.52147034  1
  P  P267  1  0.29106074  0.24890652  0.77353849  1
  P  P268  1  0.29187124  0.58513717  0.02160626  1
  P  P269  1  0.29300581  0.58466103  0.27103182  1
  P  P270  1  0.29225576  0.58555142  0.52273735  1
  P  P271  1  0.29167866  0.58327758  0.77202749  1
  P  P272  1  0.29066646  0.91700719  0.02282755  1
  P  P273  1  0.29050840  0.91637743  0.27291714  1
  P  P274  1  0.29086959  0.91697697  0.52348613  1
  P  P275  1  0.29075136  0.91580243  0.77327910  1
  P  P276  1  0.79247716  0.24856557  0.02230650  1
  P  P277  1  0.79351507  0.24899921  0.27137474  1
  P  P278  1  0.79332257  0.24919946  0.52208124  1
  P  P279  1  0.79281445  0.24778450  0.77300455  1
  P  P280  1  0.79226602  0.58531596  0.02195244  1
  P  P281  1  0.79352922  0.58414683  0.27151908  1
  P  P282  1  0.79337709  0.58334834  0.52259356  1
  P  P283  1  0.79206831  0.58302414  0.77473064  1
  P  P284  1  0.79219546  0.91792135  0.02186313  1
  P  P285  1  0.79253485  0.91845796  0.27170336  1
  P  P286  1  0.79232987  0.91825692  0.52224341  1
  P  P287  1  0.79230203  0.91569077  0.77243042  1
  O  O288  1  0.03773506  0.25212616  0.18232203  1
  O  O289  1  0.03681782  0.25072637  0.43295781  1
  O  O290  1  0.03662506  0.24943671  0.68153918  1
  O  O291  1  0.03689826  0.25200176  0.93232306  1
  O  O292  1  0.03747313  0.58164272  0.18258987  1
  O  O293  1  0.03691093  0.58252927  0.43272490  1
  O  O294  1  0.03615658  0.58368661  0.68153011  1
  O  O295  1  0.03718245  0.58471637  0.93245149  1
  O  O296  1  0.03644845  0.91605517  0.18098309  1
  O  O297  1  0.03677148  0.91567918  0.43229055  1
  O  O298  1  0.03659446  0.91815828  0.68217353  1
  O  O299  1  0.03642534  0.91801825  0.93214682  1
  O  O300  1  0.53753405  0.24845388  0.18208083  1
  O  O301  1  0.53771732  0.24943946  0.43383827  1
  O  O302  1  0.53675371  0.25084207  0.68320216  1
  O  O303  1  0.53666422  0.24947456  0.93277223  1
  O  O304  1  0.53720775  0.58518510  0.18222172  1
  O  O305  1  0.53783011  0.58254701  0.43367854  1
  O  O306  1  0.53681312  0.58404152  0.68455690  1
  O  O307  1  0.53632476  0.58571067  0.93306369  1
  O  O308  1  0.53703047  0.91654124  0.18223132  1
  O  O309  1  0.53717329  0.91596022  0.43273133  1
  O  O310  1  0.53578886  0.91778900  0.68404823  1
  O  O311  1  0.53604969  0.91760377  0.93217797  1
  O  O312  1  0.46269228  0.08334602  0.06577963  1
  O  O313  1  0.46239584  0.08120213  0.31805416  1
  O  O314  1  0.46265349  0.08156152  0.56772622  1
  O  O315  1  0.46308567  0.08276115  0.81796780  1
  O  O316  1  0.46164604  0.41719070  0.06658294  1
  O  O317  1  0.46252482  0.41526302  0.31806717  1
  O  O318  1  0.46247405  0.41441190  0.56789158  1
  O  O319  1  0.46221602  0.41618864  0.81635483  1
  O  O320  1  0.46293336  0.75137738  0.06724907  1
  O  O321  1  0.46183292  0.75109018  0.31714282  1
  O  O322  1  0.46253556  0.75064531  0.56942813  1
  O  O323  1  0.46277518  0.74965904  0.81711980  1
  O  O324  1  0.96354449  0.08345154  0.06585175  1
  O  O325  1  0.96420764  0.08339557  0.31793164  1
  O  O326  1  0.96402251  0.08209169  0.56641589  1
  O  O327  1  0.96361915  0.08236483  0.81676284  1
  O  O328  1  0.96444260  0.41723745  0.06827341  1
  O  O329  1  0.96444776  0.41684433  0.31827751  1
  O  O330  1  0.96305951  0.41510750  0.56738034  1
  O  O331  1  0.96326375  0.41710398  0.81858570  1
  O  O332  1  0.96373626  0.75212243  0.06671091  1
  O  O333  1  0.96340122  0.74922875  0.31696883  1
  O  O334  1  0.96301181  0.74768422  0.56694625  1
  O  O335  1  0.96315279  0.75090397  0.81705951  1
  O  O336  1  0.21280859  0.08190991  0.05628982  1
  O  O337  1  0.21280142  0.08188768  0.30743229  1
  O  O338  1  0.21296542  0.08231122  0.55643373  1
  O  O339  1  0.21309237  0.08199512  0.80810790  1
  O  O340  1  0.21392207  0.41697289  0.05583623  1
  O  O341  1  0.21259683  0.41642657  0.30768922  1
  O  O342  1  0.21224746  0.41702904  0.55801891  1
  O  O343  1  0.21263493  0.41699083  0.80881263  1
  O  O344  1  0.21287864  0.75138086  0.05778602  1
  O  O345  1  0.21300760  0.75126305  0.30617173  1
  O  O346  1  0.21312016  0.75179722  0.55795882  1
  O  O347  1  0.21300083  0.75082182  0.80659333  1
  O  O348  1  0.71353730  0.08466991  0.05805555  1
  O  O349  1  0.71388771  0.08213225  0.30639594  1
  O  O350  1  0.71292050  0.08081311  0.55768464  1
  O  O351  1  0.71273669  0.08246017  0.80789581  1
  O  O352  1  0.71284705  0.41777205  0.05804862  1
  O  O353  1  0.71240502  0.41657268  0.30828304  1
  O  O354  1  0.71257356  0.41607197  0.55892293  1
  O  O355  1  0.71324757  0.41713719  0.80994593  1
  O  O356  1  0.71389683  0.75028661  0.05674849  1
  O  O357  1  0.71279037  0.75006235  0.30703499  1
  O  O358  1  0.71201461  0.75057889  0.55855106  1
  O  O359  1  0.71299069  0.75049813  0.80962170  1
  O  O360  1  0.28713019  0.24804392  0.19217296  1
  O  O361  1  0.28726921  0.24817079  0.44151486  1
  O  O362  1  0.28629333  0.24908903  0.69350887  1
  O  O363  1  0.28664533  0.24930670  0.94022465  1
  O  O364  1  0.28753595  0.58498401  0.19107467  1
  O  O365  1  0.28752637  0.58557343  0.44269080  1
  O  O366  1  0.28637370  0.58407492  0.69210835  1
  O  O367  1  0.28616975  0.58442179  0.94166074  1
  O  O368  1  0.28566402  0.91679412  0.19304590  1
  O  O369  1  0.28587732  0.91693318  0.44362527  1
  O  O370  1  0.28574886  0.91596163  0.69342791  1
  O  O371  1  0.28575193  0.91658472  0.94295508  1
  O  O372  1  0.78839267  0.24868010  0.19137037  1
  O  O373  1  0.78848988  0.24929003  0.44207768  1
  O  O374  1  0.78761110  0.24810448  0.69303252  1
  O  O375  1  0.78703252  0.24842275  0.94235626  1
  O  O376  1  0.78831107  0.58477252  0.19151260  1
  O  O377  1  0.78853950  0.58328294  0.44260106  1
  O  O378  1  0.78756449  0.58306779  0.69470592  1
  O  O379  1  0.78656204  0.58462186  0.94207048  1
  O  O380  1  0.78737753  0.91849814  0.19171333  1
  O  O381  1  0.78721690  0.91840637  0.44224109  1
  O  O382  1  0.78700282  0.91640176  0.69249606  1
  O  O383  1  0.78690888  0.91702825  0.94194923  1
  O  O384  1  0.22810373  0.24921969  0.05609830  1
  O  O385  1  0.22806600  0.24742653  0.30781108  1
  O  O386  1  0.22794904  0.24884200  0.55671156  1
  O  O387  1  0.22685324  0.24830419  0.80914657  1
  O  O388  1  0.22778526  0.58566821  0.05777066  1
  O  O389  1  0.22873239  0.58469173  0.30654426  1
  O  O390  1  0.22779329  0.58585530  0.55785441  1
  O  O391  1  0.22743255  0.58271515  0.80774294  1
  O  O392  1  0.22660034  0.91733637  0.05905958  1
  O  O393  1  0.22644805  0.91594509  0.30916687  1
  O  O394  1  0.22676338  0.91676684  0.55976110  1
  O  O395  1  0.22667536  0.91540618  0.80947332  1
  O  O396  1  0.72832298  0.24839490  0.05822418  1
  O  O397  1  0.72914353  0.24903275  0.30656688  1
  O  O398  1  0.72886059  0.24905160  0.55703602  1
  O  O399  1  0.72847650  0.24812780  0.80846660  1
  O  O400  1  0.72821631  0.58591156  0.05832425  1
  O  O401  1  0.72911134  0.58375584  0.30663997  1
  O  O402  1  0.72885659  0.58338085  0.55743602  1
  O  O403  1  0.72774451  0.58275749  0.81009260  1
  O  O404  1  0.72800296  0.91826705  0.05769113  1
  O  O405  1  0.72816978  0.91882252  0.30727927  1
  O  O406  1  0.72799657  0.91842075  0.55788689  1
  O  O407  1  0.72804127  0.91519460  0.80813037  1
  O  O408  1  0.27151961  0.08078407  0.19141627  1
  O  O409  1  0.27265260  0.08340781  0.44064929  1
  O  O410  1  0.27185979  0.08108904  0.69217795  1
  O  O411  1  0.27249154  0.08314973  0.94060976  1
  O  O412  1  0.27179199  0.41660953  0.19255686  1
  O  O413  1  0.27176706  0.41665837  0.44302899  1
  O  O414  1  0.27131497  0.41699127  0.69314395  1
  O  O415  1  0.27285466  0.41774906  0.93970364  1
  O  O416  1  0.27245101  0.75005541  0.19024317  1
  O  O417  1  0.27181079  0.75308125  0.44190903  1
  O  O418  1  0.27238177  0.75083291  0.69084509  1
  O  O419  1  0.27155066  0.75184223  0.94179401  1
  O  O420  1  0.77290748  0.08274870  0.19033602  1
  O  O421  1  0.77231710  0.08084079  0.44214329  1
  O  O422  1  0.77195680  0.08074390  0.69237206  1
  O  O423  1  0.77215164  0.08462078  0.94201636  1
  O  O424  1  0.77176695  0.41676442  0.19341928  1
  O  O425  1  0.77202573  0.41641049  0.44390133  1
  O  O426  1  0.77210411  0.41632012  0.69457534  1
  O  O427  1  0.77232500  0.41792488  0.94280157  1
  O  O428  1  0.77216907  0.74927476  0.19166580  1
  O  O429  1  0.77138630  0.75099542  0.44356241  1
  O  O430  1  0.77182307  0.75042721  0.69396793  1
  O  O431  1  0.77293207  0.75135165  0.94072712  1
  O  O432  1  0.02222866  0.08348907  0.18152342  1
  O  O433  1  0.02373646  0.08249893  0.43368786  1
  O  O434  1  0.02246732  0.08221129  0.68269710  1
  O  O435  1  0.02254236  0.08249926  0.93258567  1
  O  O436  1  0.02320742  0.41693225  0.18473749  1
  O  O437  1  0.02301696  0.41555640  0.43481293  1
  O  O438  1  0.02204071  0.41535281  0.68328866  1
  O  O439  1  0.02339230  0.41644313  0.93401797  1
  O  O440  1  0.02260951  0.75155827  0.18253840  1
  O  O441  1  0.02212162  0.74814249  0.43287952  1
  O  O442  1  0.02215520  0.74832436  0.68257580  1
  O  O443  1  0.02236307  0.75164810  0.93270637  1
  O  O444  1  0.52151822  0.08256687  0.18140920  1
  O  O445  1  0.52176671  0.08076447  0.43357809  1
  O  O446  1  0.52150365  0.08188445  0.68341542  1
  O  O447  1  0.52272803  0.08224514  0.93378790  1
  O  O448  1  0.52117612  0.41646441  0.18149502  1
  O  O449  1  0.52175289  0.41428949  0.43367830  1
  O  O450  1  0.52138741  0.41491725  0.68368198  1
  O  O451  1  0.52119371  0.41703058  0.93178153  1
  O  O452  1  0.52212606  0.75228792  0.18296247  1
  O  O453  1  0.52096167  0.75036297  0.43240329  1
  O  O454  1  0.52225035  0.75023099  0.68503440  1
  O  O455  1  0.52175922  0.74914622  0.93295027  1
  O  O456  1  0.47797912  0.24843709  0.06683145  1
  O  O457  1  0.47843607  0.24907882  0.31862275  1
  O  O458  1  0.47806288  0.25062456  0.56721999  1
  O  O459  1  0.47780526  0.25105255  0.81699112  1
  O  O460  1  0.47776413  0.58600310  0.06685069  1
  O  O461  1  0.47859518  0.58349999  0.31856903  1
  O  O462  1  0.47803880  0.58298171  0.56907594  1
  O  O463  1  0.47737016  0.58510025  0.81729176  1
  O  O464  1  0.47784770  0.91824702  0.06672156  1
  O  O465  1  0.47761908  0.91471193  0.31736254  1
  O  O466  1  0.47719856  0.91815844  0.56791440  1
  O  O467  1  0.47648884  0.91785895  0.81656120  1
  O  O468  1  0.97881299  0.25219203  0.06654475  1
  O  O469  1  0.97835844  0.25216771  0.31656009  1
  O  O470  1  0.97750394  0.25028910  0.56548104  1
  O  O471  1  0.97782448  0.25162090  0.81658394  1
  O  O472  1  0.97820938  0.58276154  0.06700873  1
  O  O473  1  0.97857325  0.58190873  0.31634610  1
  O  O474  1  0.97702790  0.58330296  0.56545571  1
  O  O475  1  0.97779162  0.58527652  0.81686229  1
  O  O476  1  0.97717419  0.91721643  0.06501412  1
  O  O477  1  0.97782068  0.91507023  0.31643132  1
  O  O478  1  0.97787847  0.91741834  0.56623544  1
  O  O479  1  0.97777322  0.91823940  0.81596649  1
  O  O480  1  0.07392695  0.31553253  0.07369376  1
  O  O481  1  0.07373428  0.31450463  0.32471135  1
  O  O482  1  0.07304387  0.31312436  0.57374656  1
  O  O483  1  0.07280446  0.31512843  0.82348366  1
  O  O484  1  0.07372589  0.64584210  0.07529861  1
  O  O485  1  0.07389069  0.64533725  0.32445503  1
  O  O486  1  0.07237870  0.64640058  0.57287073  1
  O  O487  1  0.07292223  0.64836556  0.82375587  1
  O  O488  1  0.07220324  0.98050787  0.07318344  1
  O  O489  1  0.07325259  0.97858258  0.32417403  1
  O  O490  1  0.07295900  0.98081181  0.57315430  1
  O  O491  1  0.07277948  0.98160208  0.82363029  1
  O  O492  1  0.57334816  0.31230353  0.07449499  1
  O  O493  1  0.57412877  0.31213292  0.32504340  1
  O  O494  1  0.57306184  0.31421269  0.57466878  1
  O  O495  1  0.57288986  0.31421113  0.82505127  1
  O  O496  1  0.57297495  0.64906768  0.07383011  1
  O  O497  1  0.57432015  0.64626196  0.32576944  1
  O  O498  1  0.57324901  0.64697201  0.57610870  1
  O  O499  1  0.57248157  0.64851191  0.82427716  1
  O  O500  1  0.57294767  0.98122837  0.07414849  1
  O  O501  1  0.57291307  0.97873441  0.32415056  1
  O  O502  1  0.57231329  0.98100681  0.57510346  1
  O  O503  1  0.57211432  0.98077487  0.82387228  1
  O  O504  1  0.42583819  0.01978508  0.17397701  1
  O  O505  1  0.42674217  0.01738431  0.42636802  1
  O  O506  1  0.42622416  0.01874079  0.67676638  1
  O  O507  1  0.42712432  0.01961765  0.92633593  1
  O  O508  1  0.42568492  0.35315963  0.17443040  1
  O  O509  1  0.42660750  0.35113953  0.42620345  1
  O  O510  1  0.42650663  0.35108031  0.67667841  1
  O  O511  1  0.42579977  0.35343881  0.92467988  1
  O  O512  1  0.42673316  0.68850837  0.17539879  1
  O  O513  1  0.42574301  0.68683027  0.42513285  1
  O  O514  1  0.42714934  0.68664649  0.67730699  1
  O  O515  1  0.42646444  0.68628307  0.92595884  1
  O  O516  1  0.92661373  0.02058688  0.17411395  1
  O  O517  1  0.92843367  0.01939905  0.42566267  1
  O  O518  1  0.92761436  0.01861072  0.67511217  1
  O  O519  1  0.92732998  0.01925056  0.92547393  1
  O  O520  1  0.92827370  0.35346453  0.17652818  1
  O  O521  1  0.92745008  0.35304857  0.42607441  1
  O  O522  1  0.92737573  0.35147838  0.67624295  1
  O  O523  1  0.92758385  0.35399102  0.92712115  1
  O  O524  1  0.92742380  0.68796200  0.17412877  1
  O  O525  1  0.92717360  0.68486684  0.42498061  1
  O  O526  1  0.92709707  0.68491213  0.67619349  1
  O  O527  1  0.92679933  0.68841700  0.92554716  1
  O  O528  1  0.17619148  0.01813022  0.19902684  1
  O  O529  1  0.17822051  0.01897696  0.44770910  1
  O  O530  1  0.17674106  0.01820545  0.69955497  1
  O  O531  1  0.17803032  0.01876632  0.94743373  1
  O  O532  1  0.17668537  0.35275543  0.19966050  1
  O  O533  1  0.17610891  0.35375225  0.45001994  1
  O  O534  1  0.17634850  0.35292479  0.70079390  1
  O  O535  1  0.17849189  0.35336469  0.94766884  1
  O  O536  1  0.17741089  0.68689309  0.19825819  1
  O  O537  1  0.17708699  0.68854257  0.44958030  1
  O  O538  1  0.17785047  0.68661801  0.69837522  1
  O  O539  1  0.17609032  0.68848018  0.94958016  1
  O  O540  1  0.67757261  0.01958956  0.19775459  1
  O  O541  1  0.67671792  0.01827237  0.44853956  1
  O  O542  1  0.67664127  0.01818739  0.69983967  1
  O  O543  1  0.67673531  0.02126213  0.95031990  1
  O  O544  1  0.67633142  0.35322391  0.20008476  1
  O  O545  1  0.67670460  0.35277398  0.45057278  1
  O  O546  1  0.67679750  0.35297722  0.70217279  1
  O  O547  1  0.67685680  0.35438433  0.95039037  1
  O  O548  1  0.67714454  0.68594554  0.19871299  1
  O  O549  1  0.67618520  0.68703200  0.45044700  1
  O  O550  1  0.67682555  0.68640015  0.70168739  1
  O  O551  1  0.67836034  0.68719256  0.94807018  1
  O  O552  1  0.32343183  0.31263113  0.04847218  1
  O  O553  1  0.32322861  0.31142636  0.29998081  1
  O  O554  1  0.32313507  0.31237833  0.54954132  1
  O  O555  1  0.32110229  0.31301554  0.80177037  1
  O  O556  1  0.32265137  0.64884342  0.04952066  1
  O  O557  1  0.32431562  0.64784317  0.29935282  1
  O  O558  1  0.32298779  0.64897924  0.55143293  1
  O  O559  1  0.32266620  0.64673113  0.80027656  1
  O  O560  1  0.32181823  0.98040507  0.05111219  1
  O  O561  1  0.32098154  0.98003287  0.30200875  1
  O  O562  1  0.32135825  0.98068197  0.55222419  1
  O  O563  1  0.32113120  0.97962542  0.80205883  1
  O  O564  1  0.82326896  0.31261560  0.04961225  1
  O  O565  1  0.82441809  0.31259484  0.29939821  1
  O  O566  1  0.82421765  0.31247997  0.55063893  1
  O  O567  1  0.82413585  0.31116033  0.80096535  1
  O  O568  1  0.82339661  0.64879746  0.05003647  1
  O  O569  1  0.82457885  0.64740108  0.30006635  1
  O  O570  1  0.82414633  0.64691949  0.55076539  1
  O  O571  1  0.82221888  0.64710205  0.80291348  1
  O  O572  1  0.82284463  0.98167822  0.04977443  1
  O  O573  1  0.82371007  0.98153406  0.30043873  1
  O  O574  1  0.82337189  0.98126275  0.55131882  1
  O  O575  1  0.82330811  0.97915579  0.80062988  1
  O  O576  1  0.42624829  0.14640292  0.17450488  1
  O  O577  1  0.42651397  0.14462807  0.42590244  1
  O  O578  1  0.42626435  0.14568571  0.67511684  1
  O  O579  1  0.42861523  0.14708904  0.92624620  1
  O  O580  1  0.42588807  0.48035965  0.17495030  1
  O  O581  1  0.42652866  0.47843974  0.42615411  1
  O  O582  1  0.42581665  0.47824169  0.67528099  1
  O  O583  1  0.42579866  0.48038141  0.92393055  1
  O  O584  1  0.42720149  0.81567258  0.17540644  1
  O  O585  1  0.42532284  0.81360590  0.42594467  1
  O  O586  1  0.42756544  0.81416831  0.67790448  1
  O  O587  1  0.42655778  0.81318565  0.92501350  1
  O  O588  1  0.92729892  0.14745839  0.17373229  1
  O  O589  1  0.92925290  0.14693756  0.42638232  1
  O  O590  1  0.92695657  0.14546408  0.67428597  1
  O  O591  1  0.92738096  0.14636356  0.92421267  1
  O  O592  1  0.92820740  0.48066612  0.17663935  1
  O  O593  1  0.92877850  0.48020935  0.42696988  1
  O  O594  1  0.92646055  0.47842492  0.67550734  1
  O  O595  1  0.92928662  0.48131553  0.92734036  1
  O  O596  1  0.92750029  0.81508701  0.17549931  1
  O  O597  1  0.92665921  0.81190636  0.42516854  1
  O  O598  1  0.92686199  0.81202223  0.67420167  1
  O  O599  1  0.92755788  0.81543173  0.92508030  1
  O  O600  1  0.07411161  0.18849388  0.07447925  1
  O  O601  1  0.07308194  0.18753245  0.32473449  1
  O  O602  1  0.07180868  0.18575505  0.57298833  1
  O  O603  1  0.07309353  0.18801405  0.82479116  1
  O  O604  1  0.07302548  0.51877416  0.07334060  1
  O  O605  1  0.07354477  0.51841618  0.32465863  1
  O  O606  1  0.07144360  0.51897551  0.57382750  1
  O  O607  1  0.07297081  0.52129327  0.82438803  1
  O  O608  1  0.07204269  0.85317138  0.07221885  1
  O  O609  1  0.07256835  0.85146285  0.32394502  1
  O  O610  1  0.07304988  0.85368088  0.57527109  1
  O  O611  1  0.07302988  0.85466058  0.82411349  1
  O  O612  1  0.57303651  0.18509056  0.07320776  1
  O  O613  1  0.57361961  0.18519797  0.32598531  1
  O  O614  1  0.57336710  0.18699436  0.57584166  1
  O  O615  1  0.57310775  0.18704964  0.82444094  1
  O  O616  1  0.57298184  0.52178069  0.07430582  1
  O  O617  1  0.57363976  0.51921699  0.32529569  1
  O  O618  1  0.57364483  0.51997258  0.57703420  1
  O  O619  1  0.57260016  0.52134407  0.82587060  1
  O  O620  1  0.57337868  0.85433850  0.07374687  1
  O  O621  1  0.57288400  0.85176222  0.32421047  1
  O  O622  1  0.57241605  0.85408883  0.57635075  1
  O  O623  1  0.57085731  0.85338522  0.82395850  1
  O  O624  1  0.32343349  0.18582651  0.04842405  1
  O  O625  1  0.32320370  0.18410349  0.30033740  1
  O  O626  1  0.32360976  0.18553728  0.55022318  1
  O  O627  1  0.32256182  0.18546653  0.80129793  1
  O  O628  1  0.32315832  0.52165727  0.04958007  1
  O  O629  1  0.32393266  0.52091721  0.29909372  1
  O  O630  1  0.32307878  0.52170425  0.55045236  1
  O  O631  1  0.32265938  0.51967362  0.80019621  1
  O  O632  1  0.32128280  0.85330268  0.05178877  1
  O  O633  1  0.32174963  0.85296112  0.30132517  1
  O  O634  1  0.32212200  0.85366018  0.55226136  1
  O  O635  1  0.32211163  0.85254314  0.80185714  1
  O  O636  1  0.82377948  0.18544689  0.05097482  1
  O  O637  1  0.82477264  0.18569874  0.29991999  1
  O  O638  1  0.82425637  0.18545768  0.54990300  1
  O  O639  1  0.82321435  0.18388885  0.80109546  1
  O  O640  1  0.82336397  0.52168003  0.05012367  1
  O  O641  1  0.82454064  0.52043363  0.29945186  1
  O  O642  1  0.82433493  0.51991200  0.55105942  1
  O  O643  1  0.82330234  0.51958696  0.80298384  1
  O  O644  1  0.82348643  0.85460520  0.05026169  1
  O  O645  1  0.82309343  0.85445854  0.29968956  1
  O  O646  1  0.82316647  0.85428453  0.54991046  1
  O  O647  1  0.82334861  0.85216603  0.80061707  1
  O  O648  1  0.17642839  0.14500788  0.19896749  1
  O  O649  1  0.17734060  0.14629406  0.44816662  1
  O  O650  1  0.17660282  0.14507848  0.69981867  1
  O  O651  1  0.17702248  0.14607923  0.94839740  1
  O  O652  1  0.17624269  0.47980834  0.19955280  1
  O  O653  1  0.17674339  0.48093233  0.45001432  1
  O  O654  1  0.17543470  0.47973179  0.70030855  1
  O  O655  1  0.17760203  0.48100318  0.94831934  1
  O  O656  1  0.17780218  0.81427008  0.19730846  1
  O  O657  1  0.17621166  0.81537767  0.44939330  1
  O  O658  1  0.17680440  0.81391248  0.69827910  1
  O  O659  1  0.17657501  0.81525908  0.94925451  1
  O  O660  1  0.67823971  0.14699082  0.19879839  1
  O  O661  1  0.67744509  0.14530806  0.45005232  1
  O  O662  1  0.67685961  0.14532378  0.69953240  1
  O  O663  1  0.67724902  0.14814460  0.94911047  1
  O  O664  1  0.67613437  0.48016575  0.20022333  1
  O  O665  1  0.67649004  0.47986281  0.45089265  1
  O  O666  1  0.67650905  0.47992262  0.70154985  1
  O  O667  1  0.67722621  0.48168805  0.94981127  1
  O  O668  1  0.67679857  0.81312171  0.19895304  1
  O  O669  1  0.67579369  0.81409963  0.45038555  1
  O  O670  1  0.67602481  0.81316712  0.70098563  1
  O  O671  1  0.67765552  0.81463026  0.94912673  1
