# generated using pymatgen
data_Na2MnFe(PO4)2
_symmetry_space_group_name_H-M   'P 1'
_cell_length_a   22.34317242
_cell_length_b   20.09252710
_cell_length_c   19.44896597
_cell_angle_alpha   89.95865741
_cell_angle_beta   90.03385321
_cell_angle_gamma   89.95891086
_symmetry_Int_Tables_number   1
_chemical_formula_structural   Na2MnFe(PO4)2
_chemical_formula_sum   'Na96 Mn48 Fe48 P96 O384'
_cell_volume   8731.23375669
_cell_formula_units_Z   48
loop_
 _symmetry_equiv_pos_site_id
 _symmetry_equiv_pos_as_xyz
  1  'x, y, z'
loop_
 _atom_site_type_symbol
 _atom_site_label
 _atom_site_symmetry_multiplicity
 _atom_site_fract_x
 _atom_site_fract_y
 _atom_site_fract_z
 _atom_site_occupancy
  Na  Na0  1  0.14003567  0.24985113  0.24367921  1
  Na  Na1  1  0.13969104  0.25007427  0.49449207  1
  Na  Na2  1  0.13980076  0.25057414  0.74272625  1
  Na  Na3  1  0.13942209  0.24996931  0.99341625  1
  Na  Na4  1  0.14067071  0.58241473  0.24490897  1
  Na  Na5  1  0.14039696  0.58307076  0.49382122  1
  Na  Na6  1  0.14028353  0.58403760  0.74287824  1
  Na  Na7  1  0.14029777  0.58262687  0.99341956  1
  Na  Na8  1  0.14068732  0.91655204  0.24387175  1
  Na  Na9  1  0.14092652  0.91608975  0.49365838  1
  Na  Na10  1  0.14054945  0.91809608  0.74356081  1
  Na  Na11  1  0.14026960  0.91689453  0.99287018  1
  Na  Na12  1  0.64025789  0.25010469  0.24382844  1
  Na  Na13  1  0.63964109  0.25139646  0.49367379  1
  Na  Na14  1  0.63973568  0.25079007  0.74319967  1
  Na  Na15  1  0.63994525  0.25131500  0.99446255  1
  Na  Na16  1  0.64074824  0.58276275  0.24444521  1
  Na  Na17  1  0.64076705  0.58494252  0.49326175  1
  Na  Na18  1  0.64039822  0.58373903  0.74334258  1
  Na  Na19  1  0.64012742  0.58373006  0.99457963  1
  Na  Na20  1  0.64006644  0.91498279  0.24374558  1
  Na  Na21  1  0.64044496  0.91541778  0.49277122  1
  Na  Na22  1  0.64027391  0.91623673  0.74277861  1
  Na  Na23  1  0.64013548  0.91698268  0.99412652  1
  Na  Na24  1  0.35954358  0.08372970  0.00627867  1
  Na  Na25  1  0.35964063  0.08224360  0.25645021  1
  Na  Na26  1  0.35994334  0.08316450  0.50693827  1
  Na  Na27  1  0.36008507  0.08312739  0.75560942  1
  Na  Na28  1  0.35957369  0.41499255  0.00606086  1
  Na  Na29  1  0.35925466  0.41514379  0.25625843  1
  Na  Na30  1  0.35966838  0.41502717  0.50838444  1
  Na  Na31  1  0.36013747  0.41624090  0.75651479  1
  Na  Na32  1  0.35988156  0.74896880  0.00568230  1
  Na  Na33  1  0.36003329  0.75011980  0.25703091  1
  Na  Na34  1  0.36038290  0.74916543  0.50609805  1
  Na  Na35  1  0.35968516  0.75001099  0.75479500  1
  Na  Na36  1  0.85962738  0.08473790  0.00607631  1
  Na  Na37  1  0.85935805  0.08252045  0.25571748  1
  Na  Na38  1  0.85974210  0.08413295  0.50725555  1
  Na  Na39  1  0.85974005  0.08400007  0.75603677  1
  Na  Na40  1  0.85992263  0.41808832  0.00767669  1
  Na  Na41  1  0.85979652  0.41724326  0.25610395  1
  Na  Na42  1  0.85980059  0.41831031  0.50689282  1
  Na  Na43  1  0.85997828  0.41747036  0.75621831  1
  Na  Na44  1  0.85941702  0.75011263  0.00651545  1
  Na  Na45  1  0.85959557  0.74850633  0.25626793  1
  Na  Na46  1  0.86013676  0.74964468  0.50612784  1
  Na  Na47  1  0.85989151  0.75003290  0.75552840  1
  Na  Na48  1  0.10939300  0.08429215  0.11791934  1
  Na  Na49  1  0.10948061  0.08555504  0.36903928  1
  Na  Na50  1  0.10941330  0.08492302  0.61913654  1
  Na  Na51  1  0.10919561  0.08577335  0.86834868  1
  Na  Na52  1  0.10932365  0.41487319  0.11815233  1
  Na  Na53  1  0.10971842  0.41619824  0.37048045  1
  Na  Na54  1  0.10956383  0.41602249  0.61788343  1
  Na  Na55  1  0.10901151  0.41691493  0.86863432  1
  Na  Na56  1  0.10980424  0.74936158  0.11887708  1
  Na  Na57  1  0.11048032  0.74904203  0.36882073  1
  Na  Na58  1  0.10998693  0.74927748  0.61790979  1
  Na  Na59  1  0.10931895  0.75118245  0.86829049  1
  Na  Na60  1  0.60945918  0.08318789  0.11890192  1
  Na  Na61  1  0.60937587  0.08217259  0.36924429  1
  Na  Na62  1  0.60884000  0.08267338  0.61783565  1
  Na  Na63  1  0.60916282  0.08356336  0.86954358  1
  Na  Na64  1  0.60970560  0.41780944  0.11836681  1
  Na  Na65  1  0.60961906  0.41657565  0.36920839  1
  Na  Na66  1  0.60932941  0.41596983  0.61829995  1
  Na  Na67  1  0.60909566  0.41603901  0.86969240  1
  Na  Na68  1  0.60963247  0.75071938  0.11892302  1
  Na  Na69  1  0.61046976  0.75053574  0.36866933  1
  Na  Na70  1  0.61015506  0.75029685  0.61691511  1
  Na  Na71  1  0.60985613  0.74856338  0.86819697  1
  Na  Na72  1  0.38958084  0.24931626  0.13156949  1
  Na  Na73  1  0.39012290  0.24815235  0.38254754  1
  Na  Na74  1  0.39017541  0.24912327  0.63214505  1
  Na  Na75  1  0.38996170  0.24877400  0.88147618  1
  Na  Na76  1  0.39035963  0.58434779  0.13111319  1
  Na  Na77  1  0.39055166  0.58338815  0.38278340  1
  Na  Na78  1  0.39076846  0.58222588  0.63106266  1
  Na  Na79  1  0.39021435  0.58208780  0.88071396  1
  Na  Na80  1  0.39063575  0.91708947  0.13111702  1
  Na  Na81  1  0.39101424  0.91600583  0.38184802  1
  Na  Na82  1  0.39065058  0.91591634  0.62958523  1
  Na  Na83  1  0.39093057  0.91599276  0.88019281  1
  Na  Na84  1  0.89011955  0.25075937  0.13076851  1
  Na  Na85  1  0.89041536  0.25162950  0.38150341  1
  Na  Na86  1  0.89031006  0.25045450  0.63143592  1
  Na  Na87  1  0.89065003  0.25189312  0.88073642  1
  Na  Na88  1  0.89005026  0.58213870  0.13187287  1
  Na  Na89  1  0.89029000  0.58252816  0.38266549  1
  Na  Na90  1  0.89047865  0.58340146  0.63085979  1
  Na  Na91  1  0.89031179  0.58503803  0.88189527  1
  Na  Na92  1  0.89037854  0.91651362  0.13089127  1
  Na  Na93  1  0.89054754  0.91620182  0.38167138  1
  Na  Na94  1  0.89089366  0.91635370  0.63153912  1
  Na  Na95  1  0.89086402  0.91852312  0.88050838  1
  Mn  Mn96  1  0.25070637  0.83288189  0.87440288  1
  Mn  Mn97  1  0.49985766  0.33283441  0.25073646  1
  Mn  Mn98  1  0.74976984  0.16762449  0.87534810  1
  Mn  Mn99  1  0.24981832  0.66604655  0.12522381  1
  Mn  Mn100  1  0.24980670  0.49932643  0.37542002  1
  Mn  Mn101  1  0.50003363  0.16580803  0.75014962  1
  Mn  Mn102  1  0.50028945  0.83323795  0.74924084  1
  Mn  Mn103  1  0.74965952  0.50145658  0.87570927  1
  Mn  Mn104  1  0.24940691  0.50004080  0.87512759  1
  Mn  Mn105  1  0.74994539  -0.00159134  0.37573233  1
  Mn  Mn106  1  0.24954527  -0.00000643  0.37508170  1
  Mn  Mn107  1  0.74922237  0.16797582  0.62515378  1
  Mn  Mn108  1  0.00019638  0.66560293  0.24971645  1
  Mn  Mn109  1  -0.00024667  0.00101621  -0.00041020  1
  Mn  Mn110  1  0.74964825  0.00014166  0.87444355  1
  Mn  Mn111  1  0.00016496  0.50032731  0.74990386  1
  Mn  Mn112  1  0.24943705  0.33239691  0.87503255  1
  Mn  Mn113  1  0.50039357  0.66798152  0.25072160  1
  Mn  Mn114  1  0.00019012  0.00051751  0.24966974  1
  Mn  Mn115  1  0.75011572  0.16666992  0.37462531  1
  Mn  Mn116  1  0.00002746  0.66704528  0.00040478  1
  Mn  Mn117  1  0.25074752  0.49879253  0.12501552  1
  Mn  Mn118  1  0.74989875  0.83264551  0.12489048  1
  Mn  Mn119  1  0.75025609  0.33492990  0.37427404  1
  Mn  Mn120  1  0.74984336  -0.00074913  0.62494587  1
  Mn  Mn121  1  0.25016277  0.00054245  0.12470806  1
  Mn  Mn122  1  0.25013737  0.66681158  0.62433600  1
  Mn  Mn123  1  0.49924916  0.50019911  0.25021706  1
  Mn  Mn124  1  0.00015590  0.83302029  0.25053056  1
  Mn  Mn125  1  0.74959319  0.16663277  0.12506932  1
  Mn  Mn126  1  0.50020361  0.49913640  0.50040405  1
  Mn  Mn127  1  0.25002246  0.00017788  0.62444854  1
  Mn  Mn128  1  0.00036811  0.49858754  0.25115621  1
  Mn  Mn129  1  0.49959315  0.66548686  0.74910523  1
  Mn  Mn130  1  0.74980725  0.33456284  0.87553158  1
  Mn  Mn131  1  0.50045852  0.83357546  -0.00053658  1
  Mn  Mn132  1  0.24985628  0.83274999  0.12450046  1
  Mn  Mn133  1  0.00039171  0.00140672  0.50066488  1
  Mn  Mn134  1  0.24990472  0.33191062  0.37614318  1
  Mn  Mn135  1  0.49969189  0.16641400  -0.00000458  1
  Mn  Mn136  1  -0.00078763  0.16818509  0.24925722  1
  Mn  Mn137  1  0.00053382  0.83377228  0.74980734  1
  Mn  Mn138  1  0.50044311  0.16569271  0.25094258  1
  Mn  Mn139  1  0.74995238  0.50135010  0.62525005  1
  Mn  Mn140  1  0.49929906  0.49984496  -0.00010460  1
  Mn  Mn141  1  0.25040837  0.00111714  0.87393671  1
  Mn  Mn142  1  0.75025820  0.83270252  0.87471947  1
  Mn  Mn143  1  0.00104582  0.83284525  0.50092378  1
  Fe  Fe144  1  0.50077156  0.66655100  0.50005227  1
  Fe  Fe145  1  0.25007260  0.16646006  0.37535096  1
  Fe  Fe146  1  0.75052582  0.83267176  0.62432298  1
  Fe  Fe147  1  -0.00045763  0.33386619  0.74959942  1
  Fe  Fe148  1  0.74976871  0.66612862  0.12595374  1
  Fe  Fe149  1  0.00034451  0.49946839  0.50064908  1
  Fe  Fe150  1  0.24993402  0.66660274  0.87403483  1
  Fe  Fe151  1  0.24931485  0.16649203  0.12536349  1
  Fe  Fe152  1  0.75051490  0.66648208  0.37503358  1
  Fe  Fe153  1  0.50058006  0.49897625  0.75006018  1
  Fe  Fe154  1  0.25085542  0.66610698  0.37535141  1
  Fe  Fe155  1  0.49968813  0.83402278  0.24973887  1
  Fe  Fe156  1  0.00010676  0.50013402  0.00002985  1
  Fe  Fe157  1  0.49993233  0.16581215  0.50065054  1
  Fe  Fe158  1  0.75026933  0.66760833  0.62420638  1
  Fe  Fe159  1  -0.00040820  0.16791297  0.74966134  1
  Fe  Fe160  1  0.24948061  0.33207354  0.12557410  1
  Fe  Fe161  1  0.74978322  -0.00065779  0.12527438  1
  Fe  Fe162  1  0.49982396  -0.00029628  0.25044645  1
  Fe  Fe163  1  0.49939174  0.33270075  0.50061046  1
  Fe  Fe164  1  0.25041673  0.50007535  0.62510878  1
  Fe  Fe165  1  0.50005476  0.33246300  0.75013538  1
  Fe  Fe166  1  0.00049055  0.00145126  0.75029070  1
  Fe  Fe167  1  0.50033422  -0.00094511  0.49945815  1
  Fe  Fe168  1  -0.00052645  0.33357163  -0.00103462  1
  Fe  Fe169  1  0.49941673  0.33309712  0.00013358  1
  Fe  Fe170  1  0.24988604  0.16715047  0.87518687  1
  Fe  Fe171  1  0.25026907  0.33272515  0.62570333  1
  Fe  Fe172  1  0.50049663  0.83345970  0.49930360  1
  Fe  Fe173  1  0.24992306  0.83304390  0.62446951  1
  Fe  Fe174  1  -0.00084512  0.16785459  -0.00127931  1
  Fe  Fe175  1  0.75106174  0.83223439  0.37436321  1
  Fe  Fe176  1  -0.00042980  0.33309602  0.50039115  1
  Fe  Fe177  1  -0.00012995  0.33368155  0.24985870  1
  Fe  Fe178  1  0.00022476  0.66680377  0.75036111  1
  Fe  Fe179  1  0.74986082  0.33428434  0.12539955  1
  Fe  Fe180  1  -0.00004147  0.83414752  -0.00042204  1
  Fe  Fe181  1  0.24977651  0.16663965  0.62510868  1
  Fe  Fe182  1  0.74995400  0.33478256  0.62471502  1
  Fe  Fe183  1  0.74983029  0.66701045  0.87516576  1
  Fe  Fe184  1  0.49993122  -0.00020211  0.00021695  1
  Fe  Fe185  1  0.74970438  0.50058669  0.37492157  1
  Fe  Fe186  1  -0.00072798  0.16744405  0.50022964  1
  Fe  Fe187  1  0.49984112  0.66680336  -0.00019448  1
  Fe  Fe188  1  0.00042652  0.66595070  0.50014985  1
  Fe  Fe189  1  0.75008640  0.50093960  0.12570738  1
  Fe  Fe190  1  0.25055067  0.83268191  0.37481710  1
  Fe  Fe191  1  0.50026612  -0.00067503  0.74915460  1
  P  P192  1  0.04071369  0.25039007  0.10084291  1
  P  P193  1  0.04171679  0.25206705  0.35290786  1
  P  P194  1  0.04089910  0.25007730  0.60229021  1
  P  P195  1  0.04101967  0.25113342  0.85152544  1
  P  P196  1  0.04250439  0.58149598  0.10253525  1
  P  P197  1  0.04271711  0.58267941  0.35446040  1
  P  P198  1  0.04162357  0.58312247  0.60209558  1
  P  P199  1  0.04219675  0.58461930  0.85278114  1
  P  P200  1  0.04250626  0.91591281  0.10204646  1
  P  P201  1  0.04322751  0.91723990  0.35345364  1
  P  P202  1  0.04322712  0.91765228  0.60402190  1
  P  P203  1  0.04241295  0.91880918  0.85251874  1
  P  P204  1  0.54203005  0.25091572  0.10260463  1
  P  P205  1  0.54273084  0.24934093  0.35475598  1
  P  P206  1  0.54090283  0.24980947  0.60222770  1
  P  P207  1  0.54188555  0.25071708  0.85289379  1
  P  P208  1  0.54181374  0.58496428  0.10246841  1
  P  P209  1  0.54254399  0.58354653  0.35383830  1
  P  P210  1  0.54250094  0.58356572  0.60250352  1
  P  P211  1  0.54200239  0.58150264  0.85245746  1
  P  P212  1  0.54215852  0.91786654  0.10312183  1
  P  P213  1  0.54149065  0.91649330  0.35207505  1
  P  P214  1  0.54183188  0.91648593  0.60113460  1
  P  P215  1  0.54253630  0.91784986  0.85225667  1
  P  P216  1  0.45792444  0.08180362  0.14772716  1
  P  P217  1  0.45864006  0.08230594  0.39865740  1
  P  P218  1  0.45817001  0.08142898  0.64650810  1
  P  P219  1  0.45762272  0.08146423  0.89720021  1
  P  P220  1  0.45700116  0.41626599  0.14672311  1
  P  P221  1  0.45713063  0.41486605  0.39833213  1
  P  P222  1  0.45878019  0.41576974  0.64842320  1
  P  P223  1  0.45753004  0.41473495  0.89683045  1
  P  P224  1  0.45774602  0.75172021  0.14735071  1
  P  P225  1  0.45943006  0.75027103  0.39822410  1
  P  P226  1  0.45784505  0.74971885  0.64533810  1
  P  P227  1  0.45790451  0.74855040  0.89703040  1
  P  P228  1  0.95688257  0.08411733  0.14597459  1
  P  P229  1  0.95734329  0.08553956  0.39776910  1
  P  P230  1  0.95840061  0.08438045  0.64823131  1
  P  P231  1  0.95751463  0.08575615  0.89622034  1
  P  P232  1  0.95798805  0.41545891  0.14686103  1
  P  P233  1  0.95843591  0.41625938  0.39894583  1
  P  P234  1  0.95816414  0.41580471  0.64683077  1
  P  P235  1  0.95825054  0.41769535  0.89808294  1
  P  P236  1  0.95724950  0.74992365  0.14654217  1
  P  P237  1  0.95846202  0.74856697  0.39812945  1
  P  P238  1  0.95867227  0.74822383  0.64729032  1
  P  P239  1  0.95781706  0.75189349  0.89739205  1
  P  P240  1  0.20732077  0.08451044  0.22786416  1
  P  P241  1  0.20785291  0.08480089  0.47796143  1
  P  P242  1  0.20789159  0.08508590  0.72751225  1
  P  P243  1  0.20760015  0.08503522  0.97747698  1
  P  P244  1  0.20753642  0.41469641  0.22764798  1
  P  P245  1  0.20783335  0.41608802  0.47973991  1
  P  P246  1  0.20867990  0.41691237  0.72638015  1
  P  P247  1  0.20699245  0.41557754  0.97852623  1
  P  P248  1  0.20760692  0.74969007  0.22912764  1
  P  P249  1  0.20906840  0.74965275  0.47670866  1
  P  P250  1  0.20762277  0.75101510  0.72715214  1
  P  P251  1  0.20748018  0.74836732  0.97668889  1
  P  P252  1  0.70756643  0.08132664  0.22758805  1
  P  P253  1  0.70726181  0.08337458  0.47815958  1
  P  P254  1  0.70665118  0.08355003  0.72781173  1
  P  P255  1  0.70707318  0.08336350  0.97866297  1
  P  P256  1  0.70833749  0.41783205  0.22697769  1
  P  P257  1  0.70790871  0.41875323  0.47768943  1
  P  P258  1  0.70768896  0.41672892  0.72729968  1
  P  P259  1  0.70733937  0.41788727  0.97963746  1
  P  P260  1  0.70803223  0.74796018  0.22831287  1
  P  P261  1  0.70920458  0.75006622  0.47672933  1
  P  P262  1  0.70821704  0.74985211  0.72619361  1
  P  P263  1  0.70759392  0.74849578  0.97787267  1
  P  P264  1  0.29092585  0.24913271  0.02343894  1
  P  P265  1  0.29209129  0.24801767  0.27240777  1
  P  P266  1  0.29136889  0.24915305  0.52384616  1
  P  P267  1  0.29187096  0.24868905  0.77185313  1
  P  P268  1  0.29282288  0.58290239  0.02131866  1
  P  P269  1  0.29294136  0.58357987  0.27309374  1
  P  P270  1  0.29250460  0.58206766  0.52227023  1
  P  P271  1  0.29207837  0.58399048  0.77179245  1
  P  P272  1  0.29291759  0.91667648  0.02142753  1
  P  P273  1  0.29239767  0.91561300  0.27279025  1
  P  P274  1  0.29193853  0.91486788  0.52172064  1
  P  P275  1  0.29300305  0.91675603  0.77070515  1
  P  P276  1  0.79192785  0.25203763  0.02302945  1
  P  P277  1  0.79252778  0.25072222  0.27115525  1
  P  P278  1  0.79178149  0.25232470  0.52249225  1
  P  P279  1  0.79237719  0.25139221  0.77149685  1
  P  P280  1  0.79160041  0.58415387  0.02373962  1
  P  P281  1  0.79181400  0.58312436  0.27313868  1
  P  P282  1  0.79214659  0.58530594  0.52183322  1
  P  P283  1  0.79214657  0.58561688  0.77241830  1
  P  P284  1  0.79216869  0.91765236  0.02249536  1
  P  P285  1  0.79248792  0.91487679  0.27217370  1
  P  P286  1  0.79277139  0.91458078  0.52216095  1
  P  P287  1  0.79286129  0.91592423  0.77108613  1
  O  O288  1  0.03623235  0.25084612  0.18079534  1
  O  O289  1  0.03637108  0.25179744  0.43274129  1
  O  O290  1  0.03575386  0.24989189  0.68213650  1
  O  O291  1  0.03566727  0.25103491  0.93136186  1
  O  O292  1  0.03746015  0.58145999  0.18252380  1
  O  O293  1  0.03748978  0.58298783  0.43438426  1
  O  O294  1  0.03696466  0.58339966  0.68208824  1
  O  O295  1  0.03706889  0.58397296  0.93267642  1
  O  O296  1  0.03731478  0.91610259  0.18204501  1
  O  O297  1  0.03835285  0.91725468  0.43347796  1
  O  O298  1  0.03786537  0.91813522  0.68394564  1
  O  O299  1  0.03692487  0.91815572  0.93242816  1
  O  O300  1  0.53719264  0.25016102  0.18260111  1
  O  O301  1  0.53740009  0.24940014  0.43466535  1
  O  O302  1  0.53611052  0.24984416  0.68225808  1
  O  O303  1  0.53655353  0.25082855  0.93282473  1
  O  O304  1  0.53668763  0.58482651  0.18242187  1
  O  O305  1  0.53747662  0.58372887  0.43378423  1
  O  O306  1  0.53723976  0.58277503  0.68240741  1
  O  O307  1  0.53658962  0.58231644  0.93234969  1
  O  O308  1  0.53653890  0.91732641  0.18296680  1
  O  O309  1  0.53630065  0.91641905  0.43195504  1
  O  O310  1  0.53712898  0.91632872  0.68107921  1
  O  O311  1  0.53715584  0.91786078  0.93219643  1
  O  O312  1  0.46308633  0.08186256  0.06778196  1
  O  O313  1  0.46349905  0.08247413  0.31869310  1
  O  O314  1  0.46366365  0.08180668  0.56667474  1
  O  O315  1  0.46318761  0.08168409  0.81726158  1
  O  O316  1  0.46224942  0.41596942  0.06677231  1
  O  O317  1  0.46199011  0.41547892  0.31836451  1
  O  O318  1  0.46364363  0.41536069  0.56844582  1
  O  O319  1  0.46332124  0.41480621  0.81698258  1
  O  O320  1  0.46285026  0.75105848  0.06740831  1
  O  O321  1  0.46388650  0.75121251  0.31823668  1
  O  O322  1  0.46340015  0.74960936  0.56546173  1
  O  O323  1  0.46300355  0.74875191  0.81707191  1
  O  O324  1  0.96191593  0.08445440  0.06601194  1
  O  O325  1  0.96231175  0.08529811  0.31778509  1
  O  O326  1  0.96334496  0.08488935  0.56823384  1
  O  O327  1  0.96320057  0.08530937  0.81636177  1
  O  O328  1  0.96307216  0.41616353  0.06700662  1
  O  O329  1  0.96303474  0.41622323  0.31897111  1
  O  O330  1  0.96362480  0.41586414  0.56702128  1
  O  O331  1  0.96302988  0.41733960  0.81811003  1
  O  O332  1  0.96230284  0.75065239  0.06657739  1
  O  O333  1  0.96333504  0.74878719  0.31815395  1
  O  O334  1  0.96432602  0.74779795  0.56739940  1
  O  O335  1  0.96330916  0.75134286  0.81748177  1
  O  O336  1  0.21271127  0.08485707  0.05747982  1
  O  O337  1  0.21253525  0.08450512  0.30784020  1
  O  O338  1  0.21331646  0.08478037  0.55787610  1
  O  O339  1  0.21321553  0.08524904  0.80743392  1
  O  O340  1  0.21223735  0.41493838  0.05844669  1
  O  O341  1  0.21250105  0.41475439  0.30765734  1
  O  O342  1  0.21328105  0.41639796  0.55960431  1
  O  O343  1  0.21304986  0.41673307  0.80642566  1
  O  O344  1  0.21227918  0.74857220  0.05672147  1
  O  O345  1  0.21322862  0.74973374  0.30905179  1
  O  O346  1  0.21399488  0.75031246  0.55672422  1
  O  O347  1  0.21303350  0.75001135  0.80704950  1
  O  O348  1  0.71246749  0.08265513  0.05862745  1
  O  O349  1  0.71285395  0.08157906  0.30756445  1
  O  O350  1  0.71224566  0.08345310  0.55811574  1
  O  O351  1  0.71169833  0.08364201  0.80780938  1
  O  O352  1  0.71267936  0.41781387  0.05954716  1
  O  O353  1  0.71334624  0.41836475  0.30698380  1
  O  O354  1  0.71313545  0.41798267  0.55763386  1
  O  O355  1  0.71247535  0.41700689  0.80728442  1
  O  O356  1  0.71274549  0.74845756  0.05781205  1
  O  O357  1  0.71371179  0.74833513  0.30815472  1
  O  O358  1  0.71430083  0.75035264  0.55665723  1
  O  O359  1  0.71297986  0.74962891  0.80619923  1
  O  O360  1  0.28660887  0.24844489  0.19251931  1
  O  O361  1  0.28689985  0.24912128  0.44386136  1
  O  O362  1  0.28666885  0.24897837  0.69196889  1
  O  O363  1  0.28604134  0.24902141  0.94343305  1
  O  O364  1  0.28780750  0.58321902  0.19310364  1
  O  O365  1  0.28722837  0.58258518  0.44234319  1
  O  O366  1  0.28676202  0.58326619  0.69181815  1
  O  O367  1  0.28744889  0.58356272  0.94135284  1
  O  O368  1  0.28755223  0.91600113  0.19278222  1
  O  O369  1  0.28624378  0.91476899  0.44180604  1
  O  O370  1  0.28739321  0.91634129  0.69077132  1
  O  O371  1  0.28800488  0.91681558  0.94143498  1
  O  O372  1  0.78690822  0.25118472  0.19124937  1
  O  O373  1  0.78705961  0.25206821  0.44247845  1
  O  O374  1  0.78701324  0.25208912  0.69153017  1
  O  O375  1  0.78700106  0.25193609  0.94301670  1
  O  O376  1  0.78648866  0.58303856  0.19323127  1
  O  O377  1  0.78683802  0.58490247  0.44197749  1
  O  O378  1  0.78709674  0.58568965  0.69246605  1
  O  O379  1  0.78655432  0.58453679  0.94376089  1
  O  O380  1  0.78699221  0.91570682  0.19224289  1
  O  O381  1  0.78777642  0.91432681  0.44215629  1
  O  O382  1  0.78777927  0.91528108  0.69110863  1
  O  O383  1  0.78699678  0.91736895  0.94251783  1
  O  O384  1  0.22673650  0.24921899  0.05934413  1
  O  O385  1  0.22788170  0.24774825  0.30845364  1
  O  O386  1  0.22711552  0.24920672  0.55940468  1
  O  O387  1  0.22760667  0.24801698  0.80772440  1
  O  O388  1  0.22853579  0.58229400  0.05676630  1
  O  O389  1  0.22857845  0.58438002  0.30850104  1
  O  O390  1  0.22827244  0.58179285  0.55800587  1
  O  O391  1  0.22781611  0.58483137  0.80757863  1
  O  O392  1  0.22846519  0.91685176  0.05637730  1
  O  O393  1  0.22803587  0.91547476  0.30804925  1
  O  O394  1  0.22788089  0.91508081  0.55793692  1
  O  O395  1  0.22882547  0.91685695  0.80638242  1
  O  O396  1  0.72764544  0.25185177  0.05845886  1
  O  O397  1  0.72830633  0.25068720  0.30672542  1
  O  O398  1  0.72736595  0.25234306  0.55760969  1
  O  O399  1  0.72803219  0.25110528  0.80680899  1
  O  O400  1  0.72742951  0.58378144  0.05978876  1
  O  O401  1  0.72777343  0.58312411  0.30954765  1
  O  O402  1  0.72804338  0.58552227  0.55799657  1
  O  O403  1  0.72781584  0.58558114  0.80803669  1
  O  O404  1  0.72788603  0.91770842  0.05811481  1
  O  O405  1  0.72826889  0.91406710  0.30804369  1
  O  O406  1  0.72836146  0.91459539  0.55748579  1
  O  O407  1  0.72846580  0.91591003  0.80622528  1
  O  O408  1  0.27165061  0.08476879  0.19228087  1
  O  O409  1  0.27203993  0.08452023  0.44202659  1
  O  O410  1  0.27211542  0.08488288  0.69175648  1
  O  O411  1  0.27193687  0.08539331  0.94185594  1
  O  O412  1  0.27191588  0.41413520  0.19232382  1
  O  O413  1  0.27194170  0.41587770  0.44382720  1
  O  O414  1  0.27300861  0.41719998  0.69106297  1
  O  O415  1  0.27125862  0.41585213  0.94308541  1
  O  O416  1  0.27182736  0.74966058  0.19338411  1
  O  O417  1  0.27323292  0.74918941  0.44075511  1
  O  O418  1  0.27188113  0.75131151  0.69136442  1
  O  O419  1  0.27196932  0.74779324  0.94154113  1
  O  O420  1  0.77179838  0.08160165  0.19195806  1
  O  O421  1  0.77171591  0.08289950  0.44324143  1
  O  O422  1  0.77110859  0.08373337  0.69289926  1
  O  O423  1  0.77138418  0.08368447  0.94320773  1
  O  O424  1  0.77252085  0.41793422  0.19112222  1
  O  O425  1  0.77216777  0.41944796  0.44196243  1
  O  O426  1  0.77211236  0.41678235  0.69214698  1
  O  O427  1  0.77158155  0.41821540  0.94395246  1
  O  O428  1  0.77205257  0.74789911  0.19193778  1
  O  O429  1  0.77322925  0.74993713  0.44032833  1
  O  O430  1  0.77255623  0.74998015  0.69052556  1
  O  O431  1  0.77190267  0.74841549  0.94217545  1
  O  O432  1  0.02126294  0.08434403  0.18133044  1
  O  O433  1  0.02176493  0.08598011  0.43312358  1
  O  O434  1  0.02252729  0.08441396  0.68435406  1
  O  O435  1  0.02157251  0.08594965  0.93264748  1
  O  O436  1  0.02219789  0.41494585  0.18299019  1
  O  O437  1  0.02262277  0.41569851  0.43475874  1
  O  O438  1  0.02224332  0.41566382  0.68315827  1
  O  O439  1  0.02243350  0.41794698  0.93394813  1
  O  O440  1  0.02166906  0.74968540  0.18173174  1
  O  O441  1  0.02285032  0.74838034  0.43347991  1
  O  O442  1  0.02278140  0.74846237  0.68340943  1
  O  O443  1  0.02201623  0.75190911  0.93340109  1
  O  O444  1  0.52217750  0.08130596  0.18356751  1
  O  O445  1  0.52277991  0.08193761  0.43462726  1
  O  O446  1  0.52221585  0.08129668  0.68294157  1
  O  O447  1  0.52173982  0.08164484  0.93338587  1
  O  O448  1  0.52133492  0.41668566  0.18220566  1
  O  O449  1  0.52161169  0.41436465  0.43351965  1
  O  O450  1  0.52294572  0.41610280  0.68436964  1
  O  O451  1  0.52150418  0.41468499  0.93347946  1
  O  O452  1  0.52206889  0.75236632  0.18304277  1
  O  O453  1  0.52364734  0.74969150  0.43393724  1
  O  O454  1  0.52198411  0.74945925  0.68128150  1
  O  O455  1  0.52221768  0.74848534  0.93266037  1
  O  O456  1  0.47766305  0.25100492  0.06711259  1
  O  O457  1  0.47843551  0.24907181  0.31913499  1
  O  O458  1  0.47675807  0.25009233  0.56627137  1
  O  O459  1  0.47769981  0.25047029  0.81695548  1
  O  O460  1  0.47756532  0.58495567  0.06670199  1
  O  O461  1  0.47816002  0.58386692  0.31858902  1
  O  O462  1  0.47828239  0.58389391  0.56669528  1
  O  O463  1  0.47782970  0.58083996  0.81642506  1
  O  O464  1  0.47809825  0.91787009  0.06665144  1
  O  O465  1  0.47740806  0.91653729  0.31561047  1
  O  O466  1  0.47763514  0.91697847  0.56526246  1
  O  O467  1  0.47831694  0.91783797  0.81625314  1
  O  O468  1  0.97651254  0.24984103  0.06499189  1
  O  O469  1  0.97751819  0.25236969  0.31674206  1
  O  O470  1  0.97684766  0.25027466  0.56581468  1
  O  O471  1  0.97699771  0.25114308  0.81501362  1
  O  O472  1  0.97814185  0.58172286  0.06702879  1
  O  O473  1  0.97844407  0.58245747  0.31879940  1
  O  O474  1  0.97747471  0.58355529  0.56626326  1
  O  O475  1  0.97790567  0.58470509  0.81702241  1
  O  O476  1  0.97813737  0.91591619  0.06652042  1
  O  O477  1  0.97868808  0.91718254  0.31858395  1
  O  O478  1  0.97895973  0.91711578  0.56848910  1
  O  O479  1  0.97832655  0.91899586  0.81634558  1
  O  O480  1  0.07102798  0.31410154  0.07183795  1
  O  O481  1  0.07259116  0.31541851  0.32391534  1
  O  O482  1  0.07209830  0.31357168  0.57417712  1
  O  O483  1  0.07182192  0.31487639  0.82310661  1
  O  O484  1  0.07362574  0.64517442  0.07495257  1
  O  O485  1  0.07385056  0.64583426  0.32550908  1
  O  O486  1  0.07319006  0.64618704  0.57357572  1
  O  O487  1  0.07262320  0.64840383  0.82431430  1
  O  O488  1  0.07356887  0.97960405  0.07436055  1
  O  O489  1  0.07394703  0.98089219  0.32519849  1
  O  O490  1  0.07423492  0.98098854  0.57552677  1
  O  O491  1  0.07308611  0.98264450  0.82453330  1
  O  O492  1  0.57255807  0.31465299  0.07449117  1
  O  O493  1  0.57375949  0.31276261  0.32611320  1
  O  O494  1  0.57221786  0.31315603  0.57403520  1
  O  O495  1  0.57281312  0.31398674  0.82397867  1
  O  O496  1  0.57234097  0.64865724  0.07405757  1
  O  O497  1  0.57407228  0.64660657  0.32545603  1
  O  O498  1  0.57312472  0.64731540  0.57420575  1
  O  O499  1  0.57310095  0.64492319  0.82414740  1
  O  O500  1  0.57291286  0.98139018  0.07456996  1
  O  O501  1  0.57230362  0.98021347  0.32383429  1
  O  O502  1  0.57329153  0.97965012  0.57288205  1
  O  O503  1  0.57345509  0.98106101  0.82337440  1
  O  O504  1  0.42663698  0.01874497  0.17655463  1
  O  O505  1  0.42721370  0.01893259  0.42656413  1
  O  O506  1  0.42733695  0.01788979  0.67498569  1
  O  O507  1  0.42669096  0.01816767  0.92573176  1
  O  O508  1  0.42595004  0.35295655  0.17522829  1
  O  O509  1  0.42626790  0.35136629  0.42668606  1
  O  O510  1  0.42793745  0.35223184  0.67692737  1
  O  O511  1  0.42653576  0.35134186  0.92558775  1
  O  O512  1  0.42683450  0.68821607  0.17581069  1
  O  O513  1  0.42850049  0.68651202  0.42605774  1
  O  O514  1  0.42627828  0.68650971  0.67366926  1
  O  O515  1  0.42731146  0.68493466  0.92548426  1
  O  O516  1  0.92635216  0.02027344  0.17419616  1
  O  O517  1  0.92663235  0.02176289  0.42579533  1
  O  O518  1  0.92796071  0.02031061  0.67609802  1
  O  O519  1  0.92623371  0.02230186  0.92438841  1
  O  O520  1  0.92714845  0.35202681  0.17560863  1
  O  O521  1  0.92679772  0.35321525  0.42727833  1
  O  O522  1  0.92715074  0.35250242  0.67560987  1
  O  O523  1  0.92769785  0.35393602  0.92664084  1
  O  O524  1  0.92655563  0.68598692  0.17432193  1
  O  O525  1  0.92766500  0.68504285  0.42649361  1
  O  O526  1  0.92774469  0.68499842  0.67628050  1
  O  O527  1  0.92645096  0.68851873  0.92541605  1
  O  O528  1  0.17663307  0.02062175  0.19996739  1
  O  O529  1  0.17664853  0.02108855  0.45050239  1
  O  O530  1  0.17688191  0.02135820  0.69983400  1
  O  O531  1  0.17695847  0.02120124  0.94945780  1
  O  O532  1  0.17666529  0.35131128  0.19905398  1
  O  O533  1  0.17656917  0.35267555  0.45155049  1
  O  O534  1  0.17850275  0.35282176  0.69816883  1
  O  O535  1  0.17585700  0.35242473  0.94970436  1
  O  O536  1  0.17630942  0.68628121  0.20092794  1
  O  O537  1  0.17839771  0.68560379  0.44923847  1
  O  O538  1  0.17640321  0.68770875  0.69870869  1
  O  O539  1  0.17661601  0.68502584  0.94806821  1
  O  O540  1  0.67716990  0.01756185  0.19933014  1
  O  O541  1  0.67607028  0.01988886  0.45030098  1
  O  O542  1  0.67591130  0.01994514  0.69966324  1
  O  O543  1  0.67582231  0.02029111  0.94993324  1
  O  O544  1  0.67785048  0.35372654  0.19927190  1
  O  O545  1  0.67699883  0.35528482  0.44925771  1
  O  O546  1  0.67716832  0.35317844  0.69855678  1
  O  O547  1  0.67626044  0.35449286  0.95118255  1
  O  O548  1  0.67703913  0.68450483  0.19991945  1
  O  O549  1  0.67825587  0.68641484  0.44865181  1
  O  O550  1  0.67736564  0.68640041  0.69757688  1
  O  O551  1  0.67677535  0.68524533  0.94892670  1
  O  O552  1  0.32151396  0.31298176  0.05163028  1
  O  O553  1  0.32317323  0.31148579  0.30081977  1
  O  O554  1  0.32170377  0.31303152  0.55252615  1
  O  O555  1  0.32238663  0.31256313  0.80015448  1
  O  O556  1  0.32383497  0.64614379  0.05001503  1
  O  O557  1  0.32408536  0.64690124  0.30143956  1
  O  O558  1  0.32369859  0.64555266  0.55016666  1
  O  O559  1  0.32306175  0.64760991  0.79970682  1
  O  O560  1  0.32389184  0.98010402  0.04974475  1
  O  O561  1  0.32330193  0.97927222  0.30076249  1
  O  O562  1  0.32300900  0.97876449  0.54893950  1
  O  O563  1  0.32393306  0.98046824  0.79845798  1
  O  O564  1  0.82241311  0.31572193  0.05144362  1
  O  O565  1  0.82387867  0.31391034  0.29952828  1
  O  O566  1  0.82222664  0.31603143  0.55098585  1
  O  O567  1  0.82369087  0.31449394  0.80014345  1
  O  O568  1  0.82241085  0.64761446  0.05231409  1
  O  O569  1  0.82277910  0.64668816  0.30143350  1
  O  O570  1  0.82309222  0.64866003  0.55049214  1
  O  O571  1  0.82294138  0.64881584  0.80147667  1
  O  O572  1  0.82288238  0.98117119  0.05087793  1
  O  O573  1  0.82346925  0.97832796  0.30058732  1
  O  O574  1  0.82361383  0.97847313  0.54983119  1
  O  O575  1  0.82359130  0.97976283  0.79886054  1
  O  O576  1  0.42734461  0.14580613  0.17554273  1
  O  O577  1  0.42840762  0.14626629  0.42735072  1
  O  O578  1  0.42694785  0.14492408  0.67475567  1
  O  O579  1  0.42654850  0.14528889  0.92491537  1
  O  O580  1  0.42592026  0.47997860  0.17454168  1
  O  O581  1  0.42640870  0.47857968  0.42645336  1
  O  O582  1  0.42802955  0.47966293  0.67630286  1
  O  O583  1  0.42613626  0.47831021  0.92457333  1
  O  O584  1  0.42686716  0.81526887  0.17571151  1
  O  O585  1  0.42891803  0.81396681  0.42704970  1
  O  O586  1  0.42678695  0.81321299  0.67369236  1
  O  O587  1  0.42684121  0.81224887  0.92465526  1
  O  O588  1  0.92541908  0.14721764  0.17437978  1
  O  O589  1  0.92640237  0.14897980  0.42623202  1
  O  O590  1  0.92717468  0.14777526  0.67650535  1
  O  O591  1  0.92651751  0.14928986  0.92453706  1
  O  O592  1  0.92705890  0.47893880  0.17561699  1
  O  O593  1  0.92850713  0.48045326  0.42754753  1
  O  O594  1  0.92696275  0.47942712  0.67480021  1
  O  O595  1  0.92735563  0.48138112  0.92624518  1
  O  O596  1  0.92596179  0.81296953  0.17540046  1
  O  O597  1  0.92759722  0.81232322  0.42599558  1
  O  O598  1  0.92749734  0.81210786  0.67441243  1
  O  O599  1  0.92728004  0.81575726  0.92548835  1
  O  O600  1  0.07175362  0.18680938  0.07266158  1
  O  O601  1  0.07277958  0.18853218  0.32455174  1
  O  O602  1  0.07157471  0.18643713  0.57351266  1
  O  O603  1  0.07214666  0.18771197  0.82305969  1
  O  O604  1  0.07310751  0.51794047  0.07400498  1
  O  O605  1  0.07394422  0.51912919  0.32638906  1
  O  O606  1  0.07163369  0.51880450  0.57397154  1
  O  O607  1  0.07356019  0.52131430  0.82445391  1
  O  O608  1  0.07318398  0.85232399  0.07363028  1
  O  O609  1  0.07421472  0.85371963  0.32538498  1
  O  O610  1  0.07447075  0.85401714  0.57631163  1
  O  O611  1  0.07389429  0.85543621  0.82463791  1
  O  O612  1  0.57312219  0.18734323  0.07459324  1
  O  O613  1  0.57408304  0.18606268  0.32621936  1
  O  O614  1  0.57115403  0.18568657  0.57405011  1
  O  O615  1  0.57309168  0.18698437  0.82532350  1
  O  O616  1  0.57295557  0.52135798  0.07481839  1
  O  O617  1  0.57306578  0.51967360  0.32566729  1
  O  O618  1  0.57383816  0.52014775  0.57452933  1
  O  O619  1  0.57287553  0.51778849  0.82443628  1
  O  O620  1  0.57362811  0.85448304  0.07484806  1
  O  O621  1  0.57242643  0.85292877  0.32360919  1
  O  O622  1  0.57195129  0.85242576  0.57244481  1
  O  O623  1  0.57342455  0.85384732  0.82473365  1
  O  O624  1  0.32202451  0.18565419  0.05179440  1
  O  O625  1  0.32314676  0.18460077  0.30116140  1
  O  O626  1  0.32253324  0.18569745  0.55209431  1
  O  O627  1  0.32329268  0.18560159  0.80068028  1
  O  O628  1  0.32404985  0.51924297  0.04912888  1
  O  O629  1  0.32353997  0.51960529  0.30090755  1
  O  O630  1  0.32337679  0.51853096  0.55082277  1
  O  O631  1  0.32288519  0.52034008  0.80010659  1
  O  O632  1  0.32370688  0.85293732  0.04942417  1
  O  O633  1  0.32322726  0.85209078  0.30133162  1
  O  O634  1  0.32294455  0.85153196  0.55032405  1
  O  O635  1  0.32450286  0.85354881  0.79904469  1
  O  O636  1  0.82317802  0.18836239  0.05049124  1
  O  O637  1  0.82347167  0.18690357  0.29895274  1
  O  O638  1  0.82286725  0.18865545  0.55035356  1
  O  O639  1  0.82329699  0.18759594  0.79937167  1
  O  O640  1  0.82252048  0.52039721  0.05184179  1
  O  O641  1  0.82274807  0.51949819  0.30169883  1
  O  O642  1  0.82329548  0.52178380  0.55023734  1
  O  O643  1  0.82301665  0.52169623  0.80024772  1
  O  O644  1  0.82313600  0.85383409  0.05014458  1
  O  O645  1  0.82357734  0.85122544  0.30013199  1
  O  O646  1  0.82374288  0.85134586  0.55113313  1
  O  O647  1  0.82423733  0.85284777  0.79991600  1
  O  O648  1  0.17611316  0.14766948  0.19899389  1
  O  O649  1  0.17706516  0.14824569  0.44926172  1
  O  O650  1  0.17683212  0.14835568  0.69871400  1
  O  O651  1  0.17645900  0.14831230  0.94884431  1
  O  O652  1  0.17689166  0.47865764  0.19993620  1
  O  O653  1  0.17657179  0.47937025  0.45102064  1
  O  O654  1  0.17755447  0.48043984  0.69826734  1
  O  O655  1  0.17591539  0.47918277  0.95045547  1
  O  O656  1  0.17637397  0.81302235  0.20039038  1
  O  O657  1  0.17817274  0.81316297  0.44813792  1
  O  O658  1  0.17696224  0.81482245  0.69904986  1
  O  O659  1  0.17691186  0.81236637  0.94889684  1
  O  O660  1  0.67613426  0.14495053  0.20006057  1
  O  O661  1  0.67657122  0.14705396  0.44993467  1
  O  O662  1  0.67541873  0.14701487  0.69976719  1
  O  O663  1  0.67615284  0.14730019  0.95104537  1
  O  O664  1  0.67709142  0.48116061  0.19848105  1
  O  O665  1  0.67691742  0.48234186  0.44947916  1
  O  O666  1  0.67663591  0.48040050  0.69945967  1
  O  O667  1  0.67603021  0.48117944  0.95096304  1
  O  O668  1  0.67675370  0.81145915  0.20005401  1
  O  O669  1  0.67830394  0.81360809  0.44794078  1
  O  O670  1  0.67760024  0.81368753  0.69776429  1
  O  O671  1  0.67672933  0.81235834  0.94998098  1
