# generated using pymatgen
data_Na2MnFe(PO4)2
_symmetry_space_group_name_H-M   'P 1'
_cell_length_a   22.34708041
_cell_length_b   20.09582617
_cell_length_c   19.44620312
_cell_angle_alpha   89.97714909
_cell_angle_beta   90.01488643
_cell_angle_gamma   90.03851110
_symmetry_Int_Tables_number   1
_chemical_formula_structural   Na2MnFe(PO4)2
_chemical_formula_sum   'Na96 Mn48 Fe48 P96 O384'
_cell_volume   8732.95711935
_cell_formula_units_Z   48
loop_
 _symmetry_equiv_pos_site_id
 _symmetry_equiv_pos_as_xyz
  1  'x, y, z'
loop_
 _atom_site_type_symbol
 _atom_site_label
 _atom_site_symmetry_multiplicity
 _atom_site_fract_x
 _atom_site_fract_y
 _atom_site_fract_z
 _atom_site_occupancy
  Na  Na0  1  0.13959242  0.25110534  0.24213335  1
  Na  Na1  1  0.13976299  0.25182911  0.49340381  1
  Na  Na2  1  0.13945619  0.24896032  0.74332075  1
  Na  Na3  1  0.13950554  0.25017606  0.99289960  1
  Na  Na4  1  0.14059028  0.58487635  0.24335726  1
  Na  Na5  1  0.14086892  0.58399280  0.49409031  1
  Na  Na6  1  0.14108724  0.58219928  0.74490123  1
  Na  Na7  1  0.13989908  0.58347508  0.99448086  1
  Na  Na8  1  0.14057956  0.91629873  0.24297853  1
  Na  Na9  1  0.14022079  0.91524722  0.49420407  1
  Na  Na10  1  0.14047997  0.91491151  0.74249185  1
  Na  Na11  1  0.14096175  0.91654752  0.99439039  1
  Na  Na12  1  0.64022105  0.25073449  0.24427867  1
  Na  Na13  1  0.64001232  0.24996129  0.49377312  1
  Na  Na14  1  0.63949950  0.25026369  0.74349747  1
  Na  Na15  1  0.63987712  0.25086131  0.99314464  1
  Na  Na16  1  0.64075705  0.58401314  0.24314185  1
  Na  Na17  1  0.64067760  0.58432469  0.49410792  1
  Na  Na18  1  0.64086662  0.58432633  0.74318936  1
  Na  Na19  1  0.64046606  0.58340080  0.99545973  1
  Na  Na20  1  0.63996361  0.91561675  0.24334493  1
  Na  Na21  1  0.64023391  0.91723783  0.49308761  1
  Na  Na22  1  0.64052080  0.91592338  0.74349634  1
  Na  Na23  1  0.64040727  0.91606268  0.99440102  1
  Na  Na24  1  0.35909250  0.08300650  0.00573833  1
  Na  Na25  1  0.35950857  0.08349372  0.25599931  1
  Na  Na26  1  0.35961088  0.08374485  0.50687687  1
  Na  Na27  1  0.35921788  0.08270901  0.75509270  1
  Na  Na28  1  0.36003926  0.41695587  0.00720904  1
  Na  Na29  1  0.35902329  0.41814383  0.25527273  1
  Na  Na30  1  0.35905302  0.41809966  0.50634871  1
  Na  Na31  1  0.35975527  0.41465338  0.75711759  1
  Na  Na32  1  0.35977871  0.74955964  0.00762093  1
  Na  Na33  1  0.36034124  0.74900112  0.25673961  1
  Na  Na34  1  0.35975662  0.75012992  0.50674314  1
  Na  Na35  1  0.36002735  0.74956519  0.75565984  1
  Na  Na36  1  0.85969406  0.08458872  0.00613062  1
  Na  Na37  1  0.85909916  0.08394607  0.25622752  1
  Na  Na38  1  0.85931160  0.08337031  0.50553294  1
  Na  Na39  1  0.85980557  0.08377841  0.75627392  1
  Na  Na40  1  0.85988830  0.41704374  0.00800317  1
  Na  Na41  1  0.85956129  0.41547233  0.25556200  1
  Na  Na42  1  0.85987723  0.41629078  0.50592213  1
  Na  Na43  1  0.85974273  0.41603803  0.75631594  1
  Na  Na44  1  0.86016780  0.74901150  0.00777490  1
  Na  Na45  1  0.86070776  0.74983403  0.25622773  1
  Na  Na46  1  0.85990500  0.75014961  0.50639569  1
  Na  Na47  1  0.86013155  0.74983119  0.75550449  1
  Na  Na48  1  0.10925596  0.08516746  0.11811021  1
  Na  Na49  1  0.10931527  0.08367261  0.36809754  1
  Na  Na50  1  0.10903332  0.08333814  0.61849865  1
  Na  Na51  1  0.10929243  0.08403409  0.86802068  1
  Na  Na52  1  0.10906311  0.41681446  0.11760184  1
  Na  Na53  1  0.10939175  0.41676530  0.36832449  1
  Na  Na54  1  0.10982878  0.41586408  0.61932859  1
  Na  Na55  1  0.10949624  0.41579864  0.86933582  1
  Na  Na56  1  0.11036089  0.74888661  0.11873860  1
  Na  Na57  1  0.11022616  0.75004072  0.36849886  1
  Na  Na58  1  0.11043994  0.75013049  0.61837967  1
  Na  Na59  1  0.10988905  0.74900053  0.86969932  1
  Na  Na60  1  0.60903807  0.08210219  0.11900174  1
  Na  Na61  1  0.60905471  0.08282176  0.36898422  1
  Na  Na62  1  0.60907528  0.08405325  0.61891501  1
  Na  Na63  1  0.60943911  0.08383950  0.86825671  1
  Na  Na64  1  0.60969441  0.41649863  0.11808223  1
  Na  Na65  1  0.60960315  0.41719251  0.36871525  1
  Na  Na66  1  0.60938445  0.41664981  0.61841232  1
  Na  Na67  1  0.60941595  0.41637809  0.86974139  1
  Na  Na68  1  0.61022810  0.74932866  0.11900809  1
  Na  Na69  1  0.60995637  0.75102682  0.36807713  1
  Na  Na70  1  0.61022957  0.75185320  0.61766325  1
  Na  Na71  1  0.61007719  0.75040781  0.86979381  1
  Na  Na72  1  0.38990013  0.24958790  0.13071259  1
  Na  Na73  1  0.39023293  0.24930176  0.38112612  1
  Na  Na74  1  0.39027334  0.25013328  0.63156511  1
  Na  Na75  1  0.39004943  0.25019580  0.88106305  1
  Na  Na76  1  0.39001002  0.58333641  0.13236412  1
  Na  Na77  1  0.38977037  0.58423122  0.38125334  1
  Na  Na78  1  0.39052112  0.58471796  0.63132491  1
  Na  Na79  1  0.39069028  0.58275339  0.88246614  1
  Na  Na80  1  0.39091442  0.91476810  0.13207068  1
  Na  Na81  1  0.39067704  0.91643034  0.38125514  1
  Na  Na82  1  0.39014110  0.91817422  0.63142703  1
  Na  Na83  1  0.39028362  0.91619961  0.87994756  1
  Na  Na84  1  0.89011903  0.25078970  0.13106754  1
  Na  Na85  1  0.88989097  0.25001513  0.38046935  1
  Na  Na86  1  0.89047594  0.25034045  0.63042792  1
  Na  Na87  1  0.89031268  0.25046342  0.88171463  1
  Na  Na88  1  0.89049364  0.58304050  0.13217792  1
  Na  Na89  1  0.89082145  0.58377536  0.38120034  1
  Na  Na90  1  0.89033218  0.58313850  0.63189679  1
  Na  Na91  1  0.89077612  0.58236195  0.88205209  1
  Na  Na92  1  0.89078305  0.91626695  0.13192335  1
  Na  Na93  1  0.89043454  0.91571580  0.38051621  1
  Na  Na94  1  0.89031725  0.91633160  0.63113458  1
  Na  Na95  1  0.89107821  0.91606588  0.88090090  1
  Mn  Mn96  1  0.75066089  0.66653729  0.87507129  1
  Mn  Mn97  1  0.00024797  -0.00005914  0.74967127  1
  Mn  Mn98  1  0.75060535  0.33381785  0.62493145  1
  Mn  Mn99  1  0.74894662  0.16771437  0.12587912  1
  Mn  Mn100  1  0.25040559  0.49974910  0.62514270  1
  Mn  Mn101  1  0.24944202  0.16672481  0.62459929  1
  Mn  Mn102  1  -0.00006176  0.16754348  0.49900169  1
  Mn  Mn103  1  0.50045117  0.49989868  0.75051079  1
  Mn  Mn104  1  0.00043148  0.00077968  0.00023159  1
  Mn  Mn105  1  0.25010322  0.83244889  0.87467984  1
  Mn  Mn106  1  0.50080929  0.66828440  0.75138991  1
  Mn  Mn107  1  0.75005316  0.16687581  0.62478308  1
  Mn  Mn108  1  0.50037439  0.16548289  0.24998872  1
  Mn  Mn109  1  0.49945092  0.16668071  -0.00050231  1
  Mn  Mn110  1  0.49957587  0.50132259  0.49982967  1
  Mn  Mn111  1  0.25076056  0.83255096  0.37489380  1
  Mn  Mn112  1  0.25017515  0.66542707  0.87585951  1
  Mn  Mn113  1  0.75009715  -0.00073204  0.37500766  1
  Mn  Mn114  1  0.74956531  -0.00027518  0.12544396  1
  Mn  Mn115  1  0.74923561  0.33338865  0.87546132  1
  Mn  Mn116  1  -0.00043560  -0.00069066  0.49914472  1
  Mn  Mn117  1  0.49997180  0.83406704  0.49934289  1
  Mn  Mn118  1  0.00043427  0.49909686  0.50032892  1
  Mn  Mn119  1  0.25034651  0.33522595  0.37361607  1
  Mn  Mn120  1  0.74924628  -0.00037921  0.62476492  1
  Mn  Mn121  1  0.49924312  0.33297191  0.49993910  1
  Mn  Mn122  1  0.00100035  0.66686802  0.75085674  1
  Mn  Mn123  1  0.49963002  0.66669892  0.00011844  1
  Mn  Mn124  1  0.00074886  0.83244289  0.00072892  1
  Mn  Mn125  1  0.49974303  -0.00164382  -0.00110642  1
  Mn  Mn126  1  0.24987796  0.00056351  0.12448604  1
  Mn  Mn127  1  0.25005457  -0.00013193  0.87471479  1
  Mn  Mn128  1  0.75080652  0.66716927  0.37459097  1
  Mn  Mn129  1  0.00039836  0.66750165  0.50093796  1
  Mn  Mn130  1  0.24957112  -0.00000907  0.37468758  1
  Mn  Mn131  1  0.24936045  0.16774066  0.37563324  1
  Mn  Mn132  1  0.49956869  0.50072011  0.24998031  1
  Mn  Mn133  1  0.00001256  0.49966245  0.24984630  1
  Mn  Mn134  1  0.75058579  0.00045380  0.87485580  1
  Mn  Mn135  1  0.75052652  0.49957770  0.37445046  1
  Mn  Mn136  1  0.24966898  0.33270933  0.87571279  1
  Mn  Mn137  1  0.75058563  0.50026919  0.87536325  1
  Mn  Mn138  1  0.50029737  0.00030497  0.74992990  1
  Mn  Mn139  1  0.00036343  0.49891194  0.75095139  1
  Mn  Mn140  1  0.49951736  0.33335646  0.25011959  1
  Mn  Mn141  1  0.24958772  0.33398378  0.12458988  1
  Mn  Mn142  1  -0.00009053  0.00041043  0.24957601  1
  Mn  Mn143  1  0.75027570  0.83300616  0.87489850  1
  Fe  Fe144  1  0.75033433  0.66687601  0.62423151  1
  Fe  Fe145  1  0.24935996  0.50117247  0.37549881  1
  Fe  Fe146  1  0.75082422  0.83313616  0.12476310  1
  Fe  Fe147  1  0.25073668  0.49962519  0.87537691  1
  Fe  Fe148  1  0.00037746  0.83295401  0.75067177  1
  Fe  Fe149  1  0.24949908  0.16713325  0.12476557  1
  Fe  Fe150  1  0.74928156  0.33381817  0.37517199  1
  Fe  Fe151  1  0.24965972  0.33338675  0.62521681  1
  Fe  Fe152  1  0.50038053  0.66764822  0.50011827  1
  Fe  Fe153  1  -0.00057697  0.16727397  0.74943482  1
  Fe  Fe154  1  0.49931408  0.16721687  0.74973966  1
  Fe  Fe155  1  0.24975814  0.66669059  0.37488793  1
  Fe  Fe156  1  -0.00019395  0.49952912  0.00047474  1
  Fe  Fe157  1  0.00021424  0.83328472  0.49971836  1
  Fe  Fe158  1  0.24933866  0.16610106  0.87426664  1
  Fe  Fe159  1  0.25085064  0.66588610  0.62500653  1
  Fe  Fe160  1  0.49995876  0.00026298  0.50009850  1
  Fe  Fe161  1  -0.00016376  0.33275507  -0.00035245  1
  Fe  Fe162  1  0.50036062  0.83411765  0.74944388  1
  Fe  Fe163  1  -0.00038794  0.66631144  0.00044911  1
  Fe  Fe164  1  0.25056157  0.66632545  0.12550575  1
  Fe  Fe165  1  0.74955012  0.16698507  0.87541208  1
  Fe  Fe166  1  0.49931754  -0.00057382  0.25001258  1
  Fe  Fe167  1  0.24946119  0.50098171  0.12562619  1
  Fe  Fe168  1  0.00080564  0.83298823  0.24997739  1
  Fe  Fe169  1  0.00062178  0.66637652  0.25017213  1
  Fe  Fe170  1  0.75057280  0.83324429  0.62455409  1
  Fe  Fe171  1  0.75050904  0.66679083  0.12548204  1
  Fe  Fe172  1  0.25071674  0.83303135  0.12514047  1
  Fe  Fe173  1  -0.00060874  0.16731527  0.24921718  1
  Fe  Fe174  1  0.74990263  0.50000849  0.62469678  1
  Fe  Fe175  1  0.49985433  0.33294855  -0.00009539  1
  Fe  Fe176  1  0.24905378  -0.00052681  0.62503870  1
  Fe  Fe177  1  0.50019077  0.83278991  0.25065847  1
  Fe  Fe178  1  -0.00052756  0.16756226  -0.00077315  1
  Fe  Fe179  1  0.25028302  0.83233862  0.62455865  1
  Fe  Fe180  1  0.49983064  0.16639232  0.50031419  1
  Fe  Fe181  1  0.50057611  0.66654678  0.24996412  1
  Fe  Fe182  1  0.50014789  0.49969105  0.00037746  1
  Fe  Fe183  1  0.75009830  0.83288768  0.37450960  1
  Fe  Fe184  1  0.49985660  0.33355263  0.74990015  1
  Fe  Fe185  1  0.74991208  0.33346288  0.12544681  1
  Fe  Fe186  1  0.50010976  0.83271477  0.00091400  1
  Fe  Fe187  1  -0.00068534  0.33315467  0.75041961  1
  Fe  Fe188  1  0.74934250  0.16705825  0.37496593  1
  Fe  Fe189  1  -0.00024508  0.33295124  0.24877375  1
  Fe  Fe190  1  0.00006117  0.33297684  0.49954206  1
  Fe  Fe191  1  0.74988582  0.49986558  0.12559656  1
  P  P192  1  0.04111030  0.25028294  0.10168847  1
  P  P193  1  0.04152009  0.25045062  0.35081177  1
  P  P194  1  0.04200702  0.25124366  0.60285360  1
  P  P195  1  0.04090043  0.25018577  0.85198207  1
  P  P196  1  0.04092974  0.58340442  0.10214099  1
  P  P197  1  0.04241923  0.58421322  0.35244410  1
  P  P198  1  0.04318465  0.58301432  0.60362796  1
  P  P199  1  0.04286288  0.58259328  0.85472104  1
  P  P200  1  0.04294735  0.91651360  0.10374471  1
  P  P201  1  0.04252349  0.91533524  0.35225133  1
  P  P202  1  0.04185869  0.91526914  0.60263208  1
  P  P203  1  0.04289828  0.91550953  0.85250546  1
  P  P204  1  0.54203868  0.25052071  0.10219791  1
  P  P205  1  0.54230199  0.24930236  0.35360260  1
  P  P206  1  0.54170102  0.24879309  0.60305785  1
  P  P207  1  0.54094042  0.25069328  0.85176707  1
  P  P208  1  0.54167569  0.58253619  0.10290333  1
  P  P209  1  0.54256292  0.58529831  0.35281044  1
  P  P210  1  0.54235210  0.58538007  0.60266273  1
  P  P211  1  0.54304893  0.58312457  0.85416312  1
  P  P212  1  0.54205208  0.91493663  0.10346181  1
  P  P213  1  0.54124695  0.91713765  0.35177634  1
  P  P214  1  0.54224500  0.91830013  0.60232644  1
  P  P215  1  0.54259733  0.91503811  0.85263069  1
  P  P216  1  0.45736002  0.08126924  0.14731853  1
  P  P217  1  0.45816800  0.08267302  0.39829136  1
  P  P218  1  0.45782074  0.08491857  0.64697391  1
  P  P219  1  0.45712550  0.08330153  0.89602802  1
  P  P220  1  0.45731357  0.41678433  0.14602250  1
  P  P221  1  0.45661456  0.41726940  0.39697601  1
  P  P222  1  0.45754472  0.41597061  0.64780978  1
  P  P223  1  0.45857936  0.41614187  0.89842511  1
  P  P224  1  0.45915366  0.74965929  0.14853671  1
  P  P225  1  0.45815246  0.74886158  0.39688436  1
  P  P226  1  0.45851513  0.75178270  0.64720648  1
  P  P227  1  0.45762577  0.75184513  0.89766995  1
  P  P228  1  0.95742465  0.08545170  0.14670387  1
  P  P229  1  0.95708194  0.08368166  0.39583122  1
  P  P230  1  0.95756560  0.08453038  0.64719197  1
  P  P231  1  0.95790763  0.08488832  0.89684544  1
  P  P232  1  0.95796844  0.41539983  0.14652711  1
  P  P233  1  0.95803127  0.41489667  0.39684470  1
  P  P234  1  0.95787033  0.41488547  0.64747466  1
  P  P235  1  0.95837884  0.41594768  0.89870931  1
  P  P236  1  0.95937731  0.74914693  0.14850183  1
  P  P237  1  0.95849225  0.75116661  0.39691248  1
  P  P238  1  0.95861602  0.75145593  0.64769824  1
  P  P239  1  0.95771157  0.74875612  0.89790592  1
  P  P240  1  0.20725844  0.08486220  0.22715774  1
  P  P241  1  0.20680270  0.08294224  0.47859482  1
  P  P242  1  0.20717983  0.08194034  0.72726691  1
  P  P243  1  0.20741879  0.08468965  0.97745237  1
  P  P244  1  0.20711841  0.41905886  0.22747321  1
  P  P245  1  0.20749953  0.41826177  0.47755659  1
  P  P246  1  0.20793896  0.41522341  0.72808094  1
  P  P247  1  0.20808332  0.41841621  0.97812281  1
  P  P248  1  0.20938352  0.74961754  0.22673282  1
  P  P249  1  0.20840292  0.74850048  0.47808391  1
  P  P250  1  0.20908870  0.74861089  0.72642627  1
  P  P251  1  0.20785914  0.74952660  0.97935353  1
  P  P252  1  0.70679387  0.08362749  0.22905667  1
  P  P253  1  0.70767488  0.08416147  0.47703277  1
  P  P254  1  0.70700466  0.08367897  0.72847239  1
  P  P255  1  0.70745157  0.08451422  0.97761585  1
  P  P256  1  0.70815467  0.41632097  0.22700849  1
  P  P257  1  0.70759618  0.41632749  0.47769305  1
  P  P258  1  0.70755132  0.41791654  0.72731725  1
  P  P259  1  0.70761193  0.41724358  0.97948629  1
  P  P260  1  0.70936635  0.75065298  0.22674969  1
  P  P261  1  0.70817255  0.75113447  0.47770908  1
  P  P262  1  0.70886198  0.74988104  0.72594551  1
  P  P263  1  0.70800815  0.74968601  0.97927968  1
  P  P264  1  0.29143347  0.24868517  0.02201789  1
  P  P265  1  0.29249557  0.25029816  0.27101038  1
  P  P266  1  0.29197699  0.25204054  0.52245856  1
  P  P267  1  0.29143262  0.24855158  0.77222650  1
  P  P268  1  0.29167330  0.58282842  0.02365746  1
  P  P269  1  0.29119760  0.58353971  0.27313805  1
  P  P270  1  0.29249807  0.58447769  0.52195296  1
  P  P271  1  0.29301590  0.58167248  0.77273465  1
  P  P272  1  0.29250798  0.91557871  0.02272890  1
  P  P273  1  0.29271533  0.91627347  0.27127677  1
  P  P274  1  0.29119726  0.91657572  0.52353406  1
  P  P275  1  0.29218043  0.91605705  0.77064314  1
  P  P276  1  0.79165995  0.25121092  0.02276996  1
  P  P277  1  0.79072934  0.25099949  0.27338881  1
  P  P278  1  0.79242447  0.25023019  0.52069079  1
  P  P279  1  0.79200587  0.24915594  0.77301063  1
  P  P280  1  0.79172717  0.58314562  0.02431383  1
  P  P281  1  0.79300777  0.58319344  0.27092791  1
  P  P282  1  0.79202717  0.58305973  0.52317294  1
  P  P283  1  0.79313971  0.58339183  0.77089266  1
  P  P284  1  0.79283641  0.91592450  0.02271393  1
  P  P285  1  0.79227941  0.91480460  0.27192040  1
  P  P286  1  0.79207124  0.91528972  0.52195171  1
  P  P287  1  0.79311027  0.91626257  0.77129063  1
  O  O288  1  0.03588084  0.25012624  0.18157897  1
  O  O289  1  0.03663816  0.25097591  0.43081073  1
  O  O290  1  0.03633714  0.25078003  0.68270469  1
  O  O291  1  0.03570779  0.25002019  0.93191080  1
  O  O292  1  0.03620825  0.58352271  0.18215293  1
  O  O293  1  0.03728810  0.58402563  0.43237825  1
  O  O294  1  0.03827780  0.58284923  0.68361290  1
  O  O295  1  0.03715158  0.58283672  0.93460127  1
  O  O296  1  0.03751051  0.91621759  0.18367683  1
  O  O297  1  0.03717220  0.91511818  0.43224228  1
  O  O298  1  0.03661924  0.91531417  0.68259978  1
  O  O299  1  0.03769336  0.91600201  0.93248412  1
  O  O300  1  0.53712403  0.24999225  0.18217121  1
  O  O301  1  0.53682271  0.24887241  0.43352045  1
  O  O302  1  0.53620769  0.24906977  0.68298534  1
  O  O303  1  0.53580538  0.25106380  0.93175652  1
  O  O304  1  0.53661049  0.58324188  0.18287635  1
  O  O305  1  0.53751645  0.58567184  0.43278914  1
  O  O306  1  0.53739713  0.58495983  0.68266074  1
  O  O307  1  0.53755864  0.58252585  0.93410298  1
  O  O308  1  0.53642842  0.91561274  0.18332289  1
  O  O309  1  0.53639589  0.91729063  0.43174680  1
  O  O310  1  0.53733609  0.91759034  0.68226870  1
  O  O311  1  0.53724788  0.91460713  0.93258823  1
  O  O312  1  0.46237076  0.08141996  0.06735831  1
  O  O313  1  0.46335432  0.08211279  0.31830476  1
  O  O314  1  0.46310661  0.08482371  0.56706564  1
  O  O315  1  0.46257446  0.08404489  0.81611608  1
  O  O316  1  0.46283720  0.41685132  0.06609376  1
  O  O317  1  0.46165580  0.41744201  0.31700481  1
  O  O318  1  0.46243600  0.41646851  0.56784744  1
  O  O319  1  0.46374153  0.41586040  0.81842998  1
  O  O320  1  0.46367874  0.75024186  0.06853562  1
  O  O321  1  0.46352632  0.74874946  0.31700276  1
  O  O322  1  0.46371002  0.75100164  0.56724127  1
  O  O323  1  0.46302264  0.75202838  0.81772150  1
  O  O324  1  0.96293819  0.08546982  0.06673089  1
  O  O325  1  0.96229513  0.08411760  0.31586825  1
  O  O326  1  0.96273854  0.08423269  0.56720567  1
  O  O327  1  0.96329270  0.08493052  0.81687380  1
  O  O328  1  0.96326774  0.41559576  0.06667384  1
  O  O329  1  0.96336129  0.41502600  0.31687960  1
  O  O330  1  0.96325066  0.41483840  0.56752470  1
  O  O331  1  0.96301489  0.41592044  0.81870167  1
  O  O332  1  0.96408515  0.74853432  0.06851829  1
  O  O333  1  0.96410903  0.75071294  0.31704182  1
  O  O334  1  0.96368781  0.75178353  0.56771141  1
  O  O335  1  0.96320463  0.74945562  0.81799205  1
  O  O336  1  0.21272223  0.08514872  0.05743468  1
  O  O337  1  0.21214885  0.08454492  0.30718889  1
  O  O338  1  0.21196814  0.08242807  0.55857139  1
  O  O339  1  0.21251960  0.08245332  0.80722451  1
  O  O340  1  0.21315788  0.41861319  0.05808160  1
  O  O341  1  0.21245382  0.41926226  0.30742603  1
  O  O342  1  0.21290335  0.41712498  0.55749958  1
  O  O343  1  0.21316578  0.41559897  0.80801808  1
  O  O344  1  0.21338256  0.74983492  0.05923958  1
  O  O345  1  0.21382544  0.74912971  0.30676224  1
  O  O346  1  0.21387802  0.74852820  0.55793397  1
  O  O347  1  0.21374286  0.74882422  0.80644496  1
  O  O348  1  0.71222165  0.08425355  0.05766477  1
  O  O349  1  0.71230876  0.08391060  0.30896903  1
  O  O350  1  0.71258794  0.08372938  0.55702475  1
  O  O351  1  0.71223945  0.08412110  0.80845952  1
  O  O352  1  0.71287431  0.41703999  0.05941494  1
  O  O353  1  0.71329041  0.41592113  0.30701025  1
  O  O354  1  0.71298025  0.41710010  0.55763242  1
  O  O355  1  0.71259847  0.41753046  0.80733037  1
  O  O356  1  0.71338561  0.74983826  0.05919402  1
  O  O357  1  0.71399865  0.75081968  0.30677372  1
  O  O358  1  0.71362484  0.75090821  0.55759147  1
  O  O359  1  0.71365881  0.74965543  0.80598511  1
  O  O360  1  0.28712299  0.24968694  0.19101733  1
  O  O361  1  0.28693502  0.25195693  0.44245349  1
  O  O362  1  0.28617995  0.24967889  0.69229517  1
  O  O363  1  0.28612463  0.24836385  0.94205701  1
  O  O364  1  0.28592869  0.58346142  0.19323520  1
  O  O365  1  0.28673871  0.58433713  0.44212520  1
  O  O366  1  0.28785964  0.58238038  0.69280059  1
  O  O367  1  0.28723438  0.58247956  0.94364362  1
  O  O368  1  0.28743341  0.91595875  0.19135026  1
  O  O369  1  0.28667771  0.91635114  0.44346719  1
  O  O370  1  0.28660755  0.91632405  0.69075636  1
  O  O371  1  0.28748982  0.91560228  0.94273259  1
  O  O372  1  0.78551844  0.25150470  0.19339879  1
  O  O373  1  0.78673381  0.25028902  0.44081919  1
  O  O374  1  0.78723700  0.24960625  0.69300084  1
  O  O375  1  0.78658143  0.25047149  0.94282428  1
  O  O376  1  0.78760285  0.58306061  0.19106086  1
  O  O377  1  0.78724553  0.58317433  0.44311278  1
  O  O378  1  0.78785560  0.58327851  0.69096948  1
  O  O379  1  0.78726767  0.58348968  0.94425493  1
  O  O380  1  0.78698084  0.91494160  0.19196275  1
  O  O381  1  0.78678828  0.91515951  0.44197763  1
  O  O382  1  0.78779085  0.91596899  0.69130053  1
  O  O383  1  0.78788886  0.91629397  0.94270052  1
  O  O384  1  0.22720955  0.24918060  0.05781351  1
  O  O385  1  0.22815205  0.25090303  0.30627758  1
  O  O386  1  0.22762236  0.25193791  0.55782351  1
  O  O387  1  0.22723239  0.24848345  0.80811598  1
  O  O388  1  0.22735566  0.58321407  0.05916870  1
  O  O389  1  0.22714467  0.58375918  0.30960025  1
  O  O390  1  0.22845979  0.58461395  0.55834105  1
  O  O391  1  0.22867567  0.58117020  0.80836080  1
  O  O392  1  0.22819679  0.91564594  0.05810668  1
  O  O393  1  0.22840099  0.91592764  0.30666498  1
  O  O394  1  0.22699238  0.91637168  0.55913698  1
  O  O395  1  0.22807878  0.91618442  0.80663702  1
  O  O396  1  0.72731685  0.25202226  0.05824916  1
  O  O397  1  0.72671206  0.25110437  0.30966084  1
  O  O398  1  0.72828893  0.25052968  0.55658145  1
  O  O399  1  0.72755808  0.24878030  0.80817999  1
  O  O400  1  0.72752002  0.58272868  0.05989430  1
  O  O401  1  0.72882988  0.58341077  0.30668647  1
  O  O402  1  0.72782421  0.58301346  0.55893574  1
  O  O403  1  0.72885211  0.58338253  0.80652422  1
  O  O404  1  0.72841396  0.91514308  0.05794949  1
  O  O405  1  0.72805171  0.91477874  0.30775747  1
  O  O406  1  0.72778869  0.91497884  0.55762622  1
  O  O407  1  0.72877936  0.91676038  0.80661569  1
  O  O408  1  0.27163111  0.08484945  0.19190608  1
  O  O409  1  0.27120275  0.08347450  0.44342815  1
  O  O410  1  0.27133764  0.08161647  0.69134093  1
  O  O411  1  0.27165437  0.08471383  0.94166079  1
  O  O412  1  0.27137691  0.41881259  0.19177228  1
  O  O413  1  0.27172496  0.41926009  0.44169553  1
  O  O414  1  0.27215360  0.41498282  0.69222951  1
  O  O415  1  0.27231321  0.41774236  0.94235905  1
  O  O416  1  0.27363526  0.74981833  0.19122822  1
  O  O417  1  0.27250029  0.74790531  0.44183997  1
  O  O418  1  0.27328643  0.74842987  0.69070260  1
  O  O419  1  0.27203505  0.74922659  0.94353446  1
  O  O420  1  0.77103014  0.08362079  0.19350423  1
  O  O421  1  0.77192743  0.08415353  0.44155740  1
  O  O422  1  0.77133839  0.08307897  0.69320888  1
  O  O423  1  0.77187218  0.08504885  0.94237746  1
  O  O424  1  0.77230145  0.41647783  0.19092750  1
  O  O425  1  0.77187229  0.41524199  0.44200183  1
  O  O426  1  0.77196484  0.41862204  0.69198221  1
  O  O427  1  0.77186068  0.41656280  0.94383567  1
  O  O428  1  0.77357359  0.75085707  0.19107575  1
  O  O429  1  0.77238718  0.75187481  0.44165037  1
  O  O430  1  0.77307172  0.74981276  0.69024164  1
  O  O431  1  0.77225930  0.74983852  0.94362327  1
  O  O432  1  0.02161088  0.08545074  0.18261746  1
  O  O433  1  0.02136001  0.08336729  0.43128043  1
  O  O434  1  0.02180376  0.08473010  0.68283897  1
  O  O435  1  0.02209043  0.08508378  0.93280061  1
  O  O436  1  0.02206565  0.41525553  0.18269949  1
  O  O437  1  0.02223101  0.41480817  0.43280883  1
  O  O438  1  0.02205436  0.41442198  0.68345221  1
  O  O439  1  0.02255514  0.41557397  0.93454310  1
  O  O440  1  0.02359473  0.74931463  0.18427826  1
  O  O441  1  0.02259163  0.75154022  0.43320955  1
  O  O442  1  0.02290415  0.75156195  0.68343954  1
  O  O443  1  0.02201194  0.74770745  0.93365014  1
  O  O444  1  0.52171377  0.08072816  0.18284070  1
  O  O445  1  0.52230589  0.08273250  0.43446592  1
  O  O446  1  0.52188929  0.08518365  0.68320553  1
  O  O447  1  0.52135523  0.08298779  0.93161624  1
  O  O448  1  0.52149467  0.41696327  0.18185968  1
  O  O449  1  0.52102848  0.41712717  0.43196195  1
  O  O450  1  0.52195991  0.41544180  0.68314611  1
  O  O451  1  0.52264328  0.41601119  0.93467362  1
  O  O452  1  0.52332065  0.74912997  0.18435594  1
  O  O453  1  0.52232816  0.74922953  0.43294316  1
  O  O454  1  0.52276505  0.75225426  0.68307402  1
  O  O455  1  0.52188596  0.75141937  0.93345000  1
  O  O456  1  0.47763507  0.25100499  0.06688677  1
  O  O457  1  0.47807865  0.24916729  0.31799009  1
  O  O458  1  0.47755441  0.24835778  0.56693532  1
  O  O459  1  0.47684648  0.25107952  0.81558133  1
  O  O460  1  0.47750345  0.58214896  0.06708633  1
  O  O461  1  0.47817228  0.58557117  0.31734479  1
  O  O462  1  0.47799645  0.58579167  0.56720759  1
  O  O463  1  0.47880206  0.58368200  0.81864380  1
  O  O464  1  0.47795507  0.91452010  0.06704945  1
  O  O465  1  0.47710657  0.91708137  0.31586378  1
  O  O466  1  0.47789858  0.91850346  0.56678773  1
  O  O467  1  0.47837947  0.91526966  0.81672329  1
  O  O468  1  0.97705927  0.25058886  0.06528807  1
  O  O469  1  0.97724392  0.25006561  0.31494934  1
  O  O470  1  0.97793245  0.25171812  0.56642184  1
  O  O471  1  0.97683737  0.25033426  0.81559148  1
  O  O472  1  0.97682730  0.58381162  0.06615357  1
  O  O473  1  0.97814753  0.58433485  0.31682076  1
  O  O474  1  0.97879826  0.58299878  0.56850771  1
  O  O475  1  0.97876627  0.58295264  0.81869342  1
  O  O476  1  0.97873299  0.91668910  0.06816455  1
  O  O477  1  0.97832188  0.91531581  0.31642119  1
  O  O478  1  0.97766384  0.91485580  0.56664931  1
  O  O479  1  0.97859522  0.91523428  0.81690704  1
  O  O480  1  0.07241727  0.31376586  0.07345771  1
  O  O481  1  0.07232932  0.31396588  0.32212930  1
  O  O482  1  0.07314734  0.31454647  0.57416765  1
  O  O483  1  0.07195758  0.31388730  0.82396060  1
  O  O484  1  0.07242123  0.64657798  0.07382622  1
  O  O485  1  0.07324222  0.64775843  0.32398762  1
  O  O486  1  0.07410746  0.64662095  0.57561033  1
  O  O487  1  0.07458223  0.64569779  0.82627741  1
  O  O488  1  0.07397026  0.98018191  0.07581599  1
  O  O489  1  0.07353614  0.97919997  0.32473057  1
  O  O490  1  0.07241779  0.97932417  0.57484565  1
  O  O491  1  0.07385657  0.97911994  0.82443752  1
  O  O492  1  0.57293422  0.31399956  0.07387113  1
  O  O493  1  0.57312324  0.31314625  0.32577423  1
  O  O494  1  0.57273245  0.31254617  0.57510917  1
  O  O495  1  0.57242350  0.31395655  0.82340743  1
  O  O496  1  0.57290181  0.64602314  0.07489487  1
  O  O497  1  0.57389756  0.64820358  0.32352219  1
  O  O498  1  0.57325736  0.64886935  0.57434574  1
  O  O499  1  0.57431249  0.64682789  0.82660552  1
  O  O500  1  0.57322178  0.97833104  0.07480789  1
  O  O501  1  0.57246824  0.98038891  0.32330175  1
  O  O502  1  0.57280678  0.98206837  0.57401726  1
  O  O503  1  0.57364569  0.97893942  0.82525472  1
  O  O504  1  0.42624290  0.01801710  0.17589137  1
  O  O505  1  0.42712719  0.01922268  0.42690115  1
  O  O506  1  0.42679981  0.02115786  0.67486390  1
  O  O507  1  0.42603896  0.01952859  0.92353923  1
  O  O508  1  0.42612629  0.35329914  0.17424378  1
  O  O509  1  0.42540709  0.35381417  0.42489026  1
  O  O510  1  0.42666631  0.35243541  0.67610742  1
  O  O511  1  0.42724188  0.35275569  0.92664466  1
  O  O512  1  0.42803415  0.68592425  0.17626636  1
  O  O513  1  0.42741106  0.68560458  0.42617446  1
  O  O514  1  0.42740892  0.68843570  0.67576127  1
  O  O515  1  0.42643396  0.68799697  0.92521992  1
  O  O516  1  0.92631954  0.02166483  0.17430104  1
  O  O517  1  0.92599895  0.01999992  0.42372190  1
  O  O518  1  0.92649053  0.02086166  0.67499470  1
  O  O519  1  0.92705276  0.02093696  0.92450078  1
  O  O520  1  0.92693804  0.35201467  0.17524026  1
  O  O521  1  0.92698490  0.35166313  0.42549526  1
  O  O522  1  0.92640280  0.35188879  0.67626355  1
  O  O523  1  0.92690118  0.35270446  0.92688664  1
  O  O524  1  0.92844812  0.68574725  0.17732753  1
  O  O525  1  0.92735497  0.68755622  0.42521876  1
  O  O526  1  0.92786630  0.68739222  0.67511338  1
  O  O527  1  0.92638116  0.68542040  0.92618489  1
  O  O528  1  0.17615242  0.02125312  0.19929993  1
  O  O529  1  0.17584003  0.01961757  0.44986297  1
  O  O530  1  0.17627130  0.01836077  0.69901027  1
  O  O531  1  0.17658868  0.02060592  0.95019631  1
  O  O532  1  0.17611520  0.35528816  0.19971073  1
  O  O533  1  0.17662141  0.35488915  0.44872950  1
  O  O534  1  0.17725090  0.35159141  0.69959241  1
  O  O535  1  0.17666947  0.35472168  0.95074801  1
  O  O536  1  0.17856598  0.68607477  0.19802275  1
  O  O537  1  0.17691709  0.68552574  0.44911327  1
  O  O538  1  0.17809015  0.68494752  0.69864472  1
  O  O539  1  0.17659065  0.68610969  0.95106492  1
  O  O540  1  0.67589211  0.01996176  0.20097303  1
  O  O541  1  0.67647613  0.02055398  0.44931942  1
  O  O542  1  0.67573140  0.02016316  0.70044702  1
  O  O543  1  0.67672422  0.02069266  0.94976282  1
  O  O544  1  0.67707284  0.35292676  0.19859823  1
  O  O545  1  0.67618266  0.35301145  0.44959776  1
  O  O546  1  0.67696701  0.35398905  0.69949773  1
  O  O547  1  0.67588067  0.35425238  0.95079167  1
  O  O548  1  0.67917932  0.68638344  0.19871663  1
  O  O549  1  0.67769142  0.68717703  0.44948069  1
  O  O550  1  0.67798388  0.68629823  0.69758364  1
  O  O551  1  0.67699289  0.68615779  0.95088108  1
  O  O552  1  0.32263183  0.31252970  0.04927225  1
  O  O553  1  0.32374466  0.31401349  0.29850755  1
  O  O554  1  0.32264197  0.31556470  0.55096584  1
  O  O555  1  0.32294868  0.31160359  0.80092865  1
  O  O556  1  0.32229388  0.64669879  0.05204729  1
  O  O557  1  0.32229841  0.64711464  0.30137757  1
  O  O558  1  0.32363671  0.64776309  0.55067373  1
  O  O559  1  0.32405420  0.64511098  0.80116498  1
  O  O560  1  0.32366495  0.97931087  0.05014957  1
  O  O561  1  0.32326989  0.98012292  0.29941459  1
  O  O562  1  0.32191414  0.98030902  0.55158896  1
  O  O563  1  0.32359070  0.97929320  0.79920533  1
  O  O564  1  0.82274166  0.31462973  0.05119945  1
  O  O565  1  0.82205275  0.31427464  0.30166850  1
  O  O566  1  0.82390244  0.31339953  0.54930299  1
  O  O567  1  0.82281855  0.31293004  0.80088134  1
  O  O568  1  0.82200115  0.64711472  0.05275948  1
  O  O569  1  0.82429758  0.64650246  0.29945400  1
  O  O570  1  0.82268113  0.64696699  0.55110948  1
  O  O571  1  0.82424123  0.64681142  0.79946285  1
  O  O572  1  0.82330228  0.97986167  0.05073644  1
  O  O573  1  0.82330143  0.97863797  0.29955994  1
  O  O574  1  0.82279081  0.97933701  0.54946746  1
  O  O575  1  0.82439702  0.97969102  0.79941916  1
  O  O576  1  0.42689355  0.14523955  0.17514083  1
  O  O577  1  0.42754880  0.14660129  0.42612613  1
  O  O578  1  0.42663852  0.14809182  0.67583952  1
  O  O579  1  0.42591669  0.14644277  0.92469872  1
  O  O580  1  0.42594379  0.48001671  0.17451047  1
  O  O581  1  0.42587305  0.48087337  0.42517154  1
  O  O582  1  0.42690062  0.47973116  0.67584585  1
  O  O583  1  0.42820305  0.48018702  0.92648646  1
  O  O584  1  0.42876659  0.81323423  0.17760177  1
  O  O585  1  0.42677040  0.81249837  0.42453097  1
  O  O586  1  0.42787030  0.81561956  0.67503259  1
  O  O587  1  0.42681074  0.81501037  0.92664646  1
  O  O588  1  0.92641459  0.14872550  0.17532686  1
  O  O589  1  0.92596969  0.14690877  0.42431203  1
  O  O590  1  0.92677304  0.14809441  0.67543704  1
  O  O591  1  0.92678873  0.14809191  0.92552688  1
  O  O592  1  0.92685554  0.47888669  0.17476217  1
  O  O593  1  0.92724164  0.47882352  0.42457880  1
  O  O594  1  0.92733328  0.47888101  0.67523131  1
  O  O595  1  0.92831411  0.48003828  0.92725803  1
  O  O596  1  0.92879099  0.81316074  0.17619351  1
  O  O597  1  0.92735793  0.81445973  0.42542665  1
  O  O598  1  0.92760346  0.81454886  0.67668698  1
  O  O599  1  0.92711318  0.81248625  0.92613916  1
  O  O600  1  0.07179030  0.18671892  0.07293516  1
  O  O601  1  0.07222200  0.18659158  0.32291296  1
  O  O602  1  0.07300647  0.18767007  0.57454692  1
  O  O603  1  0.07167409  0.18666606  0.82323233  1
  O  O604  1  0.07093708  0.51915918  0.07397704  1
  O  O605  1  0.07335134  0.52059248  0.32458415  1
  O  O606  1  0.07415057  0.51958796  0.57537576  1
  O  O607  1  0.07376779  0.51899390  0.82649932  1
  O  O608  1  0.07423430  0.85322814  0.07559446  1
  O  O609  1  0.07358507  0.85209494  0.32351084  1
  O  O610  1  0.07319510  0.85220221  0.57402871  1
  O  O611  1  0.07362082  0.85177673  0.82456366  1
  O  O612  1  0.57275055  0.18676674  0.07414218  1
  O  O613  1  0.57373735  0.18622210  0.32518107  1
  O  O614  1  0.57282585  0.18557595  0.57426729  1
  O  O615  1  0.57122008  0.18656700  0.82391994  1
  O  O616  1  0.57245869  0.51891505  0.07472044  1
  O  O617  1  0.57309913  0.52121336  0.32523590  1
  O  O618  1  0.57298943  0.52156203  0.57469151  1
  O  O619  1  0.57411355  0.51992303  0.82548219  1
  O  O620  1  0.57302564  0.85138462  0.07532406  1
  O  O621  1  0.57161878  0.85305257  0.32365352  1
  O  O622  1  0.57341171  0.85509959  0.57370378  1
  O  O623  1  0.57348986  0.85185838  0.82361399  1
  O  O624  1  0.32221214  0.18537231  0.05097071  1
  O  O625  1  0.32354578  0.18714728  0.29998029  1
  O  O626  1  0.32297438  0.18830452  0.55009135  1
  O  O627  1  0.32180436  0.18449373  0.79993102  1
  O  O628  1  0.32249691  0.51946824  0.05240721  1
  O  O629  1  0.32194716  0.51990838  0.30162635  1
  O  O630  1  0.32369351  0.52096067  0.55009173  1
  O  O631  1  0.32358381  0.51793444  0.80110708  1
  O  O632  1  0.32305314  0.85202247  0.05149665  1
  O  O633  1  0.32423213  0.85323975  0.29982510  1
  O  O634  1  0.32181986  0.85268393  0.55165855  1
  O  O635  1  0.32334461  0.85256795  0.79883761  1
  O  O636  1  0.82245678  0.18765366  0.05120995  1
  O  O637  1  0.82107960  0.18675206  0.30099379  1
  O  O638  1  0.82351887  0.18673680  0.54899277  1
  O  O639  1  0.82265795  0.18564456  0.80154842  1
  O  O640  1  0.82281538  0.51961771  0.05221638  1
  O  O641  1  0.82411814  0.51978585  0.29940121  1
  O  O642  1  0.82276284  0.51932574  0.55116859  1
  O  O643  1  0.82433613  0.52013682  0.79978405  1
  O  O644  1  0.82401406  0.85258490  0.05099484  1
  O  O645  1  0.82325543  0.85156411  0.30059187  1
  O  O646  1  0.82325254  0.85220840  0.55083712  1
  O  O647  1  0.82402612  0.85285333  0.79977488  1
  O  O648  1  0.17673404  0.14852579  0.19869604  1
  O  O649  1  0.17567655  0.14662842  0.45083561  1
  O  O650  1  0.17606372  0.14549493  0.69933704  1
  O  O651  1  0.17640783  0.14775804  0.94825809  1
  O  O652  1  0.17620961  0.48236469  0.19875930  1
  O  O653  1  0.17646388  0.48195195  0.44988260  1
  O  O654  1  0.17676215  0.47869437  0.70000929  1
  O  O655  1  0.17771184  0.48185867  0.94906727  1
  O  O656  1  0.17870128  0.81341024  0.19860104  1
  O  O657  1  0.17773297  0.81236917  0.44996657  1
  O  O658  1  0.17878081  0.81251534  0.69791763  1
  O  O659  1  0.17664775  0.81276815  0.95060918  1
  O  O660  1  0.67541972  0.14684522  0.20076276  1
  O  O661  1  0.67711052  0.14787435  0.44884018  1
  O  O662  1  0.67603116  0.14699938  0.69988224  1
  O  O663  1  0.67669868  0.14808019  0.94921022  1
  O  O664  1  0.67753635  0.48034903  0.19930452  1
  O  O665  1  0.67698359  0.48001733  0.44923212  1
  O  O666  1  0.67652692  0.48122232  0.69883653  1
  O  O667  1  0.67703183  0.48092148  0.95101459  1
  O  O668  1  0.67801808  0.81375191  0.19816880  1
  O  O669  1  0.67666254  0.81413155  0.44888629  1
  O  O670  1  0.67819403  0.81376508  0.69808440  1
  O  O671  1  0.67667429  0.81288087  0.95059026  1
