# generated using pymatgen
data_Na2MnFe(PO4)2
_symmetry_space_group_name_H-M   'P 1'
_cell_length_a   22.34398041
_cell_length_b   20.09866038
_cell_length_c   19.44663213
_cell_angle_alpha   90.03600332
_cell_angle_beta   90.01607930
_cell_angle_gamma   90.00081370
_symmetry_Int_Tables_number   1
_chemical_formula_structural   Na2MnFe(PO4)2
_chemical_formula_sum   'Na96 Mn48 Fe48 P96 O384'
_cell_volume   8733.17071115
_cell_formula_units_Z   48
loop_
 _symmetry_equiv_pos_site_id
 _symmetry_equiv_pos_as_xyz
  1  'x, y, z'
loop_
 _atom_site_type_symbol
 _atom_site_label
 _atom_site_symmetry_multiplicity
 _atom_site_fract_x
 _atom_site_fract_y
 _atom_site_fract_z
 _atom_site_occupancy
  Na  Na0  1  0.14048803  0.25013045  0.24542044  1
  Na  Na1  1  0.14057209  0.25005087  0.49487885  1
  Na  Na2  1  0.14063482  0.25103288  0.74335700  1
  Na  Na3  1  0.14069361  0.24994390  0.99282569  1
  Na  Na4  1  0.14037339  0.58336697  0.24401418  1
  Na  Na5  1  0.14095246  0.58207507  0.49540371  1
  Na  Na6  1  0.14080551  0.58219954  0.74407601  1
  Na  Na7  1  0.14086357  0.58296242  0.99299452  1
  Na  Na8  1  0.14072032  0.91622150  0.24475106  1
  Na  Na9  1  0.13998873  0.91618263  0.49443425  1
  Na  Na10  1  0.13984176  0.91579599  0.74368756  1
  Na  Na11  1  0.14057285  0.91517679  0.99230167  1
  Na  Na12  1  0.63988628  0.25050443  0.24246340  1
  Na  Na13  1  0.64006369  0.24967781  0.49490843  1
  Na  Na14  1  0.63971100  0.24965686  0.74385492  1
  Na  Na15  1  0.63991185  0.24954372  0.99152987  1
  Na  Na16  1  0.64015918  0.58388082  0.24288126  1
  Na  Na17  1  0.64001959  0.58544609  0.49418188  1
  Na  Na18  1  0.63968022  0.58393573  0.74302891  1
  Na  Na19  1  0.63971097  0.58342982  0.99259617  1
  Na  Na20  1  0.64008577  0.91583402  0.24329821  1
  Na  Na21  1  0.63968877  0.91645130  0.49442974  1
  Na  Na22  1  0.63996966  0.91748154  0.74153769  1
  Na  Na23  1  0.64056598  0.91714503  0.99329368  1
  Na  Na24  1  0.35988642  0.08362385  0.00459313  1
  Na  Na25  1  0.35959500  0.08433245  0.25592729  1
  Na  Na26  1  0.35952115  0.08387798  0.50643826  1
  Na  Na27  1  0.36001499  0.08341521  0.75776239  1
  Na  Na28  1  0.36074517  0.41809668  0.00651698  1
  Na  Na29  1  0.36066401  0.41723031  0.25602703  1
  Na  Na30  1  0.35960956  0.41735953  0.50710835  1
  Na  Na31  1  0.36005599  0.41774486  0.75803521  1
  Na  Na32  1  0.36006535  0.74991317  0.00529554  1
  Na  Na33  1  0.36001229  0.75065809  0.25656310  1
  Na  Na34  1  0.36068898  0.74905004  0.50790822  1
  Na  Na35  1  0.35997372  0.74902993  0.75804336  1
  Na  Na36  1  0.85904498  0.08221179  0.00424827  1
  Na  Na37  1  0.85892589  0.08232582  0.25543467  1
  Na  Na38  1  0.85922601  0.08224549  0.50777377  1
  Na  Na39  1  0.85961278  0.08378119  0.75625396  1
  Na  Na40  1  0.85946255  0.41656086  0.00558543  1
  Na  Na41  1  0.85916848  0.41642142  0.25556369  1
  Na  Na42  1  0.85939986  0.41619721  0.50713457  1
  Na  Na43  1  0.85914047  0.41637060  0.75735851  1
  Na  Na44  1  0.85973450  0.74998812  0.00589324  1
  Na  Na45  1  0.85985912  0.74947311  0.25544293  1
  Na  Na46  1  0.85934170  0.75186084  0.50676200  1
  Na  Na47  1  0.85934460  0.75114994  0.75584796  1
  Na  Na48  1  0.10966569  0.08159224  0.11912522  1
  Na  Na49  1  0.10948985  0.08216701  0.36988314  1
  Na  Na50  1  0.10946393  0.08307965  0.61913303  1
  Na  Na51  1  0.10934543  0.08191277  0.86730140  1
  Na  Na52  1  0.10968716  0.41618848  0.11910924  1
  Na  Na53  1  0.10973262  0.41584250  0.37017677  1
  Na  Na54  1  0.11022653  0.41691725  0.61935922  1
  Na  Na55  1  0.11047900  0.41640423  0.86791342  1
  Na  Na56  1  0.11018166  0.74785836  0.11788155  1
  Na  Na57  1  0.10977041  0.75009233  0.37010107  1
  Na  Na58  1  0.10971757  0.75061224  0.62001168  1
  Na  Na59  1  0.11002432  0.74978242  0.86803388  1
  Na  Na60  1  0.60943384  0.08506183  0.11692672  1
  Na  Na61  1  0.60924869  0.08327815  0.36869262  1
  Na  Na62  1  0.60974243  0.08326942  0.61919657  1
  Na  Na63  1  0.60954368  0.08414087  0.86648335  1
  Na  Na64  1  0.60875922  0.41697402  0.11748742  1
  Na  Na65  1  0.60937939  0.41725277  0.36868934  1
  Na  Na66  1  0.60942337  0.41788407  0.62054185  1
  Na  Na67  1  0.60957638  0.41715443  0.86772046  1
  Na  Na68  1  0.60978839  0.74970562  0.11826153  1
  Na  Na69  1  0.60972856  0.74980447  0.36882998  1
  Na  Na70  1  0.60956262  0.75041975  0.61811800  1
  Na  Na71  1  0.60913189  0.74967893  0.86764174  1
  Na  Na72  1  0.39071464  0.25158243  0.13027651  1
  Na  Na73  1  0.39054226  0.25167316  0.38107793  1
  Na  Na74  1  0.39049353  0.25111854  0.63308431  1
  Na  Na75  1  0.39098129  0.25165067  0.88139701  1
  Na  Na76  1  0.39073475  0.58384363  0.13058949  1
  Na  Na77  1  0.39097392  0.58388438  0.38177744  1
  Na  Na78  1  0.39059696  0.58424274  0.63373748  1
  Na  Na79  1  0.39037927  0.58287540  0.88182059  1
  Na  Na80  1  0.39057694  0.91701362  0.13043365  1
  Na  Na81  1  0.39063263  0.91577703  0.38165423  1
  Na  Na82  1  0.39100870  0.91606872  0.63260498  1
  Na  Na83  1  0.39038597  0.91677305  0.88133273  1
  Na  Na84  1  0.88981156  0.24894950  0.12993481  1
  Na  Na85  1  0.89001477  0.24879351  0.38153531  1
  Na  Na86  1  0.89039177  0.24980309  0.63245655  1
  Na  Na87  1  0.88989656  0.24982079  0.88124310  1
  Na  Na88  1  0.89036944  0.58283255  0.13007950  1
  Na  Na89  1  0.89075701  0.58402209  0.38092644  1
  Na  Na90  1  0.89009139  0.58449039  0.63179721  1
  Na  Na91  1  0.89011227  0.58315117  0.88118878  1
  Na  Na92  1  0.89036649  0.91387106  0.13066611  1
  Na  Na93  1  0.88977710  0.91599123  0.38197035  1
  Na  Na94  1  0.89021177  0.91793682  0.63171295  1
  Na  Na95  1  0.88977538  0.91665488  0.88002320  1
  Mn  Mn96  1  -0.00002039  0.16562549  -0.00025203  1
  Mn  Mn97  1  0.25115776  0.83228942  0.62550100  1
  Mn  Mn98  1  0.75052820  0.66812192  0.37432817  1
  Mn  Mn99  1  0.74882123  0.83416130  0.87445943  1
  Mn  Mn100  1  0.25011439  0.16727861  0.62577698  1
  Mn  Mn101  1  0.25044738  0.66611798  0.37604875  1
  Mn  Mn102  1  0.25017799  -0.00025368  0.12465344  1
  Mn  Mn103  1  -0.00012403  0.16529787  0.25060721  1
  Mn  Mn104  1  0.24986698  0.16686142  0.12476382  1
  Mn  Mn105  1  0.49978202  0.16713544  0.50028491  1
  Mn  Mn106  1  -0.00025505  0.66699417  0.75032573  1
  Mn  Mn107  1  0.50076833  0.83317416  -0.00077751  1
  Mn  Mn108  1  0.74905611  0.66686208  0.87470920  1
  Mn  Mn109  1  0.74999705  0.33280036  0.37518598  1
  Mn  Mn110  1  -0.00025884  0.33265661  0.24993880  1
  Mn  Mn111  1  0.74918973  -0.00088176  0.37517915  1
  Mn  Mn112  1  0.74924193  0.33274045  0.62603607  1
  Mn  Mn113  1  0.49936367  0.50126290  0.50048195  1
  Mn  Mn114  1  0.25000922  0.16699748  0.87469059  1
  Mn  Mn115  1  0.25033460  0.16699458  0.37559119  1
  Mn  Mn116  1  0.00033458  0.66757793  0.50135968  1
  Mn  Mn117  1  0.74964126  0.16614573  0.37501468  1
  Mn  Mn118  1  0.49959093  0.16823592  0.24895737  1
  Mn  Mn119  1  -0.00028628  -0.00164299  0.24978134  1
  Mn  Mn120  1  -0.00043639  0.33379453  0.75056781  1
  Mn  Mn121  1  0.74951615  0.50067682  0.62531235  1
  Mn  Mn122  1  0.74966833  -0.00030898  0.12455397  1
  Mn  Mn123  1  0.00023149  0.66580404  -0.00102331  1
  Mn  Mn124  1  0.25036523  -0.00043878  0.62553399  1
  Mn  Mn125  1  0.49948098  -0.00022039  0.24936034  1
  Mn  Mn126  1  0.74932968  0.33245635  0.12420899  1
  Mn  Mn127  1  0.00109602  0.83170457  0.25060941  1
  Mn  Mn128  1  -0.00058938  -0.00176452  -0.00113118  1
  Mn  Mn129  1  0.50085210  0.00102381  -0.00044227  1
  Mn  Mn130  1  0.74913702  0.50042697  0.12452416  1
  Mn  Mn131  1  0.24976516  0.83323130  0.37578298  1
  Mn  Mn132  1  0.00071275  0.33334626  -0.00005875  1
  Mn  Mn133  1  0.50003522  0.66670387  0.24984412  1
  Mn  Mn134  1  0.25030194  0.33404270  0.12465825  1
  Mn  Mn135  1  -0.00036382  0.50001329  0.25040185  1
  Mn  Mn136  1  0.49995060  0.33444884  0.50066339  1
  Mn  Mn137  1  0.24971121  0.50089932  0.12534141  1
  Mn  Mn138  1  -0.00018353  0.16621764  0.50044004  1
  Mn  Mn139  1  0.74985560  0.50060067  0.37507414  1
  Mn  Mn140  1  0.25094587  0.83256269  0.12437358  1
  Mn  Mn141  1  0.49924644  -0.00070262  0.49973988  1
  Mn  Mn142  1  0.00015780  0.49983323  0.50026878  1
  Mn  Mn143  1  0.25081656  0.49939326  0.37541529  1
  Fe  Fe144  1  0.50027672  0.66734295  0.50076598  1
  Fe  Fe145  1  0.50011247  0.83281950  0.25021623  1
  Fe  Fe146  1  0.74945552  0.16598986  0.87436085  1
  Fe  Fe147  1  0.75008228  0.66692650  0.12431228  1
  Fe  Fe148  1  0.50009138  0.50075776  0.75096615  1
  Fe  Fe149  1  -0.00034502  -0.00042648  0.50071869  1
  Fe  Fe150  1  0.50039060  0.33417630  -0.00066685  1
  Fe  Fe151  1  0.75011554  0.16658225  0.62584311  1
  Fe  Fe152  1  0.75024256  0.50038681  0.87462198  1
  Fe  Fe153  1  -0.00056237  0.83369969  0.74933066  1
  Fe  Fe154  1  0.24967096  -0.00042681  0.87527671  1
  Fe  Fe155  1  0.49965770  0.16780598  -0.00121688  1
  Fe  Fe156  1  0.74979186  0.83400065  0.62499794  1
  Fe  Fe157  1  0.49988851  0.16732245  0.74998699  1
  Fe  Fe158  1  0.25016086  0.66612783  0.87519126  1
  Fe  Fe159  1  0.49963548  0.66677364  -0.00000408  1
  Fe  Fe160  1  0.50036055  0.50052887  0.24968693  1
  Fe  Fe161  1  0.00015684  0.49953968  0.00011577  1
  Fe  Fe162  1  0.50020724  0.66675298  0.75025464  1
  Fe  Fe163  1  0.74971500  0.83345195  0.37491164  1
  Fe  Fe164  1  -0.00039106  0.33332078  0.50086748  1
  Fe  Fe165  1  0.25062260  0.00006542  0.37511790  1
  Fe  Fe166  1  0.25000249  0.83250371  0.87497360  1
  Fe  Fe167  1  0.50048389  0.50032863  -0.00031390  1
  Fe  Fe168  1  0.00036168  0.16672207  0.74950463  1
  Fe  Fe169  1  0.49984499  0.33424388  0.75106882  1
  Fe  Fe170  1  0.74965566  0.33263428  0.87503622  1
  Fe  Fe171  1  0.49994330  0.00026159  0.74988737  1
  Fe  Fe172  1  0.50034162  0.33438327  0.24915072  1
  Fe  Fe173  1  -0.00020709  0.50001581  0.74997296  1
  Fe  Fe174  1  0.25071001  0.33410832  0.87453225  1
  Fe  Fe175  1  0.74952642  0.16602382  0.12373034  1
  Fe  Fe176  1  0.75004868  0.83314914  0.12420988  1
  Fe  Fe177  1  0.74954528  0.00051051  0.62492103  1
  Fe  Fe178  1  0.25051479  0.66696363  0.12460903  1
  Fe  Fe179  1  0.50015493  0.83283597  0.50099647  1
  Fe  Fe180  1  0.25015601  0.33358855  0.37566612  1
  Fe  Fe181  1  -0.00010870  -0.00042166  0.74976766  1
  Fe  Fe182  1  0.75020452  0.66741393  0.62469519  1
  Fe  Fe183  1  0.74973543  0.00015161  0.87418755  1
  Fe  Fe184  1  0.50003951  0.83295173  0.75006801  1
  Fe  Fe185  1  0.25032673  0.50011125  0.87491247  1
  Fe  Fe186  1  -0.00040666  0.83376395  0.50013090  1
  Fe  Fe187  1  0.24997195  0.66582690  0.62659703  1
  Fe  Fe188  1  0.00034312  0.66609009  0.24990161  1
  Fe  Fe189  1  0.25073712  0.33391497  0.62525815  1
  Fe  Fe190  1  0.25074160  0.49956181  0.62608577  1
  Fe  Fe191  1  0.00020442  0.83230427  -0.00060445  1
  P  P192  1  0.04329713  0.24904100  0.10304580  1
  P  P193  1  0.04243260  0.24952523  0.35413717  1
  P  P194  1  0.04176197  0.25096599  0.60327974  1
  P  P195  1  0.04243126  0.24880757  0.85213307  1
  P  P196  1  0.04271268  0.58182591  0.10234594  1
  P  P197  1  0.04264767  0.58448663  0.35296278  1
  P  P198  1  0.04270439  0.58322265  0.60433340  1
  P  P199  1  0.04207619  0.58171756  0.85260812  1
  P  P200  1  0.04277319  0.91400289  0.10176428  1
  P  P201  1  0.04264756  0.91618073  0.35439399  1
  P  P202  1  0.04120461  0.91659816  0.60258580  1
  P  P203  1  0.04102782  0.91556951  0.85134818  1
  P  P204  1  0.54130930  0.25106586  0.10068166  1
  P  P205  1  0.54240656  0.25209669  0.35185439  1
  P  P206  1  0.54216612  0.25060971  0.60452157  1
  P  P207  1  0.54097725  0.25057294  0.85205692  1
  P  P208  1  0.54145268  0.58340337  0.10140064  1
  P  P209  1  0.54238205  0.58280566  0.35253154  1
  P  P210  1  0.54187399  0.58536691  0.60359839  1
  P  P211  1  0.54132230  0.58373959  0.85247964  1
  P  P212  1  0.54309535  0.91660721  0.10286700  1
  P  P213  1  0.54191192  0.91491620  0.35263866  1
  P  P214  1  0.54156310  0.91571908  0.60353814  1
  P  P215  1  0.54144068  0.91655363  0.85090193  1
  P  P216  1  0.45732763  0.08435693  0.14571707  1
  P  P217  1  0.45701214  0.08364894  0.39677134  1
  P  P218  1  0.45834957  0.08368552  0.64869466  1
  P  P219  1  0.45858914  0.08511237  0.89606041  1
  P  P220  1  0.45886867  0.41774585  0.14732624  1
  P  P221  1  0.45735511  0.41756659  0.39645891  1
  P  P222  1  0.45864039  0.41773968  0.64965889  1
  P  P223  1  0.45933801  0.41750962  0.89782983  1
  P  P224  1  0.45789800  0.75104854  0.14721043  1
  P  P225  1  0.45873909  0.75005951  0.39878718  1
  P  P226  1  0.45875342  0.74998288  0.64852864  1
  P  P227  1  0.45842885  0.74832783  0.89659718  1
  P  P228  1  0.95675470  0.08179656  0.14654285  1
  P  P229  1  0.95693401  0.08125569  0.39828840  1
  P  P230  1  0.95895579  0.08301019  0.64825395  1
  P  P231  1  0.95753133  0.08277087  0.89511645  1
  P  P232  1  0.95698267  0.41664201  0.14640874  1
  P  P233  1  0.95721617  0.41534250  0.39804420  1
  P  P234  1  0.95724701  0.41784044  0.64768127  1
  P  P235  1  0.95806125  0.41803600  0.89719832  1
  P  P236  1  0.95844441  0.74790423  0.14705359  1
  P  P237  1  0.95769486  0.75064473  0.39776851  1
  P  P238  1  0.95751788  0.75194047  0.64728691  1
  P  P239  1  0.95763414  0.75107844  0.89665146  1
  P  P240  1  0.20746291  0.08319300  0.22866676  1
  P  P241  1  0.20788776  0.08210816  0.47780222  1
  P  P242  1  0.20753494  0.08296424  0.72890914  1
  P  P243  1  0.20730996  0.08221415  0.97692983  1
  P  P244  1  0.20735341  0.41665496  0.22866397  1
  P  P245  1  0.20821964  0.41538750  0.47889398  1
  P  P246  1  0.20938021  0.41652604  0.72766289  1
  P  P247  1  0.20918230  0.41700704  0.97625128  1
  P  P248  1  0.20807772  0.74877379  0.22732050  1
  P  P249  1  0.20766060  0.74897977  0.47965018  1
  P  P250  1  0.20832831  0.74824351  0.72888470  1
  P  P251  1  0.20886236  0.74909906  0.97659144  1
  P  P252  1  0.70697455  0.08420451  0.22662393  1
  P  P253  1  0.70686392  0.08283125  0.47909003  1
  P  P254  1  0.70852861  0.08354322  0.72727130  1
  P  P255  1  0.70780785  0.08307811  0.97588734  1
  P  P256  1  0.70661502  0.41657062  0.22750319  1
  P  P257  1  0.70692862  0.41686064  0.47843670  1
  P  P258  1  0.70745383  0.41691539  0.72961260  1
  P  P259  1  0.70855101  0.41676984  0.97584332  1
  P  P260  1  0.70857193  0.75027631  0.22614840  1
  P  P261  1  0.70798404  0.75198849  0.47805313  1
  P  P262  1  0.70837284  0.75036844  0.72611779  1
  P  P263  1  0.70685408  0.75039010  0.97839782  1
  P  P264  1  0.29280090  0.25059258  0.02093427  1
  P  P265  1  0.29267259  0.25163743  0.27287647  1
  P  P266  1  0.29268935  0.25158688  0.52293812  1
  P  P267  1  0.29251700  0.25195387  0.77234604  1
  P  P268  1  0.29207515  0.58485066  0.02176288  1
  P  P269  1  0.29337765  0.58362484  0.27206031  1
  P  P270  1  0.29197207  0.58308754  0.52494030  1
  P  P271  1  0.29148412  0.58324606  0.77337037  1
  P  P272  1  0.29294991  0.91639711  0.02042634  1
  P  P273  1  0.29271864  0.91750733  0.27287145  1
  P  P274  1  0.29336302  0.91653063  0.52202269  1
  P  P275  1  0.29129170  0.91619275  0.77388439  1
  P  P276  1  0.79137444  0.24798538  0.02082912  1
  P  P277  1  0.79253359  0.24926541  0.27105728  1
  P  P278  1  0.79227482  0.24845432  0.52350289  1
  P  P279  1  0.79098150  0.24907903  0.77323685  1
  P  P280  1  0.79168476  0.58431320  0.02162175  1
  P  P281  1  0.79271576  0.58390251  0.27109063  1
  P  P282  1  0.79227304  0.58522970  0.52259962  1
  P  P283  1  0.79187410  0.58306803  0.77208556  1
  P  P284  1  0.79206203  0.91585810  0.02164673  1
  P  P285  1  0.79192081  0.91479687  0.27208477  1
  P  P286  1  0.79095736  0.91692524  0.52352243  1
  P  P287  1  0.79117652  0.91838505  0.77115044  1
  O  O288  1  0.03811762  0.24904305  0.18304254  1
  O  O289  1  0.03712282  0.25010534  0.43412924  1
  O  O290  1  0.03626876  0.25038585  0.68323342  1
  O  O291  1  0.03763748  0.24900412  0.93211297  1
  O  O292  1  0.03744253  0.58270356  0.18229302  1
  O  O293  1  0.03743894  0.58429798  0.43294686  1
  O  O294  1  0.03724111  0.58279079  0.68427250  1
  O  O295  1  0.03706321  0.58144855  0.93258140  1
  O  O296  1  0.03802551  0.91428937  0.18178137  1
  O  O297  1  0.03725688  0.91652268  0.43431797  1
  O  O298  1  0.03593209  0.91657403  0.68251899  1
  O  O299  1  0.03624374  0.91517208  0.93129480  1
  O  O300  1  0.53656428  0.25186123  0.18063789  1
  O  O301  1  0.53729963  0.25165795  0.43185342  1
  O  O302  1  0.53662379  0.25034086  0.68441629  1
  O  O303  1  0.53604714  0.25050080  0.93195684  1
  O  O304  1  0.53643220  0.58300059  0.18135513  1
  O  O305  1  0.53711643  0.58365685  0.43244274  1
  O  O306  1  0.53664483  0.58540397  0.68345551  1
  O  O307  1  0.53636391  0.58346166  0.93236657  1
  O  O308  1  0.53777090  0.91624782  0.18277917  1
  O  O309  1  0.53642434  0.91481280  0.43261885  1
  O  O310  1  0.53613104  0.91625113  0.68340820  1
  O  O311  1  0.53718226  0.91681086  0.93092342  1
  O  O312  1  0.46281840  0.08482530  0.06574387  1
  O  O313  1  0.46209745  0.08366607  0.31680023  1
  O  O314  1  0.46282066  0.08319525  0.56864239  1
  O  O315  1  0.46415430  0.08486006  0.81615251  1
  O  O316  1  0.46442001  0.41798907  0.06744428  1
  O  O317  1  0.46274726  0.41754966  0.31657067  1
  O  O318  1  0.46288472  0.41781889  0.56966115  1
  O  O319  1  0.46411114  0.41728209  0.81797218  1
  O  O320  1  0.46310430  0.75038138  0.06728604  1
  O  O321  1  0.46365399  0.75011490  0.31880148  1
  O  O322  1  0.46379111  0.75040330  0.56860641  1
  O  O323  1  0.46377578  0.74824129  0.81672341  1
  O  O324  1  0.96180230  0.08163117  0.06652305  1
  O  O325  1  0.96194678  0.08149334  0.31828093  1
  O  O326  1  0.96381918  0.08239624  0.56828554  1
  O  O327  1  0.96314191  0.08332870  0.81521473  1
  O  O328  1  0.96238366  0.41708828  0.06642283  1
  O  O329  1  0.96242880  0.41568821  0.31804913  1
  O  O330  1  0.96237870  0.41692047  0.56773923  1
  O  O331  1  0.96314626  0.41829791  0.81719903  1
  O  O332  1  0.96350398  0.74848196  0.06707835  1
  O  O333  1  0.96317155  0.74953115  0.31783161  1
  O  O334  1  0.96287949  0.75199052  0.56739616  1
  O  O335  1  0.96268042  0.75127578  0.81669506  1
  O  O336  1  0.21232529  0.08258537  0.05695133  1
  O  O337  1  0.21304436  0.08283842  0.30862179  1
  O  O338  1  0.21314403  0.08255651  0.55779818  1
  O  O339  1  0.21264998  0.08242197  0.80885612  1
  O  O340  1  0.21344345  0.41752298  0.05625775  1
  O  O341  1  0.21246069  0.41617464  0.30863307  1
  O  O342  1  0.21379069  0.41570624  0.55879160  1
  O  O343  1  0.21415130  0.41664160  0.80759974  1
  O  O344  1  0.21371723  0.74939484  0.05656827  1
  O  O345  1  0.21298344  0.74920916  0.30733506  1
  O  O346  1  0.21303393  0.74847771  0.55960209  1
  O  O347  1  0.21362928  0.74854281  0.80879222  1
  O  O348  1  0.71302785  0.08338037  0.05584998  1
  O  O349  1  0.71186719  0.08365808  0.30663332  1
  O  O350  1  0.71225871  0.08298988  0.55902482  1
  O  O351  1  0.71365858  0.08339454  0.80720161  1
  O  O352  1  0.71300387  0.41651296  0.05587384  1
  O  O353  1  0.71181057  0.41649621  0.30747467  1
  O  O354  1  0.71200973  0.41694029  0.55848749  1
  O  O355  1  0.71318800  0.41705440  0.80948972  1
  O  O356  1  0.71239734  0.75033162  0.05827776  1
  O  O357  1  0.71362318  0.75066837  0.30615079  1
  O  O358  1  0.71328875  0.75155168  0.55792815  1
  O  O359  1  0.71257545  0.75059383  0.80615455  1
  O  O360  1  0.28737533  0.25110772  0.19287936  1
  O  O361  1  0.28729247  0.25147005  0.44299527  1
  O  O362  1  0.28737423  0.25212155  0.69237981  1
  O  O363  1  0.28749377  0.25107316  0.94095718  1
  O  O364  1  0.28839185  0.58419437  0.19208998  1
  O  O365  1  0.28752447  0.58263939  0.44493405  1
  O  O366  1  0.28674276  0.58305708  0.69349189  1
  O  O367  1  0.28653409  0.58439464  0.94190666  1
  O  O368  1  0.28761921  0.91696384  0.19284068  1
  O  O369  1  0.28808613  0.91697088  0.44207119  1
  O  O370  1  0.28699125  0.91585342  0.69383770  1
  O  O371  1  0.28745956  0.91631351  0.94050258  1
  O  O372  1  0.78730584  0.24882906  0.19103726  1
  O  O373  1  0.78750837  0.24866284  0.44348707  1
  O  O374  1  0.78621711  0.24913098  0.69326745  1
  O  O375  1  0.78574494  0.24826783  0.94091158  1
  O  O376  1  0.78736651  0.58417060  0.19112826  1
  O  O377  1  0.78716926  0.58510263  0.44260576  1
  O  O378  1  0.78692454  0.58385012  0.69211827  1
  O  O379  1  0.78621916  0.58345499  0.94167218  1
  O  O380  1  0.78687457  0.91476295  0.19210893  1
  O  O381  1  0.78632995  0.91626534  0.44353078  1
  O  O382  1  0.78584008  0.91833558  0.69127790  1
  O  O383  1  0.78643300  0.91681545  0.94172594  1
  O  O384  1  0.22847075  0.25047372  0.05627482  1
  O  O385  1  0.22845776  0.25175624  0.30875855  1
  O  O386  1  0.22841922  0.25180709  0.55872260  1
  O  O387  1  0.22823041  0.25205568  0.80788024  1
  O  O388  1  0.22799477  0.58523542  0.05810906  1
  O  O389  1  0.22895907  0.58308832  0.30719183  1
  O  O390  1  0.22768291  0.58336855  0.56040185  1
  O  O391  1  0.22737954  0.58358238  0.80938034  1
  O  O392  1  0.22877712  0.91596124  0.05621645  1
  O  O393  1  0.22842106  0.91808036  0.30851524  1
  O  O394  1  0.22897904  0.91583423  0.55722950  1
  O  O395  1  0.22696502  0.91655671  0.80913090  1
  O  O396  1  0.72727440  0.24768021  0.05712915  1
  O  O397  1  0.72814082  0.24966270  0.30634768  1
  O  O398  1  0.72779512  0.24814019  0.55862097  1
  O  O399  1  0.72681099  0.24897480  0.80900995  1
  O  O400  1  0.72750463  0.58538717  0.05754358  1
  O  O401  1  0.72839694  0.58415750  0.30648608  1
  O  O402  1  0.72791099  0.58556935  0.55806038  1
  O  O403  1  0.72751565  0.58241848  0.80744438  1
  O  O404  1  0.72793864  0.91519710  0.05769433  1
  O  O405  1  0.72757039  0.91473840  0.30771836  1
  O  O406  1  0.72676685  0.91776589  0.55923948  1
  O  O407  1  0.72702916  0.91878375  0.80727599  1
  O  O408  1  0.27173175  0.08345331  0.19304099  1
  O  O409  1  0.27216805  0.08209896  0.44216871  1
  O  O410  1  0.27193084  0.08342309  0.69377659  1
  O  O411  1  0.27169901  0.08210867  0.94159688  1
  O  O412  1  0.27173736  0.41738191  0.19342548  1
  O  O413  1  0.27234678  0.41491408  0.44261080  1
  O  O414  1  0.27353991  0.41603436  0.69174003  1
  O  O415  1  0.27357834  0.41661489  0.94110894  1
  O  O416  1  0.27252760  0.74829817  0.19196582  1
  O  O417  1  0.27199472  0.74970807  0.44434559  1
  O  O418  1  0.27254533  0.74767524  0.69295317  1
  O  O419  1  0.27303141  0.74870582  0.94081090  1
  O  O420  1  0.77136309  0.08458857  0.19121619  1
  O  O421  1  0.77111221  0.08249641  0.44338958  1
  O  O422  1  0.77256682  0.08325517  0.69089369  1
  O  O423  1  0.77195842  0.08283038  0.93975189  1
  O  O424  1  0.77096767  0.41649049  0.19230208  1
  O  O425  1  0.77139324  0.41675108  0.44345039  1
  O  O426  1  0.77149098  0.41690898  0.69350780  1
  O  O427  1  0.77279331  0.41690769  0.94038826  1
  O  O428  1  0.77268804  0.74981079  0.18994456  1
  O  O429  1  0.77216719  0.75238452  0.44196892  1
  O  O430  1  0.77269296  0.74980707  0.69083283  1
  O  O431  1  0.77101717  0.75058538  0.94259325  1
  O  O432  1  0.02123641  0.08189433  0.18156898  1
  O  O433  1  0.02134451  0.08122853  0.43368291  1
  O  O434  1  0.02303031  0.08347463  0.68423626  1
  O  O435  1  0.02164455  0.08211798  0.93110596  1
  O  O436  1  0.02130393  0.41649241  0.18178677  1
  O  O437  1  0.02159285  0.41483799  0.43361164  1
  O  O438  1  0.02162859  0.41791646  0.68318725  1
  O  O439  1  0.02239198  0.41816571  0.93282834  1
  O  O440  1  0.02273912  0.74743084  0.18281704  1
  O  O441  1  0.02192030  0.75164066  0.43367060  1
  O  O442  1  0.02174092  0.75171093  0.68313356  1
  O  O443  1  0.02197346  0.75084142  0.93221892  1
  O  O444  1  0.52153238  0.08413487  0.18135130  1
  O  O445  1  0.52137515  0.08342573  0.43201833  1
  O  O446  1  0.52264974  0.08427681  0.68413996  1
  O  O447  1  0.52262762  0.08572924  0.93240862  1
  O  O448  1  0.52276862  0.41761707  0.18422977  1
  O  O449  1  0.52155531  0.41798542  0.43233968  1
  O  O450  1  0.52291468  0.41775011  0.68501809  1
  O  O451  1  0.52343008  0.41794860  0.93394355  1
  O  O452  1  0.52216090  0.75144947  0.18304406  1
  O  O453  1  0.52289968  0.75004903  0.43490962  1
  O  O454  1  0.52292265  0.74974340  0.68457473  1
  O  O455  1  0.52251404  0.74810390  0.93277553  1
  O  O456  1  0.47715074  0.25056137  0.06477618  1
  O  O457  1  0.47808322  0.25289403  0.31621258  1
  O  O458  1  0.47797850  0.25068366  0.56860244  1
  O  O459  1  0.47696488  0.25011022  0.81579128  1
  O  O460  1  0.47734234  0.58304697  0.06522541  1
  O  O461  1  0.47817610  0.58211169  0.31659971  1
  O  O462  1  0.47767984  0.58583669  0.56756987  1
  O  O463  1  0.47721953  0.58423860  0.81631358  1
  O  O464  1  0.47887139  0.91697577  0.06722954  1
  O  O465  1  0.47774097  0.91482047  0.31657811  1
  O  O466  1  0.47753480  0.91478644  0.56718075  1
  O  O467  1  0.47705840  0.91606015  0.81579211  1
  O  O468  1  0.97881573  0.24954797  0.06802706  1
  O  O469  1  0.97810942  0.24916936  0.31867464  1
  O  O470  1  0.97760270  0.25099829  0.56731801  1
  O  O471  1  0.97799065  0.24886191  0.81697939  1
  O  O472  1  0.97841927  0.58143670  0.06651347  1
  O  O473  1  0.97831425  0.58488201  0.31732145  1
  O  O474  1  0.97845985  0.58338519  0.56882924  1
  O  O475  1  0.97776367  0.58197301  0.81700784  1
  O  O476  1  0.97822708  0.91371582  0.06664357  1
  O  O477  1  0.97842793  0.91530451  0.31861371  1
  O  O478  1  0.97717397  0.91674338  0.56602262  1
  O  O479  1  0.97684685  0.91561359  0.81547035  1
  O  O480  1  0.07452614  0.31245068  0.07489257  1
  O  O481  1  0.07362806  0.31267254  0.32549532  1
  O  O482  1  0.07224466  0.31479144  0.57515311  1
  O  O483  1  0.07352901  0.31250605  0.82453438  1
  O  O484  1  0.07382205  0.64510455  0.07371743  1
  O  O485  1  0.07347560  0.64790612  0.32448419  1
  O  O486  1  0.07374337  0.64692468  0.57676583  1
  O  O487  1  0.07294274  0.64569259  0.82529989  1
  O  O488  1  0.07354495  0.97762556  0.07357518  1
  O  O489  1  0.07333684  0.97962344  0.32550494  1
  O  O490  1  0.07226080  0.98020124  0.57443685  1
  O  O491  1  0.07137125  0.97958765  0.82311105  1
  O  O492  1  0.57191395  0.31469010  0.07181948  1
  O  O493  1  0.57349847  0.31536413  0.32343907  1
  O  O494  1  0.57339480  0.31411503  0.57653579  1
  O  O495  1  0.57117952  0.31473105  0.82380904  1
  O  O496  1  0.57155799  0.64763125  0.07349527  1
  O  O497  1  0.57324577  0.64640858  0.32415324  1
  O  O498  1  0.57302870  0.64846973  0.57450937  1
  O  O499  1  0.57287185  0.64684670  0.82400640  1
  O  O500  1  0.57425634  0.98017555  0.07486253  1
  O  O501  1  0.57290177  0.97874803  0.32508761  1
  O  O502  1  0.57223067  0.97945261  0.57519946  1
  O  O503  1  0.57159366  0.98054508  0.82243947  1
  O  O504  1  0.42622394  0.02071344  0.17346277  1
  O  O505  1  0.42593756  0.02022651  0.42491076  1
  O  O506  1  0.42823285  0.01965570  0.67728092  1
  O  O507  1  0.42774359  0.02129463  0.92390907  1
  O  O508  1  0.42799562  0.35395888  0.17531732  1
  O  O509  1  0.42643770  0.35419289  0.42522905  1
  O  O510  1  0.42810928  0.35401294  0.67808264  1
  O  O511  1  0.42892526  0.35374447  0.92669642  1
  O  O512  1  0.42694629  0.68752978  0.17548194  1
  O  O513  1  0.42820492  0.68614738  0.42704307  1
  O  O514  1  0.42757311  0.68657921  0.67676559  1
  O  O515  1  0.42738566  0.68516200  0.92567887  1
  O  O516  1  0.92589892  0.01816140  0.17458118  1
  O  O517  1  0.92627501  0.01774597  0.42679570  1
  O  O518  1  0.92831923  0.01936403  0.67685526  1
  O  O519  1  0.92601886  0.01936402  0.92295540  1
  O  O520  1  0.92586465  0.35299340  0.17408266  1
  O  O521  1  0.92630037  0.35198311  0.42653159  1
  O  O522  1  0.92583882  0.35460675  0.67609793  1
  O  O523  1  0.92738236  0.35391594  0.92450444  1
  O  O524  1  0.92778999  0.68426524  0.17544110  1
  O  O525  1  0.92671622  0.68724081  0.42622610  1
  O  O526  1  0.92644218  0.68829492  0.67507720  1
  O  O527  1  0.92666333  0.68724956  0.92423781  1
  O  O528  1  0.17624107  0.01990281  0.20018304  1
  O  O529  1  0.17733332  0.01845845  0.44947790  1
  O  O530  1  0.17642538  0.01970248  0.70031008  1
  O  O531  1  0.17668975  0.01848620  0.94866975  1
  O  O532  1  0.17643052  0.35335553  0.19987704  1
  O  O533  1  0.17703228  0.35216304  0.45022891  1
  O  O534  1  0.17788812  0.35337997  0.69908581  1
  O  O535  1  0.17809295  0.35349671  0.94814832  1
  O  O536  1  0.17735028  0.68527847  0.19877822  1
  O  O537  1  0.17672248  0.68556960  0.45110203  1
  O  O538  1  0.17711651  0.68494630  0.70032320  1
  O  O539  1  0.17723835  0.68593144  0.94850578  1
  O  O540  1  0.67628865  0.02036610  0.19865647  1
  O  O541  1  0.67555290  0.01951374  0.45054283  1
  O  O542  1  0.67715996  0.02028846  0.69876703  1
  O  O543  1  0.67703289  0.01925161  0.94787560  1
  O  O544  1  0.67551836  0.35327566  0.19897928  1
  O  O545  1  0.67597019  0.35327075  0.45046305  1
  O  O546  1  0.67623226  0.35335759  0.70165735  1
  O  O547  1  0.67810694  0.35278999  0.94757323  1
  O  O548  1  0.67771498  0.68640981  0.19825134  1
  O  O549  1  0.67698502  0.68844734  0.44957447  1
  O  O550  1  0.67735391  0.68682250  0.69806643  1
  O  O551  1  0.67568821  0.68702249  0.94985822  1
  O  O552  1  0.32411113  0.31382216  0.04939434  1
  O  O553  1  0.32334056  0.31529315  0.30101034  1
  O  O554  1  0.32392582  0.31471431  0.55167765  1
  O  O555  1  0.32362509  0.31512169  0.80126510  1
  O  O556  1  0.32306760  0.64826102  0.05037807  1
  O  O557  1  0.32439358  0.64688467  0.30097307  1
  O  O558  1  0.32288037  0.64668304  0.55304149  1
  O  O559  1  0.32291017  0.64641138  0.80192604  1
  O  O560  1  0.32400406  0.97988302  0.04879225  1
  O  O561  1  0.32370505  0.98102405  0.30094889  1
  O  O562  1  0.32430272  0.97990539  0.55070825  1
  O  O563  1  0.32233665  0.97980662  0.80179299  1
  O  O564  1  0.82245474  0.31173544  0.04868533  1
  O  O565  1  0.82356967  0.31287437  0.29919836  1
  O  O566  1  0.82302030  0.31216976  0.55159474  1
  O  O567  1  0.82136233  0.31306822  0.80170828  1
  O  O568  1  0.82288932  0.64782353  0.04957967  1
  O  O569  1  0.82418387  0.64703054  0.29952916  1
  O  O570  1  0.82306078  0.64878761  0.55101568  1
  O  O571  1  0.82287026  0.64660112  0.80039479  1
  O  O572  1  0.82307899  0.97934152  0.04994696  1
  O  O573  1  0.82259659  0.97871657  0.30007774  1
  O  O574  1  0.82233602  0.98033222  0.55159077  1
  O  O575  1  0.82235979  0.98156153  0.80002013  1
  O  O576  1  0.42602825  0.14762943  0.17409521  1
  O  O577  1  0.42619618  0.14729267  0.42490285  1
  O  O578  1  0.42703228  0.14711260  0.67655247  1
  O  O579  1  0.42718948  0.14835004  0.92451649  1
  O  O580  1  0.42785291  0.48127643  0.17575421  1
  O  O581  1  0.42590896  0.48076787  0.42515024  1
  O  O582  1  0.42795983  0.48146096  0.67805046  1
  O  O583  1  0.42790418  0.48081395  0.92612211  1
  O  O584  1  0.42710645  0.81461985  0.17559138  1
  O  O585  1  0.42762920  0.81338977  0.42726288  1
  O  O586  1  0.42794880  0.81356507  0.67740100  1
  O  O587  1  0.42741205  0.81214891  0.92420789  1
  O  O588  1  0.92583690  0.14529649  0.17471004  1
  O  O589  1  0.92588008  0.14483103  0.42628455  1
  O  O590  1  0.92792064  0.14679808  0.67594607  1
  O  O591  1  0.92651134  0.14612398  0.92382476  1
  O  O592  1  0.92577209  0.47986160  0.17507292  1
  O  O593  1  0.92649954  0.47932006  0.42559959  1
  O  O594  1  0.92675753  0.48165643  0.67594712  1
  O  O595  1  0.92695456  0.48112859  0.92606982  1
  O  O596  1  0.92737555  0.81134459  0.17535220  1
  O  O597  1  0.92665057  0.81426883  0.42575588  1
  O  O598  1  0.92658333  0.81534443  0.67574377  1
  O  O599  1  0.92685009  0.81433839  0.92566421  1
  O  O600  1  0.07403957  0.18546543  0.07482475  1
  O  O601  1  0.07337683  0.18568069  0.32648227  1
  O  O602  1  0.07332611  0.18762010  0.57544291  1
  O  O603  1  0.07305198  0.18532416  0.82341902  1
  O  O604  1  0.07347762  0.51812594  0.07419889  1
  O  O605  1  0.07343582  0.52059040  0.32536739  1
  O  O606  1  0.07401839  0.52007918  0.57575676  1
  O  O607  1  0.07292301  0.51849653  0.82352513  1
  O  O608  1  0.07339190  0.85040851  0.07318538  1
  O  O609  1  0.07445312  0.85301647  0.32625778  1
  O  O610  1  0.07201371  0.85288959  0.57426880  1
  O  O611  1  0.07228516  0.85231868  0.82282078  1
  O  O612  1  0.57226670  0.18739981  0.07264380  1
  O  O613  1  0.57292572  0.18813763  0.32386979  1
  O  O614  1  0.57328622  0.18725738  0.57587060  1
  O  O615  1  0.57256062  0.18748970  0.82346622  1
  O  O616  1  0.57300930  0.52032318  0.07286033  1
  O  O617  1  0.57342352  0.51943584  0.32411939  1
  O  O618  1  0.57275042  0.52157065  0.57570496  1
  O  O619  1  0.57158985  0.51980929  0.82361176  1
  O  O620  1  0.57422788  0.85337082  0.07427388  1
  O  O621  1  0.57282025  0.85154118  0.32395464  1
  O  O622  1  0.57301220  0.85248530  0.57516461  1
  O  O623  1  0.57259547  0.85302045  0.82287226  1
  O  O624  1  0.32361040  0.18686356  0.04884830  1
  O  O625  1  0.32382439  0.18806327  0.30069836  1
  O  O626  1  0.32342761  0.18764638  0.55071270  1
  O  O627  1  0.32332292  0.18802429  0.79980897  1
  O  O628  1  0.32315642  0.52126699  0.04985749  1
  O  O629  1  0.32440936  0.52011596  0.30023879  1
  O  O630  1  0.32236588  0.51924676  0.55351312  1
  O  O631  1  0.32184284  0.51934666  0.80216764  1
  O  O632  1  0.32447840  0.85317174  0.04881798  1
  O  O633  1  0.32335819  0.85364553  0.30076663  1
  O  O634  1  0.32464909  0.85313879  0.55021765  1
  O  O635  1  0.32156780  0.85218620  0.80213406  1
  O  O636  1  0.82246127  0.18462692  0.04933046  1
  O  O637  1  0.82358459  0.18599067  0.29971493  1
  O  O638  1  0.82303031  0.18498404  0.55212474  1
  O  O639  1  0.82228014  0.18574156  0.80128336  1
  O  O640  1  0.82248926  0.52066949  0.04972230  1
  O  O641  1  0.82347717  0.52020716  0.29927798  1
  O  O642  1  0.82317598  0.52152397  0.55033533  1
  O  O643  1  0.82270389  0.51950809  0.80051013  1
  O  O644  1  0.82309360  0.85228157  0.04954530  1
  O  O645  1  0.82286389  0.85160061  0.30097659  1
  O  O646  1  0.82122648  0.85317503  0.55250528  1
  O  O647  1  0.82202267  0.85458801  0.79908306  1
  O  O648  1  0.17646060  0.14685797  0.20077121  1
  O  O649  1  0.17669312  0.14580909  0.45039076  1
  O  O650  1  0.17658687  0.14666405  0.70103871  1
  O  O651  1  0.17624813  0.14575456  0.94902722  1
  O  O652  1  0.17614448  0.48014391  0.20057196  1
  O  O653  1  0.17734498  0.47917822  0.45089359  1
  O  O654  1  0.17914988  0.48049237  0.69893008  1
  O  O655  1  0.17894397  0.48087962  0.94754622  1
  O  O656  1  0.17739243  0.81252192  0.19927109  1
  O  O657  1  0.17631311  0.81236841  0.45165150  1
  O  O658  1  0.17750592  0.81195324  0.70070640  1
  O  O659  1  0.17866874  0.81308806  0.94788507  1
  O  O660  1  0.67615236  0.14760618  0.19808430  1
  O  O661  1  0.67574493  0.14619444  0.45058504  1
  O  O662  1  0.67794040  0.14741782  0.69904506  1
  O  O663  1  0.67682375  0.14649459  0.94742826  1
  O  O664  1  0.67562013  0.48011020  0.19945671  1
  O  O665  1  0.67609513  0.48051601  0.45044169  1
  O  O666  1  0.67600149  0.48009034  0.70118425  1
  O  O667  1  0.67761554  0.48042255  0.94794159  1
  O  O668  1  0.67777872  0.81381802  0.19777343  1
  O  O669  1  0.67704966  0.81532405  0.44923799  1
  O  O670  1  0.67828046  0.81443341  0.69782671  1
  O  O671  1  0.67544889  0.81360079  0.94988126  1
