# generated using pymatgen
data_Na2MnFe(PO4)2
_symmetry_space_group_name_H-M   'P 1'
_cell_length_a   22.34135193
_cell_length_b   20.09543447
_cell_length_c   19.45082336
_cell_angle_alpha   89.99558086
_cell_angle_beta   89.98436289
_cell_angle_gamma   90.01052977
_symmetry_Int_Tables_number   1
_chemical_formula_structural   Na2MnFe(PO4)2
_chemical_formula_sum   'Na96 Mn48 Fe48 P96 O384'
_cell_volume   8732.62508502
_cell_formula_units_Z   48
loop_
 _symmetry_equiv_pos_site_id
 _symmetry_equiv_pos_as_xyz
  1  'x, y, z'
loop_
 _atom_site_type_symbol
 _atom_site_label
 _atom_site_symmetry_multiplicity
 _atom_site_fract_x
 _atom_site_fract_y
 _atom_site_fract_z
 _atom_site_occupancy
  Na  Na0  1  0.13991776  0.24910125  0.24330689  1
  Na  Na1  1  0.14146123  0.24983829  0.49287164  1
  Na  Na2  1  0.14061691  0.24962871  0.74374655  1
  Na  Na3  1  0.14002769  0.25201592  0.99465543  1
  Na  Na4  1  0.14084823  0.58237326  0.24426202  1
  Na  Na5  1  0.14069927  0.58290811  0.49261981  1
  Na  Na6  1  0.14032302  0.58229148  0.74347811  1
  Na  Na7  1  0.14065218  0.58466415  0.99363257  1
  Na  Na8  1  0.14037648  0.91597706  0.24425671  1
  Na  Na9  1  0.14048647  0.91686880  0.49258644  1
  Na  Na10  1  0.14003811  0.91595598  0.74247027  1
  Na  Na11  1  0.14020087  0.91787892  0.99323600  1
  Na  Na12  1  0.64048667  0.25177610  0.24341379  1
  Na  Na13  1  0.64036549  0.25019888  0.49488837  1
  Na  Na14  1  0.64033463  0.24918619  0.74311645  1
  Na  Na15  1  0.64020841  0.25051401  0.99444406  1
  Na  Na16  1  0.64047662  0.58297151  0.24415027  1
  Na  Na17  1  0.64025763  0.58331556  0.49402639  1
  Na  Na18  1  0.64044656  0.58347517  0.74240844  1
  Na  Na19  1  0.64017380  0.58350102  0.99478522  1
  Na  Na20  1  0.64039223  0.91585213  0.24412970  1
  Na  Na21  1  0.64012568  0.91606673  0.49480803  1
  Na  Na22  1  0.64004753  0.91557290  0.74209678  1
  Na  Na23  1  0.64032921  0.91726833  0.99350884  1
  Na  Na24  1  0.35918637  0.08469281  0.00506749  1
  Na  Na25  1  0.35848105  0.08306794  0.25690701  1
  Na  Na26  1  0.35903364  0.08427910  0.50620050  1
  Na  Na27  1  0.35979500  0.08304119  0.75677640  1
  Na  Na28  1  0.35956441  0.41718209  0.00553777  1
  Na  Na29  1  0.35943580  0.41596135  0.25795488  1
  Na  Na30  1  0.35950889  0.41698555  0.50689928  1
  Na  Na31  1  0.35964446  0.41522463  0.75640606  1
  Na  Na32  1  0.35979533  0.75107900  0.00628060  1
  Na  Na33  1  0.35956080  0.75029592  0.25816779  1
  Na  Na34  1  0.35995891  0.75031278  0.50611722  1
  Na  Na35  1  0.35960051  0.74901795  0.75599157  1
  Na  Na36  1  0.85913311  0.08479478  0.00604591  1
  Na  Na37  1  0.85927621  0.08427845  0.25664954  1
  Na  Na38  1  0.85981820  0.08188103  0.50594471  1
  Na  Na39  1  0.85968452  0.08209920  0.75558448  1
  Na  Na40  1  0.85935507  0.41658844  0.00838143  1
  Na  Na41  1  0.86033988  0.41687014  0.25579102  1
  Na  Na42  1  0.86014588  0.41723560  0.50558189  1
  Na  Na43  1  0.85962405  0.41623927  0.75606631  1
  Na  Na44  1  0.86047363  0.74972628  0.00682630  1
  Na  Na45  1  0.85974568  0.74986112  0.25519929  1
  Na  Na46  1  0.85933720  0.75034988  0.50747720  1
  Na  Na47  1  0.86066163  0.74997299  0.75618240  1
  Na  Na48  1  0.10932352  0.08406075  0.11885842  1
  Na  Na49  1  0.10979230  0.08231977  0.36743225  1
  Na  Na50  1  0.11011171  0.08274398  0.61813513  1
  Na  Na51  1  0.10947626  0.08319884  0.86837737  1
  Na  Na52  1  0.11038866  0.41729740  0.11908960  1
  Na  Na53  1  0.11003187  0.41557422  0.36718547  1
  Na  Na54  1  0.10990265  0.41602261  0.61810082  1
  Na  Na55  1  0.10951568  0.41731897  0.86924135  1
  Na  Na56  1  0.10961931  0.75070415  0.11913163  1
  Na  Na57  1  0.10995606  0.74888355  0.36824139  1
  Na  Na58  1  0.11008958  0.74918657  0.61814388  1
  Na  Na59  1  0.10977008  0.75099029  0.86815442  1
  Na  Na60  1  0.60938435  0.08406809  0.11915793  1
  Na  Na61  1  0.60924775  0.08354129  0.36856272  1
  Na  Na62  1  0.60939998  0.08228595  0.61961344  1
  Na  Na63  1  0.60938582  0.08325406  0.86744212  1
  Na  Na64  1  0.60978244  0.41728724  0.11893470  1
  Na  Na65  1  0.61009793  0.41727501  0.36888938  1
  Na  Na66  1  0.60982866  0.41777487  0.61903303  1
  Na  Na67  1  0.60954882  0.41624963  0.86866355  1
  Na  Na68  1  0.60947106  0.75020182  0.11956763  1
  Na  Na69  1  0.61024428  0.75034772  0.36998050  1
  Na  Na70  1  0.60964600  0.74993733  0.61773402  1
  Na  Na71  1  0.60933424  0.74907791  0.86841200  1
  Na  Na72  1  0.38958745  0.25092268  0.13204295  1
  Na  Na73  1  0.38958964  0.25151292  0.38223614  1
  Na  Na74  1  0.39016332  0.25000178  0.63283310  1
  Na  Na75  1  0.39018540  0.24966325  0.87978076  1
  Na  Na76  1  0.39043475  0.58430649  0.13198123  1
  Na  Na77  1  0.39049864  0.58438095  0.38332506  1
  Na  Na78  1  0.39012133  0.58370027  0.63121277  1
  Na  Na79  1  0.39026270  0.58264370  0.88037421  1
  Na  Na80  1  0.38973335  0.91724839  0.13157024  1
  Na  Na81  1  0.38997689  0.91604062  0.38154355  1
  Na  Na82  1  0.39033740  0.91676178  0.63147196  1
  Na  Na83  1  0.39028593  0.91599780  0.88064289  1
  Na  Na84  1  0.88998895  0.25156723  0.13248854  1
  Na  Na85  1  0.89037136  0.25026632  0.38025578  1
  Na  Na86  1  0.89090690  0.24860143  0.63077374  1
  Na  Na87  1  0.89008598  0.24970143  0.88222661  1
  Na  Na88  1  0.89078736  0.58414502  0.13169547  1
  Na  Na89  1  0.89047594  0.58266944  0.38048264  1
  Na  Na90  1  0.89040922  0.58324281  0.63165176  1
  Na  Na91  1  0.89064149  0.58417976  0.88142102  1
  Na  Na92  1  0.89059499  0.91684783  0.13096327  1
  Na  Na93  1  0.88993543  0.91545627  0.38151764  1
  Na  Na94  1  0.89061032  0.91585299  0.63182519  1
  Na  Na95  1  0.89068949  0.91558652  0.87972424  1
  Mn  Mn96  1  0.50034972  0.66787942  0.25143888  1
  Mn  Mn97  1  -0.00056380  -0.00055929  -0.00012054  1
  Mn  Mn98  1  0.75043012  0.50027085  0.87555875  1
  Mn  Mn99  1  0.49914358  0.50065174  -0.00016125  1
  Mn  Mn100  1  0.24939814  0.00051965  0.87448738  1
  Mn  Mn101  1  0.49958582  -0.00037400  -0.00040642  1
  Mn  Mn102  1  0.75085128  0.66695612  0.37522048  1
  Mn  Mn103  1  -0.00000983  0.33312280  0.74969173  1
  Mn  Mn104  1  -0.00073061  0.50032455  0.75052999  1
  Mn  Mn105  1  0.75005813  0.00062470  0.87454163  1
  Mn  Mn106  1  0.25117479  0.49957366  0.12575205  1
  Mn  Mn107  1  0.74946033  -0.00064372  0.37523443  1
  Mn  Mn108  1  -0.00021389  0.66532946  0.49923881  1
  Mn  Mn109  1  0.75028410  0.66644390  0.87467543  1
  Mn  Mn110  1  0.50017228  0.66635099  0.74949277  1
  Mn  Mn111  1  0.49922863  0.16785107  0.24985973  1
  Mn  Mn112  1  0.25031552  0.66675643  0.87486547  1
  Mn  Mn113  1  0.49993448  0.16714380  0.50055992  1
  Mn  Mn114  1  0.25020700  0.83227426  0.62377126  1
  Mn  Mn115  1  0.25016465  0.66692415  0.12514529  1
  Mn  Mn116  1  0.00049284  0.16514641  0.49986296  1
  Mn  Mn117  1  0.74968095  0.83305572  0.87467852  1
  Mn  Mn118  1  0.24973436  0.16690400  0.12550641  1
  Mn  Mn119  1  0.00007273  0.66674889  0.24995599  1
  Mn  Mn120  1  0.24975512  0.33344359  0.87484174  1
  Mn  Mn121  1  0.74942775  0.16744010  0.37559222  1
  Mn  Mn122  1  0.75083442  0.49933164  0.37440321  1
  Mn  Mn123  1  0.50055480  0.33473355  0.50143140  1
  Mn  Mn124  1  0.24984090  0.83450681  0.12608360  1
  Mn  Mn125  1  0.75028304  0.83285087  0.12457516  1
  Mn  Mn126  1  0.75076740  0.16566251  0.62416172  1
  Mn  Mn127  1  -0.00049921  0.16755491  -0.00047023  1
  Mn  Mn128  1  -0.00029542  -0.00078128  0.24895988  1
  Mn  Mn129  1  0.49973358  0.16685065  -0.00059529  1
  Mn  Mn130  1  0.75018825  0.00113919  0.12455590  1
  Mn  Mn131  1  0.50027085  0.50037321  0.25073353  1
  Mn  Mn132  1  0.24990320  0.49951547  0.62412060  1
  Mn  Mn133  1  0.00011187  0.50056074  0.00017016  1
  Mn  Mn134  1  0.00068840  0.16556198  0.75030918  1
  Mn  Mn135  1  0.00067744  0.33335997  0.49940782  1
  Mn  Mn136  1  0.75114725  0.33334727  0.62529857  1
  Mn  Mn137  1  0.49950747  0.33341534  -0.00064439  1
  Mn  Mn138  1  0.50044839  0.83268531  -0.00001534  1
  Mn  Mn139  1  -0.00008315  0.83307288  0.50006179  1
  Mn  Mn140  1  0.49950685  -0.00046369  0.24986169  1
  Mn  Mn141  1  0.49928870  -0.00075603  0.49978875  1
  Mn  Mn142  1  0.25041955  0.00060968  0.62456063  1
  Mn  Mn143  1  0.74950079  0.33270300  0.87565117  1
  Fe  Fe144  1  0.75016481  0.83318121  0.37546744  1
  Fe  Fe145  1  0.49972049  0.83327516  0.25035418  1
  Fe  Fe146  1  0.49965335  0.50038641  0.50045044  1
  Fe  Fe147  1  0.74997928  0.49975754  0.62489014  1
  Fe  Fe148  1  0.74958146  -0.00059982  0.62508742  1
  Fe  Fe149  1  0.00072374  0.83333582  -0.00079918  1
  Fe  Fe150  1  0.75053898  0.66672810  0.62462127  1
  Fe  Fe151  1  0.24978068  0.00018872  0.37519083  1
  Fe  Fe152  1  0.49951564  0.66682346  0.00005902  1
  Fe  Fe153  1  0.50006187  -0.00066507  0.74961202  1
  Fe  Fe154  1  0.49983490  0.16651405  0.74991341  1
  Fe  Fe155  1  0.00013545  -0.00099723  0.49941711  1
  Fe  Fe156  1  0.25015828  0.66636150  0.37518361  1
  Fe  Fe157  1  0.74977309  0.33366320  0.12474610  1
  Fe  Fe158  1  0.50007290  0.66722817  0.50086099  1
  Fe  Fe159  1  0.74968638  0.16753002  0.12576065  1
  Fe  Fe160  1  0.75003306  0.33374873  0.37456416  1
  Fe  Fe161  1  0.49951440  0.83278940  0.74981957  1
  Fe  Fe162  1  0.75011197  0.50012339  0.12532375  1
  Fe  Fe163  1  0.24975277  0.49985144  0.87450532  1
  Fe  Fe164  1  0.24981411  0.16686742  0.62456977  1
  Fe  Fe165  1  0.00093056  0.66681586  0.75044571  1
  Fe  Fe166  1  0.00003289  0.33372082  0.25017730  1
  Fe  Fe167  1  0.24991506  0.66613744  0.62444348  1
  Fe  Fe168  1  0.00058271  0.83285477  0.74986150  1
  Fe  Fe169  1  0.49969844  0.33424966  0.25054785  1
  Fe  Fe170  1  0.50029005  0.83330835  0.50072629  1
  Fe  Fe171  1  0.74981094  0.16685208  0.87524481  1
  Fe  Fe172  1  -0.00055536  0.16656748  0.24967718  1
  Fe  Fe173  1  0.00026613  -0.00075364  0.74963782  1
  Fe  Fe174  1  -0.00032066  0.83291453  0.24988065  1
  Fe  Fe175  1  0.74952340  0.66652195  0.12544642  1
  Fe  Fe176  1  0.24998167  0.83340563  0.37518309  1
  Fe  Fe177  1  0.24962759  0.16725725  0.87515294  1
  Fe  Fe178  1  0.25001574  0.83384562  0.87502351  1
  Fe  Fe179  1  0.50035144  0.50016984  0.75015324  1
  Fe  Fe180  1  0.24970077  0.16682002  0.37494750  1
  Fe  Fe181  1  0.24997738  0.33337603  0.12547986  1
  Fe  Fe182  1  0.00048618  0.66760595  0.00039563  1
  Fe  Fe183  1  0.25013024  0.33253734  0.37566191  1
  Fe  Fe184  1  0.50029300  0.33377718  0.74958882  1
  Fe  Fe185  1  0.00022509  0.49933297  0.49986245  1
  Fe  Fe186  1  0.25030276  0.49943038  0.37518545  1
  Fe  Fe187  1  0.24979556  0.33308741  0.62490931  1
  Fe  Fe188  1  -0.00013870  0.33393467  0.00079191  1
  Fe  Fe189  1  0.75019184  0.83326656  0.62499966  1
  Fe  Fe190  1  0.00093399  0.50023656  0.24935918  1
  Fe  Fe191  1  0.24965157  0.00037584  0.12521744  1
  P  P192  1  0.04154192  0.25162144  0.10345356  1
  P  P193  1  0.04114323  0.24935701  0.35114170  1
  P  P194  1  0.04342804  0.24925431  0.60252137  1
  P  P195  1  0.04276716  0.25043611  0.85361703  1
  P  P196  1  0.04258159  0.58486722  0.10270229  1
  P  P197  1  0.04243300  0.58152242  0.35245634  1
  P  P198  1  0.04243035  0.58188319  0.60246621  1
  P  P199  1  0.04241050  0.58508592  0.85312138  1
  P  P200  1  0.04216868  0.91515713  0.10232482  1
  P  P201  1  0.04194002  0.91514896  0.35223348  1
  P  P202  1  0.04261318  0.91746053  0.60270631  1
  P  P203  1  0.04176607  0.91617552  0.85137758  1
  P  P204  1  0.54208190  0.25070993  0.10341502  1
  P  P205  1  0.54209584  0.25202568  0.35273706  1
  P  P206  1  0.54252321  0.25039652  0.60462957  1
  P  P207  1  0.54138847  0.25021192  0.85092427  1
  P  P208  1  0.54184120  0.58495854  0.10272697  1
  P  P209  1  0.54286755  0.58392748  0.35474195  1
  P  P210  1  0.54107876  0.58309478  0.60204312  1
  P  P211  1  0.54252020  0.58238487  0.85243914  1
  P  P212  1  0.54278713  0.91636450  0.10340860  1
  P  P213  1  0.54198769  0.91493857  0.35299984  1
  P  P214  1  0.54156001  0.91551232  0.60351276  1
  P  P215  1  0.54158617  0.91588834  0.85103021  1
  P  P216  1  0.45628277  0.08359122  0.14690161  1
  P  P217  1  0.45689703  0.08371349  0.39716083  1
  P  P218  1  0.45838823  0.08287625  0.64857942  1
  P  P219  1  0.45744477  0.08296110  0.89531064  1
  P  P220  1  0.45731187  0.41635762  0.14807971  1
  P  P221  1  0.45790424  0.41815977  0.39807948  1
  P  P222  1  0.45845240  0.41776393  0.64842275  1
  P  P223  1  0.45721905  0.41679198  0.89557582  1
  P  P224  1  0.45716644  0.75115085  0.14790508  1
  P  P225  1  0.45900963  0.75073724  0.39897051  1
  P  P226  1  0.45792054  0.75100208  0.64681625  1
  P  P227  1  0.45758689  0.74869148  0.89711863  1
  P  P228  1  0.95729165  0.08479998  0.14735211  1
  P  P229  1  0.95782668  0.08145379  0.39677977  1
  P  P230  1  0.95822973  0.08104931  0.64707994  1
  P  P231  1  0.95722674  0.08246089  0.89634800  1
  P  P232  1  0.95924805  0.41713312  0.14816158  1
  P  P233  1  0.95856580  0.41776582  0.39629364  1
  P  P234  1  0.95727305  0.41678990  0.64633410  1
  P  P235  1  0.95716001  0.41592430  0.89830619  1
  P  P236  1  0.95805410  0.75132490  0.14658905  1
  P  P237  1  0.95697457  0.74964194  0.39661274  1
  P  P238  1  0.95924837  0.74926164  0.64851065  1
  P  P239  1  0.95900236  0.75007795  0.89771715  1
  P  P240  1  0.20748496  0.08179298  0.22829869  1
  P  P241  1  0.20851799  0.08386838  0.47653713  1
  P  P242  1  0.20804457  0.08474349  0.72738661  1
  P  P243  1  0.20736668  0.08522068  0.97763072  1
  P  P244  1  0.20848444  0.41497709  0.22876544  1
  P  P245  1  0.20879258  0.41588613  0.47667438  1
  P  P246  1  0.20772455  0.41538873  0.72718876  1
  P  P247  1  0.20777031  0.41817273  0.97768899  1
  P  P248  1  0.20775283  0.74973524  0.22940959  1
  P  P249  1  0.20865712  0.74942682  0.47643509  1
  P  P250  1  0.20806204  0.74819424  0.72710115  1
  P  P251  1  0.20788049  0.75194560  0.97731482  1
  P  P252  1  0.70738297  0.08482069  0.22766881  1
  P  P253  1  0.70673099  0.08257330  0.47859180  1
  P  P254  1  0.70782756  0.08218130  0.72748283  1
  P  P255  1  0.70732580  0.08535445  0.97773960  1
  P  P256  1  0.70893707  0.41673270  0.22671151  1
  P  P257  1  0.70812748  0.41574892  0.47762622  1
  P  P258  1  0.70782525  0.41749540  0.72750746  1
  P  P259  1  0.70736795  0.41691296  0.97932110  1
  P  P260  1  0.70767731  0.74899786  0.22799751  1
  P  P261  1  0.70870839  0.75122545  0.47861870  1
  P  P262  1  0.70876266  0.74981453  0.72596125  1
  P  P263  1  0.70728357  0.74928197  0.97842191  1
  P  P264  1  0.29196842  0.25155370  0.02263230  1
  P  P265  1  0.29113267  0.25006936  0.27351162  1
  P  P266  1  0.29163125  0.25029781  0.52305319  1
  P  P267  1  0.29173911  0.24861733  0.77176938  1
  P  P268  1  0.29285109  0.58341404  0.02162091  1
  P  P269  1  0.29201008  0.58305052  0.27413878  1
  P  P270  1  0.29195978  0.58452310  0.52146674  1
  P  P271  1  0.29202198  0.58167761  0.77184497  1
  P  P272  1  0.29186872  0.91858367  0.02247829  1
  P  P273  1  0.29110297  0.91725560  0.27360867  1
  P  P274  1  0.29243452  0.91700503  0.52078088  1
  P  P275  1  0.29193316  0.91527413  0.77225070  1
  P  P276  1  0.79130421  0.24970629  0.02356300  1
  P  P277  1  0.79178739  0.25162848  0.27177584  1
  P  P278  1  0.79345715  0.25032942  0.52121404  1
  P  P279  1  0.79256678  0.24847623  0.77282171  1
  P  P280  1  0.79173278  0.58350175  0.02400953  1
  P  P281  1  0.79278870  0.58334213  0.27095004  1
  P  P282  1  0.79163590  0.58288395  0.52340748  1
  P  P283  1  0.79276584  0.58324513  0.77080835  1
  P  P284  1  0.79302738  0.91721469  0.02158888  1
  P  P285  1  0.79217665  0.91522637  0.27271544  1
  P  P286  1  0.79157821  0.91636765  0.52336957  1
  P  P287  1  0.79219249  0.91629256  0.77073513  1
  O  O288  1  0.03584867  0.25087176  0.18331215  1
  O  O289  1  0.03677627  0.24942525  0.43112330  1
  O  O290  1  0.03844432  0.24914848  0.68246752  1
  O  O291  1  0.03733735  0.25120667  0.93356672  1
  O  O292  1  0.03726593  0.58417953  0.18264223  1
  O  O293  1  0.03704063  0.58116278  0.43236571  1
  O  O294  1  0.03734951  0.58274434  0.68241938  1
  O  O295  1  0.03717580  0.58525130  0.93305693  1
  O  O296  1  0.03667366  0.91501623  0.18223173  1
  O  O297  1  0.03675358  0.91612237  0.43216966  1
  O  O298  1  0.03746413  0.91724699  0.68259952  1
  O  O299  1  0.03690228  0.91549558  0.93131898  1
  O  O300  1  0.53693154  0.25138110  0.18336418  1
  O  O301  1  0.53736079  0.25184456  0.43276321  1
  O  O302  1  0.53704207  0.25029294  0.68449429  1
  O  O303  1  0.53641717  0.24988401  0.93092118  1
  O  O304  1  0.53699918  0.58480183  0.18271446  1
  O  O305  1  0.53767203  0.58372447  0.43463764  1
  O  O306  1  0.53641031  0.58279983  0.68202616  1
  O  O307  1  0.53705396  0.58328302  0.93232618  1
  O  O308  1  0.53773496  0.91591153  0.18336441  1
  O  O309  1  0.53652509  0.91494459  0.43295844  1
  O  O310  1  0.53605044  0.91574449  0.68336995  1
  O  O311  1  0.53682132  0.91607561  0.93105845  1
  O  O312  1  0.46128378  0.08350715  0.06687546  1
  O  O313  1  0.46188270  0.08373136  0.31723249  1
  O  O314  1  0.46301730  0.08316306  0.56856536  1
  O  O315  1  0.46305447  0.08265565  0.81541385  1
  O  O316  1  0.46201037  0.41662026  0.06807057  1
  O  O317  1  0.46289098  0.41736903  0.31813875  1
  O  O318  1  0.46363810  0.41828745  0.56844140  1
  O  O319  1  0.46285873  0.41682054  0.81572086  1
  O  O320  1  0.46228546  0.75022170  0.06794996  1
  O  O321  1  0.46353620  0.75085983  0.31898384  1
  O  O322  1  0.46348711  0.75095130  0.56697176  1
  O  O323  1  0.46275289  0.74916011  0.81717092  1
  O  O324  1  0.96242346  0.08473720  0.06741853  1
  O  O325  1  0.96296024  0.08223036  0.31683436  1
  O  O326  1  0.96347111  0.08081866  0.56711541  1
  O  O327  1  0.96282609  0.08188955  0.81643382  1
  O  O328  1  0.96371736  0.41650520  0.06818145  1
  O  O329  1  0.96413817  0.41786262  0.31641913  1
  O  O330  1  0.96264823  0.41714609  0.56638583  1
  O  O331  1  0.96213888  0.41620438  0.81832071  1
  O  O332  1  0.96379970  0.75109565  0.06674458  1
  O  O333  1  0.96195946  0.75001412  0.31667872  1
  O  O334  1  0.96366736  0.74943864  0.56852956  1
  O  O335  1  0.96431109  0.74968124  0.81779857  1
  O  O336  1  0.21267102  0.08442197  0.05754030  1
  O  O337  1  0.21276880  0.08177076  0.30814844  1
  O  O338  1  0.21367087  0.08464434  0.55646784  1
  O  O339  1  0.21301637  0.08477487  0.80733171  1
  O  O340  1  0.21311403  0.41760650  0.05759584  1
  O  O341  1  0.21387817  0.41507081  0.30863045  1
  O  O342  1  0.21345775  0.41577409  0.55666798  1
  O  O343  1  0.21286826  0.41622137  0.80709764  1
  O  O344  1  0.21288280  0.75200198  0.05727193  1
  O  O345  1  0.21319306  0.74942957  0.30927624  1
  O  O346  1  0.21335812  0.74903251  0.55641919  1
  O  O347  1  0.21331514  0.74880886  0.80696043  1
  O  O348  1  0.71254425  0.08552164  0.05771385  1
  O  O349  1  0.71232610  0.08435170  0.30765289  1
  O  O350  1  0.71209766  0.08188805  0.55850423  1
  O  O351  1  0.71301481  0.08302639  0.80740330  1
  O  O352  1  0.71259341  0.41711841  0.05924794  1
  O  O353  1  0.71383602  0.41600086  0.30668136  1
  O  O354  1  0.71341360  0.41650302  0.55754954  1
  O  O355  1  0.71276274  0.41719087  0.80748993  1
  O  O356  1  0.71234549  0.74877241  0.05837227  1
  O  O357  1  0.71321022  0.74974462  0.30791458  1
  O  O358  1  0.71430598  0.75098091  0.55847716  1
  O  O359  1  0.71289916  0.74961124  0.80599606  1
  O  O360  1  0.28644333  0.25032935  0.19356572  1
  O  O361  1  0.28629884  0.25055533  0.44316335  1
  O  O362  1  0.28636613  0.24876887  0.69193012  1
  O  O363  1  0.28679222  0.25117435  0.94272880  1
  O  O364  1  0.28758046  0.58297170  0.19409162  1
  O  O365  1  0.28664993  0.58437287  0.44160572  1
  O  O366  1  0.28666726  0.58227014  0.69191711  1
  O  O367  1  0.28734293  0.58293120  0.94171998  1
  O  O368  1  0.28623250  0.91757971  0.19362529  1
  O  O369  1  0.28698663  0.91726689  0.44092620  1
  O  O370  1  0.28707006  0.91529412  0.69230778  1
  O  O371  1  0.28655284  0.91796283  0.94254385  1
  O  O372  1  0.78612703  0.25118951  0.19190852  1
  O  O373  1  0.78793260  0.25104695  0.44131042  1
  O  O374  1  0.78797593  0.24876449  0.69281534  1
  O  O375  1  0.78652102  0.24942441  0.94356725  1
  O  O376  1  0.78720199  0.58345787  0.19111599  1
  O  O377  1  0.78719621  0.58319317  0.44338888  1
  O  O378  1  0.78752257  0.58307275  0.69090451  1
  O  O379  1  0.78703221  0.58345238  0.94395738  1
  O  O380  1  0.78717882  0.91576948  0.19277700  1
  O  O381  1  0.78645802  0.91586200  0.44339607  1
  O  O382  1  0.78678243  0.91618197  0.69081705  1
  O  O383  1  0.78777256  0.91714816  0.94164787  1
  O  O384  1  0.22774935  0.25169552  0.05857523  1
  O  O385  1  0.22689267  0.25046892  0.30928789  1
  O  O386  1  0.22752030  0.25024599  0.55940231  1
  O  O387  1  0.22765958  0.24859189  0.80811549  1
  O  O388  1  0.22864201  0.58308847  0.05736730  1
  O  O389  1  0.22763740  0.58355689  0.30937805  1
  O  O390  1  0.22781049  0.58447125  0.55758558  1
  O  O391  1  0.22788289  0.58188134  0.80791840  1
  O  O392  1  0.22759877  0.91879835  0.05832168  1
  O  O393  1  0.22699012  0.91742130  0.30961643  1
  O  O394  1  0.22827139  0.91697874  0.55660644  1
  O  O395  1  0.22755712  0.91528608  0.80769285  1
  O  O396  1  0.72708819  0.24961865  0.05934104  1
  O  O397  1  0.72773130  0.25213539  0.30827225  1
  O  O398  1  0.72920620  0.25001050  0.55675951  1
  O  O399  1  0.72803459  0.24840154  0.80792850  1
  O  O400  1  0.72743058  0.58316406  0.05964248  1
  O  O401  1  0.72874197  0.58341163  0.30706006  1
  O  O402  1  0.72737108  0.58248402  0.55893847  1
  O  O403  1  0.72844613  0.58315112  0.80636604  1
  O  O404  1  0.72863425  0.91718662  0.05671869  1
  O  O405  1  0.72781925  0.91479045  0.30823023  1
  O  O406  1  0.72742440  0.91618581  0.55948204  1
  O  O407  1  0.72796201  0.91656437  0.80647803  1
  O  O408  1  0.27162061  0.08192038  0.19210307  1
  O  O409  1  0.27262089  0.08323324  0.44049801  1
  O  O410  1  0.27236116  0.08511353  0.69176881  1
  O  O411  1  0.27153190  0.08510133  0.94155000  1
  O  O412  1  0.27263523  0.41460039  0.19256891  1
  O  O413  1  0.27302764  0.41534675  0.44100293  1
  O  O414  1  0.27196452  0.41507722  0.69133531  1
  O  O415  1  0.27190672  0.41851831  0.94159002  1
  O  O416  1  0.27194549  0.75012392  0.19355898  1
  O  O417  1  0.27286707  0.74917493  0.44070639  1
  O  O418  1  0.27230561  0.74781616  0.69119295  1
  O  O419  1  0.27219819  0.75190838  0.94169904  1
  O  O420  1  0.77177197  0.08526287  0.19226503  1
  O  O421  1  0.77106353  0.08304293  0.44324884  1
  O  O422  1  0.77207217  0.08115609  0.69161596  1
  O  O423  1  0.77166939  0.08527444  0.94206762  1
  O  O424  1  0.77304860  0.41742435  0.19072209  1
  O  O425  1  0.77241759  0.41479455  0.44180106  1
  O  O426  1  0.77224997  0.41829852  0.69217094  1
  O  O427  1  0.77165332  0.41626163  0.94370835  1
  O  O428  1  0.77185171  0.74816581  0.19194391  1
  O  O429  1  0.77274323  0.75166971  0.44218058  1
  O  O430  1  0.77318780  0.75032713  0.69089666  1
  O  O431  1  0.77176315  0.74982369  0.94337669  1
  O  O432  1  0.02161512  0.08454214  0.18279815  1
  O  O433  1  0.02217162  0.08077728  0.43242599  1
  O  O434  1  0.02249468  0.08103746  0.68286715  1
  O  O435  1  0.02145382  0.08303634  0.93191914  1
  O  O436  1  0.02343576  0.41736762  0.18388502  1
  O  O437  1  0.02268313  0.41832304  0.43263239  1
  O  O438  1  0.02156289  0.41701131  0.68178226  1
  O  O439  1  0.02161020  0.41564057  0.93358307  1
  O  O440  1  0.02206188  0.75170823  0.18315171  1
  O  O441  1  0.02140453  0.74941356  0.43165971  1
  O  O442  1  0.02351528  0.74892902  0.68402091  1
  O  O443  1  0.02309340  0.75018480  0.93411087  1
  O  O444  1  0.52076202  0.08378816  0.18182067  1
  O  O445  1  0.52133104  0.08340089  0.43217375  1
  O  O446  1  0.52259584  0.08246552  0.68417051  1
  O  O447  1  0.52158858  0.08304240  0.93130777  1
  O  O448  1  0.52180910  0.41596429  0.18322502  1
  O  O449  1  0.52226862  0.41890117  0.43353270  1
  O  O450  1  0.52266387  0.41737473  0.68436985  1
  O  O451  1  0.52133939  0.41709617  0.93155150  1
  O  O452  1  0.52159853  0.75195168  0.18337591  1
  O  O453  1  0.52315958  0.75084862  0.43478987  1
  O  O454  1  0.52202956  0.75127011  0.68302276  1
  O  O455  1  0.52190063  0.74810166  0.93280650  1
  O  O456  1  0.47771758  0.25022964  0.06813167  1
  O  O457  1  0.47759827  0.25231666  0.31764341  1
  O  O458  1  0.47830055  0.25074991  0.56892171  1
  O  O459  1  0.47725114  0.25099503  0.81512131  1
  O  O460  1  0.47747930  0.58526430  0.06725475  1
  O  O461  1  0.47857876  0.58384805  0.31920593  1
  O  O462  1  0.47694222  0.58283930  0.56616783  1
  O  O463  1  0.47825564  0.58201795  0.81665644  1
  O  O464  1  0.47836414  0.91617610  0.06825988  1
  O  O465  1  0.47771950  0.91486044  0.31712856  1
  O  O466  1  0.47748103  0.91503364  0.56727134  1
  O  O467  1  0.47727987  0.91586875  0.81545170  1
  O  O468  1  0.97748022  0.25216646  0.06700370  1
  O  O469  1  0.97690027  0.24918193  0.31565693  1
  O  O470  1  0.97901786  0.24936575  0.56749754  1
  O  O471  1  0.97846203  0.24962368  0.81821886  1
  O  O472  1  0.97836591  0.58519520  0.06686316  1
  O  O473  1  0.97827386  0.58150298  0.31652272  1
  O  O474  1  0.97807049  0.58104310  0.56685155  1
  O  O475  1  0.97815545  0.58545390  0.81730066  1
  O  O476  1  0.97795664  0.91462671  0.06646703  1
  O  O477  1  0.97769137  0.91476078  0.31642599  1
  O  O478  1  0.97830269  0.91782413  0.56687208  1
  O  O479  1  0.97765239  0.91666702  0.81535939  1
  O  O480  1  0.07268249  0.31512368  0.07525518  1
  O  O481  1  0.07156533  0.31330829  0.32287754  1
  O  O482  1  0.07444491  0.31274106  0.57433530  1
  O  O483  1  0.07373726  0.31377395  0.82495918  1
  O  O484  1  0.07340234  0.64852442  0.07457696  1
  O  O485  1  0.07326804  0.64553332  0.32507720  1
  O  O486  1  0.07311954  0.64551778  0.57391081  1
  O  O487  1  0.07371229  0.64810975  0.82424216  1
  O  O488  1  0.07258020  0.97943993  0.07481764  1
  O  O489  1  0.07314920  0.97842812  0.32369136  1
  O  O490  1  0.07365465  0.98061781  0.57357594  1
  O  O491  1  0.07292927  0.97983492  0.82361250  1
  O  O492  1  0.57315907  0.31395288  0.07466238  1
  O  O493  1  0.57266732  0.31561575  0.32406753  1
  O  O494  1  0.57399895  0.31371997  0.57640800  1
  O  O495  1  0.57294522  0.31360206  0.82327031  1
  O  O496  1  0.57254289  0.64844388  0.07413285  1
  O  O497  1  0.57395467  0.64742152  0.32637386  1
  O  O498  1  0.57120064  0.64742607  0.57409087  1
  O  O499  1  0.57375012  0.64569735  0.82386770  1
  O  O500  1  0.57346863  0.98015916  0.07523031  1
  O  O501  1  0.57290182  0.97884518  0.32540409  1
  O  O502  1  0.57252770  0.97915090  0.57531544  1
  O  O503  1  0.57241368  0.97954854  0.82281824  1
  O  O504  1  0.42551738  0.02001641  0.17523110  1
  O  O505  1  0.42573213  0.02028277  0.42523944  1
  O  O506  1  0.42719799  0.01930430  0.67638664  1
  O  O507  1  0.42615606  0.01962932  0.92377544  1
  O  O508  1  0.42666055  0.35286067  0.17678574  1
  O  O509  1  0.42697676  0.35471731  0.42665742  1
  O  O510  1  0.42769527  0.35378596  0.67607633  1
  O  O511  1  0.42608915  0.35324560  0.92379450  1
  O  O512  1  0.42631639  0.68773308  0.17669505  1
  O  O513  1  0.42876642  0.68665459  0.42742734  1
  O  O514  1  0.42691597  0.68721869  0.67460776  1
  O  O515  1  0.42679646  0.68511485  0.92555037  1
  O  O516  1  0.92604308  0.02109931  0.17474537  1
  O  O517  1  0.92696444  0.01786137  0.42508223  1
  O  O518  1  0.92719256  0.01791197  0.67601489  1
  O  O519  1  0.92618248  0.01909667  0.92483834  1
  O  O520  1  0.92850380  0.35367382  0.17723030  1
  O  O521  1  0.92780645  0.35377857  0.42397180  1
  O  O522  1  0.92651263  0.35288246  0.67411750  1
  O  O523  1  0.92630605  0.35256460  0.92693441  1
  O  O524  1  0.92707231  0.68759659  0.17459327  1
  O  O525  1  0.92606030  0.68594227  0.42469915  1
  O  O526  1  0.92815593  0.68581055  0.67666553  1
  O  O527  1  0.92800159  0.68665117  0.92659818  1
  O  O528  1  0.17668811  0.01848377  0.19913910  1
  O  O529  1  0.17719227  0.02027285  0.44898887  1
  O  O530  1  0.17760686  0.02060733  0.69956551  1
  O  O531  1  0.17578970  0.02202667  0.94933135  1
  O  O532  1  0.17744176  0.35172208  0.19982604  1
  O  O533  1  0.17716359  0.35278526  0.44836509  1
  O  O534  1  0.17710544  0.35161701  0.69903034  1
  O  O535  1  0.17656831  0.35468573  0.94966855  1
  O  O536  1  0.17673185  0.68630918  0.20075659  1
  O  O537  1  0.17707479  0.68636090  0.44800380  1
  O  O538  1  0.17739665  0.68450254  0.69872835  1
  O  O539  1  0.17681255  0.68826191  0.94976737  1
  O  O540  1  0.67666267  0.02099055  0.19978000  1
  O  O541  1  0.67551688  0.01940097  0.44989413  1
  O  O542  1  0.67670064  0.01865054  0.69943718  1
  O  O543  1  0.67630277  0.02155955  0.95002895  1
  O  O544  1  0.67838741  0.35315714  0.19779710  1
  O  O545  1  0.67690395  0.35239273  0.44935719  1
  O  O546  1  0.67738804  0.35352470  0.69971050  1
  O  O547  1  0.67585662  0.35365545  0.95093944  1
  O  O548  1  0.67663122  0.68538136  0.20002650  1
  O  O549  1  0.67769905  0.68748243  0.45076689  1
  O  O550  1  0.67857962  0.68587450  0.69722322  1
  O  O551  1  0.67635801  0.68603806  0.94949758  1
  O  O552  1  0.32250997  0.31527423  0.05112278  1
  O  O553  1  0.32273420  0.31300956  0.30217901  1
  O  O554  1  0.32251036  0.31385953  0.55171467  1
  O  O555  1  0.32294865  0.31221487  0.79971639  1
  O  O556  1  0.32340218  0.64742191  0.04942641  1
  O  O557  1  0.32336763  0.64636165  0.30228725  1
  O  O558  1  0.32272296  0.64793321  0.55039676  1
  O  O559  1  0.32373087  0.64489593  0.79978464  1
  O  O560  1  0.32246372  0.98233015  0.05078084  1
  O  O561  1  0.32255232  0.98038384  0.30200585  1
  O  O562  1  0.32374416  0.98021837  0.54953778  1
  O  O563  1  0.32292940  0.97897120  0.79988611  1
  O  O564  1  0.82163907  0.31383285  0.05172216  1
  O  O565  1  0.82297886  0.31506351  0.29996503  1
  O  O566  1  0.82488413  0.31331034  0.54995684  1
  O  O567  1  0.82340636  0.31216719  0.80090080  1
  O  O568  1  0.82220996  0.64738658  0.05202615  1
  O  O569  1  0.82431350  0.64646603  0.29948016  1
  O  O570  1  0.82192147  0.64695786  0.55166429  1
  O  O571  1  0.82374451  0.64680871  0.79927959  1
  O  O572  1  0.82398665  0.98079312  0.04964526  1
  O  O573  1  0.82300652  0.97901638  0.30059885  1
  O  O574  1  0.82192510  0.98047368  0.55120491  1
  O  O575  1  0.82362559  0.97949549  0.79905981  1
  O  O576  1  0.42509658  0.14696965  0.17504103  1
  O  O577  1  0.42619047  0.14734160  0.42543399  1
  O  O578  1  0.42812673  0.14687807  0.67692954  1
  O  O579  1  0.42623749  0.14647556  0.92338881  1
  O  O580  1  0.42656071  0.48011453  0.17608605  1
  O  O581  1  0.42695672  0.48169527  0.42633923  1
  O  O582  1  0.42752100  0.48123774  0.67677926  1
  O  O583  1  0.42576238  0.47993429  0.92414494  1
  O  O584  1  0.42632364  0.81476025  0.17617720  1
  O  O585  1  0.42764375  0.81398492  0.42719505  1
  O  O586  1  0.42667440  0.81414953  0.67567173  1
  O  O587  1  0.42665802  0.81227913  0.92527510  1
  O  O588  1  0.92674972  0.14834423  0.17599481  1
  O  O589  1  0.92690286  0.14502128  0.42507970  1
  O  O590  1  0.92736994  0.14504456  0.67454923  1
  O  O591  1  0.92589002  0.14596015  0.92412782  1
  O  O592  1  0.92848333  0.48108763  0.17575136  1
  O  O593  1  0.92716884  0.48079461  0.42520454  1
  O  O594  1  0.92578919  0.47976092  0.67503179  1
  O  O595  1  0.92644414  0.47984041  0.92601044  1
  O  O596  1  0.92679983  0.81454915  0.17519978  1
  O  O597  1  0.92587890  0.81277020  0.42546858  1
  O  O598  1  0.92904130  0.81330650  0.67684790  1
  O  O599  1  0.92803887  0.81382319  0.92571311  1
  O  O600  1  0.07268185  0.18809336  0.07518621  1
  O  O601  1  0.07199381  0.18570150  0.32302042  1
  O  O602  1  0.07431793  0.18576044  0.57421695  1
  O  O603  1  0.07409940  0.18686867  0.82596138  1
  O  O604  1  0.07379193  0.52140590  0.07463738  1
  O  O605  1  0.07369985  0.51852170  0.32351462  1
  O  O606  1  0.07345566  0.51841424  0.57416589  1
  O  O607  1  0.07291028  0.52097698  0.82545516  1
  O  O608  1  0.07374580  0.85235187  0.07347172  1
  O  O609  1  0.07260891  0.85129722  0.32443291  1
  O  O610  1  0.07350120  0.85366294  0.57460793  1
  O  O611  1  0.07222553  0.85250848  0.82240322  1
  O  O612  1  0.57311544  0.18708250  0.07542891  1
  O  O613  1  0.57297294  0.18829494  0.32490607  1
  O  O614  1  0.57352144  0.18693955  0.57609158  1
  O  O615  1  0.57148000  0.18607120  0.82267371  1
  O  O616  1  0.57256589  0.52109684  0.07502250  1
  O  O617  1  0.57417755  0.52077070  0.32583565  1
  O  O618  1  0.57254085  0.52000195  0.57360242  1
  O  O619  1  0.57332622  0.51874641  0.82424662  1
  O  O620  1  0.57424705  0.85334994  0.07468767  1
  O  O621  1  0.57295599  0.85166588  0.32436487  1
  O  O622  1  0.57282051  0.85226596  0.57491243  1
  O  O623  1  0.57224794  0.85200288  0.82316378  1
  O  O624  1  0.32321479  0.18811748  0.05067299  1
  O  O625  1  0.32112740  0.18581057  0.30177576  1
  O  O626  1  0.32256985  0.18659544  0.55118174  1
  O  O627  1  0.32254981  0.18528191  0.80078717  1
  O  O628  1  0.32456450  0.52052770  0.05021978  1
  O  O629  1  0.32194993  0.51885860  0.30244978  1
  O  O630  1  0.32318500  0.52093961  0.54939555  1
  O  O631  1  0.32227414  0.51774437  0.80006450  1
  O  O632  1  0.32313482  0.85519778  0.05072042  1
  O  O633  1  0.32131876  0.85302762  0.30167837  1
  O  O634  1  0.32355422  0.85345136  0.54880775  1
  O  O635  1  0.32248976  0.85170347  0.80093205  1
  O  O636  1  0.82256877  0.18653704  0.05219961  1
  O  O637  1  0.82275226  0.18797326  0.29991652  1
  O  O638  1  0.82447969  0.18648337  0.54872839  1
  O  O639  1  0.82304021  0.18482399  0.80127609  1
  O  O640  1  0.82271039  0.51987102  0.05200038  1
  O  O641  1  0.82390573  0.51982471  0.29924367  1
  O  O642  1  0.82266969  0.51936172  0.55137980  1
  O  O643  1  0.82410217  0.52015235  0.79972660  1
  O  O644  1  0.82414056  0.85379563  0.04965377  1
  O  O645  1  0.82295081  0.85171349  0.30107843  1
  O  O646  1  0.82295209  0.85313270  0.55183559  1
  O  O647  1  0.82321776  0.85276214  0.79909732  1
  O  O648  1  0.17631885  0.14545445  0.20041815  1
  O  O649  1  0.17805876  0.14757377  0.44765741  1
  O  O650  1  0.17673556  0.14769194  0.69846229  1
  O  O651  1  0.17705044  0.14920893  0.94964155  1
  O  O652  1  0.17759219  0.47874044  0.20075347  1
  O  O653  1  0.17887756  0.48014516  0.44834030  1
  O  O654  1  0.17642644  0.47865084  0.69876621  1
  O  O655  1  0.17695224  0.48174266  0.94926243  1
  O  O656  1  0.17634941  0.81306807  0.20124441  1
  O  O657  1  0.17857711  0.81375615  0.44846017  1
  O  O658  1  0.17694573  0.81163845  0.69882930  1
  O  O659  1  0.17736997  0.81553654  0.94857642  1
  O  O660  1  0.67648126  0.14836333  0.19958949  1
  O  O661  1  0.67558668  0.14626151  0.45096712  1
  O  O662  1  0.67713526  0.14582443  0.69919696  1
  O  O663  1  0.67658078  0.14867753  0.94871956  1
  O  O664  1  0.67765357  0.48042996  0.19918648  1
  O  O665  1  0.67754212  0.47946686  0.44920640  1
  O  O666  1  0.67674539  0.48075511  0.69891562  1
  O  O667  1  0.67656526  0.48043321  0.95073821  1
  O  O668  1  0.67678122  0.81253582  0.19973426  1
  O  O669  1  0.67759868  0.81452939  0.44997452  1
  O  O670  1  0.67753888  0.81319942  0.69785216  1
  O  O671  1  0.67614782  0.81287800  0.95045093  1
