# generated using pymatgen
data_Na2MnFe(PO4)2
_symmetry_space_group_name_H-M   'P 1'
_cell_length_a   22.34350411
_cell_length_b   20.09270741
_cell_length_c   19.45034069
_cell_angle_alpha   89.98616083
_cell_angle_beta   90.00107962
_cell_angle_gamma   89.99064843
_symmetry_Int_Tables_number   1
_chemical_formula_structural   Na2MnFe(PO4)2
_chemical_formula_sum   'Na96 Mn48 Fe48 P96 O384'
_cell_volume   8732.06457081
_cell_formula_units_Z   48
loop_
 _symmetry_equiv_pos_site_id
 _symmetry_equiv_pos_as_xyz
  1  'x, y, z'
loop_
 _atom_site_type_symbol
 _atom_site_label
 _atom_site_symmetry_multiplicity
 _atom_site_fract_x
 _atom_site_fract_y
 _atom_site_fract_z
 _atom_site_occupancy
  Na  Na0  1  0.14044298  0.25055093  0.24337243  1
  Na  Na1  1  0.14036719  0.25018671  0.49470091  1
  Na  Na2  1  0.14040740  0.25126905  0.74315408  1
  Na  Na3  1  0.14056036  0.25050027  0.99454597  1
  Na  Na4  1  0.14087116  0.58540111  0.24369108  1
  Na  Na5  1  0.14118934  0.58378743  0.49387397  1
  Na  Na6  1  0.14135224  0.58384687  0.74308761  1
  Na  Na7  1  0.14068919  0.58468214  0.99434204  1
  Na  Na8  1  0.14074788  0.91736349  0.24353309  1
  Na  Na9  1  0.13980766  0.91642849  0.49419449  1
  Na  Na10  1  0.14030093  0.91684047  0.74363147  1
  Na  Na11  1  0.14050940  0.91756281  0.99453328  1
  Na  Na12  1  0.63982487  0.24931575  0.24357170  1
  Na  Na13  1  0.63988979  0.24931753  0.49411242  1
  Na  Na14  1  0.64010131  0.24695816  0.74349244  1
  Na  Na15  1  0.63982849  0.24827081  0.99330274  1
  Na  Na16  1  0.64067201  0.58492033  0.24367582  1
  Na  Na17  1  0.64061809  0.58324744  0.49389162  1
  Na  Na18  1  0.64042170  0.58179244  0.74331847  1
  Na  Na19  1  0.64047162  0.58451806  0.99350688  1
  Na  Na20  1  0.63990404  0.91670884  0.24118660  1
  Na  Na21  1  0.63969878  0.91643086  0.49282199  1
  Na  Na22  1  0.63986242  0.91432004  0.74402254  1
  Na  Na23  1  0.63996141  0.91670189  0.99354840  1
  Na  Na24  1  0.35953568  0.08207909  0.00792275  1
  Na  Na25  1  0.36036356  0.08342473  0.25718115  1
  Na  Na26  1  0.35997294  0.08336685  0.50720143  1
  Na  Na27  1  0.35958945  0.08309115  0.75605544  1
  Na  Na28  1  0.36005969  0.41574133  0.00673539  1
  Na  Na29  1  0.35930933  0.41697679  0.25533849  1
  Na  Na30  1  0.35882004  0.41656344  0.50742196  1
  Na  Na31  1  0.35999420  0.41695018  0.75555890  1
  Na  Na32  1  0.36017157  0.75091558  0.00734478  1
  Na  Na33  1  0.36043800  0.75127521  0.25619440  1
  Na  Na34  1  0.36037635  0.74999324  0.50734243  1
  Na  Na35  1  0.36019200  0.75019615  0.75595330  1
  Na  Na36  1  0.85925397  0.08228105  0.00618210  1
  Na  Na37  1  0.85946917  0.08458614  0.25489656  1
  Na  Na38  1  0.85937231  0.08335411  0.50640778  1
  Na  Na39  1  0.85894111  0.08078949  0.75682427  1
  Na  Na40  1  0.85927760  0.41631602  0.00628027  1
  Na  Na41  1  0.85903440  0.41754166  0.25586116  1
  Na  Na42  1  0.85917021  0.41658371  0.50598887  1
  Na  Na43  1  0.85950213  0.41437611  0.75611651  1
  Na  Na44  1  0.85973403  0.75103162  0.00742457  1
  Na  Na45  1  0.86015289  0.75092303  0.25562291  1
  Na  Na46  1  0.85972546  0.75061458  0.50545935  1
  Na  Na47  1  0.85934872  0.74982962  0.75574985  1
  Na  Na48  1  0.11031124  0.08520167  0.11879379  1
  Na  Na49  1  0.10933288  0.08246885  0.36905854  1
  Na  Na50  1  0.10914243  0.08264079  0.61920414  1
  Na  Na51  1  0.10974679  0.08397583  0.86975477  1
  Na  Na52  1  0.10941513  0.41858741  0.11879066  1
  Na  Na53  1  0.11000146  0.41665210  0.36860962  1
  Na  Na54  1  0.11012975  0.41591735  0.61836031  1
  Na  Na55  1  0.10966181  0.41654908  0.86936244  1
  Na  Na56  1  0.11007466  0.75230248  0.11897719  1
  Na  Na57  1  0.11020546  0.75150672  0.36921542  1
  Na  Na58  1  0.11029228  0.75119621  0.61822187  1
  Na  Na59  1  0.11017385  0.75101240  0.86895746  1
  Na  Na60  1  0.60968903  0.08298425  0.11754039  1
  Na  Na61  1  0.60885285  0.08215214  0.36850139  1
  Na  Na62  1  0.60916973  0.08208464  0.61861919  1
  Na  Na63  1  0.60952439  0.08064789  0.86891892  1
  Na  Na64  1  0.60911008  0.41677768  0.11853309  1
  Na  Na65  1  0.60941765  0.41573662  0.36903635  1
  Na  Na66  1  0.60970615  0.41612096  0.61807263  1
  Na  Na67  1  0.60905052  0.41434912  0.86839573  1
  Na  Na68  1  0.60996385  0.75148184  0.11731942  1
  Na  Na69  1  0.61001669  0.75047255  0.36829843  1
  Na  Na70  1  0.60951234  0.75065071  0.61782164  1
  Na  Na71  1  0.60986690  0.74904102  0.86911436  1
  Na  Na72  1  0.39056081  0.24903793  0.13216357  1
  Na  Na73  1  0.38996442  0.24854435  0.38195995  1
  Na  Na74  1  0.38982552  0.24993920  0.63183921  1
  Na  Na75  1  0.39048767  0.24823172  0.88072524  1
  Na  Na76  1  0.39081857  0.58464086  0.13074608  1
  Na  Na77  1  0.39071767  0.58434449  0.38186265  1
  Na  Na78  1  0.39046344  0.58469367  0.63189182  1
  Na  Na79  1  0.39107704  0.58237707  0.88105666  1
  Na  Na80  1  0.39025818  0.91752154  0.13248056  1
  Na  Na81  1  0.39101313  0.91619420  0.38154838  1
  Na  Na82  1  0.39060035  0.91675107  0.63113730  1
  Na  Na83  1  0.39016156  0.91458045  0.88236246  1
  Na  Na84  1  0.89002329  0.25065625  0.13048056  1
  Na  Na85  1  0.88996576  0.24927368  0.38090012  1
  Na  Na86  1  0.88998002  0.24928974  0.63169514  1
  Na  Na87  1  0.89017551  0.24902050  0.88113860  1
  Na  Na88  1  0.89060709  0.58574153  0.13128471  1
  Na  Na89  1  0.89053422  0.58563529  0.38066859  1
  Na  Na90  1  0.89039022  0.58300287  0.63111825  1
  Na  Na91  1  0.89089488  0.58275971  0.88112874  1
  Na  Na92  1  0.89001650  0.91771570  0.13138301  1
  Na  Na93  1  0.89025847  0.91655156  0.38030452  1
  Na  Na94  1  0.88991840  0.91669969  0.63099785  1
  Na  Na95  1  0.88964075  0.91644536  0.88178860  1
  Mn  Mn96  1  0.00068167  0.66807741  0.50042763  1
  Mn  Mn97  1  0.25001317  -0.00025124  0.62550307  1
  Mn  Mn98  1  0.24984910  -0.00039982  0.37600074  1
  Mn  Mn99  1  0.74965237  0.00040539  0.37368270  1
  Mn  Mn100  1  0.25021879  0.50039550  0.87430719  1
  Mn  Mn101  1  0.00074010  0.49885206  0.75122484  1
  Mn  Mn102  1  0.25046448  0.33355769  0.87511177  1
  Mn  Mn103  1  0.25061382  0.50002143  0.37525054  1
  Mn  Mn104  1  -0.00065028  0.83441755  0.75029750  1
  Mn  Mn105  1  0.74974233  0.16546246  0.62497353  1
  Mn  Mn106  1  0.24967757  0.33381963  0.12506861  1
  Mn  Mn107  1  0.49899318  0.33217108  0.25003190  1
  Mn  Mn108  1  0.25010288  0.16674733  0.87527667  1
  Mn  Mn109  1  0.25110876  0.66797996  0.37488965  1
  Mn  Mn110  1  0.00002105  0.00079410  0.25013799  1
  Mn  Mn111  1  0.00001539  0.16514438  0.50092009  1
  Mn  Mn112  1  0.75008741  0.83306602  0.37395027  1
  Mn  Mn113  1  0.74952572  0.50117291  0.12591681  1
  Mn  Mn114  1  0.49918200  0.33213861  0.49976047  1
  Mn  Mn115  1  0.50054359  0.66845447  0.25026017  1
  Mn  Mn116  1  0.49964684  0.50069095  0.49956407  1
  Mn  Mn117  1  0.74877146  0.33256167  0.12491884  1
  Mn  Mn118  1  -0.00026325  0.50183021  0.24902212  1
  Mn  Mn119  1  0.50012052  0.50051861  0.24955295  1
  Mn  Mn120  1  0.49958186  0.16544557  0.00014952  1
  Mn  Mn121  1  0.24925180  0.16746768  0.37581801  1
  Mn  Mn122  1  -0.00027441  0.33270607  0.49939595  1
  Mn  Mn123  1  0.00009652  0.83415854  0.00010358  1
  Mn  Mn124  1  0.49994068  -0.00124319  0.74972697  1
  Mn  Mn125  1  0.24980851  -0.00035632  0.87593869  1
  Mn  Mn126  1  0.75012520  0.49898234  0.62438575  1
  Mn  Mn127  1  -0.00001871  0.50030717  0.49969569  1
  Mn  Mn128  1  0.50057305  0.66672991  0.75034849  1
  Mn  Mn129  1  0.00012825  0.16754427  -0.00087545  1
  Mn  Mn130  1  0.50010049  0.49937334  -0.00001781  1
  Mn  Mn131  1  -0.00001323  0.50086359  -0.00000903  1
  Mn  Mn132  1  0.74984855  0.83262272  0.62460746  1
  Mn  Mn133  1  0.74988321  0.49931817  0.87458048  1
  Mn  Mn134  1  0.74992207  0.50055863  0.37520726  1
  Mn  Mn135  1  -0.00042090  0.16603905  0.75045751  1
  Mn  Mn136  1  0.25039192  0.66773575  0.12487808  1
  Mn  Mn137  1  0.74924751  0.33125699  0.87568788  1
  Mn  Mn138  1  0.74918136  0.16751262  0.37556173  1
  Mn  Mn139  1  0.00046331  0.66687721  0.74960451  1
  Mn  Mn140  1  0.50025306  0.33208447  0.74926734  1
  Mn  Mn141  1  -0.00070709  0.33332971  0.24976831  1
  Mn  Mn142  1  0.75087227  0.66722497  0.87446320  1
  Mn  Mn143  1  0.25123954  0.66794733  0.87464592  1
  Fe  Fe144  1  0.49977478  0.16547285  0.50003493  1
  Fe  Fe145  1  0.25018482  0.00000031  0.12587536  1
  Fe  Fe146  1  0.24996683  0.33362284  0.37526535  1
  Fe  Fe147  1  0.74990995  0.66727810  0.37428019  1
  Fe  Fe148  1  0.25008067  0.33333138  0.62498814  1
  Fe  Fe149  1  0.25010123  0.83352525  0.87492004  1
  Fe  Fe150  1  0.75011706  0.16627799  0.12447748  1
  Fe  Fe151  1  0.25080687  0.16695130  0.12584107  1
  Fe  Fe152  1  -0.00005377  0.33382848  0.00022325  1
  Fe  Fe153  1  -0.00073808  -0.00057325  0.49935933  1
  Fe  Fe154  1  -0.00012302  -0.00030104  0.74993807  1
  Fe  Fe155  1  0.49983255  0.83261599  0.75002046  1
  Fe  Fe156  1  0.74964201  0.83322367  0.87534487  1
  Fe  Fe157  1  0.50043085  0.49955235  0.75013485  1
  Fe  Fe158  1  -0.00003070  0.00077334  0.00063902  1
  Fe  Fe159  1  0.49982783  0.33214216  -0.00045010  1
  Fe  Fe160  1  0.74964319  -0.00130834  0.87545059  1
  Fe  Fe161  1  0.25001797  0.66739841  0.62498724  1
  Fe  Fe162  1  0.74933265  -0.00131571  0.62561663  1
  Fe  Fe163  1  0.50010171  0.83409920  0.24984209  1
  Fe  Fe164  1  0.50020713  -0.00033129  0.25024322  1
  Fe  Fe165  1  0.25018142  0.83409464  0.12568588  1
  Fe  Fe166  1  0.75032117  0.66770685  0.12429491  1
  Fe  Fe167  1  0.74979955  0.33210857  0.62532104  1
  Fe  Fe168  1  0.75020775  0.83373972  0.12459215  1
  Fe  Fe169  1  0.74970283  0.33342701  0.37469406  1
  Fe  Fe170  1  0.49991865  0.83313400  0.00013664  1
  Fe  Fe171  1  -0.00034107  0.83416260  0.49970510  1
  Fe  Fe172  1  0.49958677  0.16517383  0.75019280  1
  Fe  Fe173  1  0.75003659  0.66608366  0.62488848  1
  Fe  Fe174  1  0.50049033  0.83390267  0.49944067  1
  Fe  Fe175  1  0.00010341  0.16694623  0.24957176  1
  Fe  Fe176  1  0.50059574  0.66668867  -0.00029363  1
  Fe  Fe177  1  0.25028507  0.50066498  0.12529950  1
  Fe  Fe178  1  0.74973902  0.16474976  0.87428885  1
  Fe  Fe179  1  0.50069502  0.66749841  0.50053988  1
  Fe  Fe180  1  0.74950970  0.00029582  0.12346923  1
  Fe  Fe181  1  0.25028879  0.83373645  0.37545663  1
  Fe  Fe182  1  0.49916150  -0.00082391  0.00037476  1
  Fe  Fe183  1  0.50057183  0.16557812  0.25006169  1
  Fe  Fe184  1  0.00032911  0.66779544  0.00030848  1
  Fe  Fe185  1  0.00068399  0.83427159  0.24998222  1
  Fe  Fe186  1  0.24954395  0.16696666  0.62527544  1
  Fe  Fe187  1  -0.00017182  0.33292036  0.75004589  1
  Fe  Fe188  1  0.25048637  0.50000324  0.62440619  1
  Fe  Fe189  1  0.49993690  -0.00043027  0.49956195  1
  Fe  Fe190  1  0.00053050  0.66844123  0.25057715  1
  Fe  Fe191  1  0.25067435  0.83338739  0.62527356  1
  P  P192  1  0.04219205  0.25146712  0.10260478  1
  P  P193  1  0.04221146  0.24842845  0.35234165  1
  P  P194  1  0.04228414  0.24961056  0.60379553  1
  P  P195  1  0.04221909  0.25134811  0.85267741  1
  P  P196  1  0.04238015  0.58624896  0.10286679  1
  P  P197  1  0.04263757  0.58550902  0.35228504  1
  P  P198  1  0.04330325  0.58331301  0.60316187  1
  P  P199  1  0.04357451  0.58390113  0.85370160  1
  P  P200  1  0.04202527  0.91862865  0.10307293  1
  P  P201  1  0.04239626  0.91597398  0.35295135  1
  P  P202  1  0.04110574  0.91732526  0.60177015  1
  P  P203  1  0.04225727  0.91859765  0.85303238  1
  P  P204  1  0.54193158  0.25015503  0.10254240  1
  P  P205  1  0.54167304  0.24732957  0.35284957  1
  P  P206  1  0.54155798  0.24770227  0.60253911  1
  P  P207  1  0.54197252  0.24731308  0.85245256  1
  P  P208  1  0.54251561  0.58497576  0.10220653  1
  P  P209  1  0.54276452  0.58426629  0.35343248  1
  P  P210  1  0.54229742  0.58458142  0.60279312  1
  P  P211  1  0.54264578  0.58154235  0.85269596  1
  P  P212  1  0.54126877  0.91676252  0.10209435  1
  P  P213  1  0.54186662  0.91646678  0.35176933  1
  P  P214  1  0.54129459  0.91668354  0.60142342  1
  P  P215  1  0.54150402  0.91403883  0.85313098  1
  P  P216  1  0.45891553  0.08258498  0.14852876  1
  P  P217  1  0.45837399  0.08249691  0.39784581  1
  P  P218  1  0.45769892  0.08380171  0.64695074  1
  P  P219  1  0.45719013  0.08077974  0.89763277  1
  P  P220  1  0.45722598  0.41635620  0.14631076  1
  P  P221  1  0.45654413  0.41618413  0.39688107  1
  P  P222  1  0.45806575  0.41777568  0.64754824  1
  P  P223  1  0.45785985  0.41454392  0.89705397  1
  P  P224  1  0.45834280  0.75253926  0.14685866  1
  P  P225  1  0.45908646  0.75057637  0.39847589  1
  P  P226  1  0.45853200  0.75128803  0.64685357  1
  P  P227  1  0.45868604  0.74947148  0.89828273  1
  P  P228  1  0.95802773  0.08510595  0.14693260  1
  P  P229  1  0.95728967  0.08213478  0.39710907  1
  P  P230  1  0.95708762  0.08121680  0.64750947  1
  P  P231  1  0.95773404  0.08184921  0.89739535  1
  P  P232  1  0.95685322  0.41733027  0.14618100  1
  P  P233  1  0.95686147  0.41698289  0.39636347  1
  P  P234  1  0.95785751  0.41537281  0.64769512  1
  P  P235  1  0.95762443  0.41506273  0.89749526  1
  P  P236  1  0.95912722  0.75104117  0.14824002  1
  P  P237  1  0.95823277  0.75200399  0.39681418  1
  P  P238  1  0.95726135  0.75113399  0.64650793  1
  P  P239  1  0.95755830  0.74947393  0.89786361  1
  P  P240  1  0.20907717  0.08370276  0.22719623  1
  P  P241  1  0.20719703  0.08367952  0.47922163  1
  P  P242  1  0.20759463  0.08440659  0.72772231  1
  P  P243  1  0.20776927  0.08356141  0.97976980  1
  P  P244  1  0.20739005  0.41849243  0.22775637  1
  P  P245  1  0.20803207  0.41547746  0.47829357  1
  P  P246  1  0.20891538  0.41693777  0.72611973  1
  P  P247  1  0.20759535  0.41738460  0.97851718  1
  P  P248  1  0.20825146  0.75208608  0.22794949  1
  P  P249  1  0.20852262  0.75156436  0.47844135  1
  P  P250  1  0.20864964  0.75082476  0.72683214  1
  P  P251  1  0.20838192  0.75216722  0.97787151  1
  P  P252  1  0.70824949  0.08340915  0.22560529  1
  P  P253  1  0.70682197  0.08285261  0.47824285  1
  P  P254  1  0.70747116  0.08050021  0.72819681  1
  P  P255  1  0.70847199  0.08267094  0.97682753  1
  P  P256  1  0.70657775  0.41669541  0.22867141  1
  P  P257  1  0.70766109  0.41489204  0.47773987  1
  P  P258  1  0.70737103  0.41418478  0.72725507  1
  P  P259  1  0.70660707  0.41632014  0.97819574  1
  P  P260  1  0.70844248  0.75026709  0.22606494  1
  P  P261  1  0.70795410  0.74859322  0.47721869  1
  P  P262  1  0.70756388  0.74837432  0.72737494  1
  P  P263  1  0.70832591  0.75145424  0.97807784  1
  P  P264  1  0.29283370  0.24887039  0.02318912  1
  P  P265  1  0.29184204  0.25121861  0.27272188  1
  P  P266  1  0.29135746  0.25025328  0.52345311  1
  P  P267  1  0.29251668  0.25019621  0.77097641  1
  P  P268  1  0.29268792  0.58268020  0.02268774  1
  P  P269  1  0.29336088  0.58382053  0.27166425  1
  P  P270  1  0.29177294  0.58404656  0.52359584  1
  P  P271  1  0.29307317  0.58405149  0.77060919  1
  P  P272  1  0.29141133  0.91664889  0.02396036  1
  P  P273  1  0.29220032  0.91592253  0.27249150  1
  P  P274  1  0.29230259  0.91527586  0.52266506  1
  P  P275  1  0.29229968  0.91542890  0.77264420  1
  P  P276  1  0.79175127  0.24771969  0.02190007  1
  P  P277  1  0.79168702  0.25089052  0.27206194  1
  P  P278  1  0.79203509  0.25103586  0.52246125  1
  P  P279  1  0.79194837  0.24738896  0.77231421  1
  P  P280  1  0.79234647  0.58473974  0.02250652  1
  P  P281  1  0.79226042  0.58558898  0.27205719  1
  P  P282  1  0.79228680  0.58465084  0.52196499  1
  P  P283  1  0.79307708  0.58278453  0.77110588  1
  P  P284  1  0.79109520  0.91666760  0.02251565  1
  P  P285  1  0.79228109  0.91681679  0.27006391  1
  P  P286  1  0.79166543  0.91768760  0.52237035  1
  P  P287  1  0.79092115  0.91565727  0.77337127  1
  O  O288  1  0.03674188  0.25038364  0.18250683  1
  O  O289  1  0.03711051  0.24833811  0.43233202  1
  O  O290  1  0.03698361  0.25014023  0.68373105  1
  O  O291  1  0.03705377  0.25164789  0.93264785  1
  O  O292  1  0.03697935  0.58659187  0.18281056  1
  O  O293  1  0.03756004  0.58499815  0.43226503  1
  O  O294  1  0.03845869  0.58301004  0.68313657  1
  O  O295  1  0.03819564  0.58444640  0.93366309  1
  O  O296  1  0.03675994  0.91774711  0.18297112  1
  O  O297  1  0.03688956  0.91618071  0.43281809  1
  O  O298  1  0.03600333  0.91774545  0.68174495  1
  O  O299  1  0.03715755  0.91850141  0.93298394  1
  O  O300  1  0.53681890  0.24957615  0.18247612  1
  O  O301  1  0.53627504  0.24693705  0.43277193  1
  O  O302  1  0.53649638  0.24757623  0.68248481  1
  O  O303  1  0.53665613  0.24806964  0.93238112  1
  O  O304  1  0.53727714  0.58517443  0.18214591  1
  O  O305  1  0.53728657  0.58479440  0.43335676  1
  O  O306  1  0.53711377  0.58375259  0.68274504  1
  O  O307  1  0.53744589  0.58198173  0.93257693  1
  O  O308  1  0.53659312  0.91696670  0.18200361  1
  O  O309  1  0.53698584  0.91675352  0.43163170  1
  O  O310  1  0.53663061  0.91604875  0.68134789  1
  O  O311  1  0.53594875  0.91406354  0.93292856  1
  O  O312  1  0.46336184  0.08202937  0.06856588  1
  O  O313  1  0.46355623  0.08263560  0.31796392  1
  O  O314  1  0.46308495  0.08381829  0.56711071  1
  O  O315  1  0.46227466  0.08106618  0.81774273  1
  O  O316  1  0.46266612  0.41573552  0.06636643  1
  O  O317  1  0.46165474  0.41633109  0.31691987  1
  O  O318  1  0.46279752  0.41764794  0.56758828  1
  O  O319  1  0.46343002  0.41501874  0.81713945  1
  O  O320  1  0.46360308  0.75248570  0.06703451  1
  O  O321  1  0.46380818  0.75135930  0.31850357  1
  O  O322  1  0.46401606  0.75096142  0.56703983  1
  O  O323  1  0.46362371  0.74948783  0.81830678  1
  O  O324  1  0.96321446  0.08459876  0.06702356  1
  O  O325  1  0.96267608  0.08318345  0.31720038  1
  O  O326  1  0.96225606  0.08094001  0.56753737  1
  O  O327  1  0.96301442  0.08151094  0.81747695  1
  O  O328  1  0.96230444  0.41693833  0.06624358  1
  O  O329  1  0.96180566  0.41726317  0.31638225  1
  O  O330  1  0.96272551  0.41583502  0.56767963  1
  O  O331  1  0.96303574  0.41477159  0.81751869  1
  O  O332  1  0.96412073  0.75046092  0.06824533  1
  O  O333  1  0.96384497  0.75167949  0.31694013  1
  O  O334  1  0.96250137  0.75194326  0.56657804  1
  O  O335  1  0.96243075  0.74999756  0.81789481  1
  O  O336  1  0.21332571  0.08385818  0.05965535  1
  O  O337  1  0.21341606  0.08329588  0.30724081  1
  O  O338  1  0.21250148  0.08409085  0.55912951  1
  O  O339  1  0.21265836  0.08392674  0.80771491  1
  O  O340  1  0.21262452  0.41778560  0.05846470  1
  O  O341  1  0.21272696  0.41773504  0.30768040  1
  O  O342  1  0.21358383  0.41563560  0.55816848  1
  O  O343  1  0.21369834  0.41716499  0.80611135  1
  O  O344  1  0.21359771  0.75216214  0.05780920  1
  O  O345  1  0.21343650  0.75201616  0.30787224  1
  O  O346  1  0.21376406  0.75098742  0.55834727  1
  O  O347  1  0.21384934  0.75121195  0.80680829  1
  O  O348  1  0.71345676  0.08293427  0.05670472  1
  O  O349  1  0.71273818  0.08326868  0.30557360  1
  O  O350  1  0.71175270  0.08221843  0.55816456  1
  O  O351  1  0.71300713  0.08072507  0.80805324  1
  O  O352  1  0.71154573  0.41665960  0.05817811  1
  O  O353  1  0.71206616  0.41639006  0.30862209  1
  O  O354  1  0.71321503  0.41465339  0.55769332  1
  O  O355  1  0.71241685  0.41443526  0.80723644  1
  O  O356  1  0.71386788  0.75133332  0.05794731  1
  O  O357  1  0.71331827  0.74995143  0.30608038  1
  O  O358  1  0.71308918  0.74843876  0.55714464  1
  O  O359  1  0.71288596  0.74943686  0.80727697  1
  O  O360  1  0.28657853  0.25040559  0.19278950  1
  O  O361  1  0.28614720  0.25067213  0.44347838  1
  O  O362  1  0.28698313  0.25013704  0.69106830  1
  O  O363  1  0.28790675  0.24915553  0.94319367  1
  O  O364  1  0.28793493  0.58353795  0.19175143  1
  O  O365  1  0.28723492  0.58378541  0.44357696  1
  O  O366  1  0.28760811  0.58437045  0.69073136  1
  O  O367  1  0.28761939  0.58319827  0.94270097  1
  O  O368  1  0.28672838  0.91630942  0.19261697  1
  O  O369  1  0.28701023  0.91522303  0.44275333  1
  O  O370  1  0.28710999  0.91548851  0.69270757  1
  O  O371  1  0.28687156  0.91674137  0.94399481  1
  O  O372  1  0.78634971  0.24984926  0.19212905  1
  O  O373  1  0.78680888  0.25142466  0.44250259  1
  O  O374  1  0.78660060  0.24825539  0.69238960  1
  O  O375  1  0.78658530  0.24715868  0.94196243  1
  O  O376  1  0.78692765  0.58577266  0.19211763  1
  O  O377  1  0.78674017  0.58465371  0.44202099  1
  O  O378  1  0.78764671  0.58305489  0.69116733  1
  O  O379  1  0.78737474  0.58431400  0.94252425  1
  O  O380  1  0.78715264  0.91657011  0.19016276  1
  O  O381  1  0.78663274  0.91750822  0.44243363  1
  O  O382  1  0.78606705  0.91626654  0.69342090  1
  O  O383  1  0.78606052  0.91651389  0.94263173  1
  O  O384  1  0.22844285  0.24851776  0.05850993  1
  O  O385  1  0.22756004  0.25185943  0.30843900  1
  O  O386  1  0.22724965  0.25047478  0.55961304  1
  O  O387  1  0.22830952  0.25042228  0.80678639  1
  O  O388  1  0.22840743  0.58261942  0.05833647  1
  O  O389  1  0.22911813  0.58418669  0.30719857  1
  O  O390  1  0.22754993  0.58440666  0.55911572  1
  O  O391  1  0.22891980  0.58463221  0.80652804  1
  O  O392  1  0.22722289  0.91641792  0.05973037  1
  O  O393  1  0.22804315  0.91529614  0.30865858  1
  O  O394  1  0.22809657  0.91523872  0.55852005  1
  O  O395  1  0.22799565  0.91542617  0.80835941  1
  O  O396  1  0.72742477  0.24739995  0.05749780  1
  O  O397  1  0.72743725  0.25173129  0.30795721  1
  O  O398  1  0.72775908  0.25062799  0.55820019  1
  O  O399  1  0.72768589  0.24659765  0.80812143  1
  O  O400  1  0.72797604  0.58523532  0.05788089  1
  O  O401  1  0.72802803  0.58537599  0.30789730  1
  O  O402  1  0.72811518  0.58437577  0.55800594  1
  O  O403  1  0.72876418  0.58316160  0.80655486  1
  O  O404  1  0.72705059  0.91604297  0.05875477  1
  O  O405  1  0.72799463  0.91661348  0.30562359  1
  O  O406  1  0.72734687  0.91743879  0.55794440  1
  O  O407  1  0.72675032  0.91497938  0.80928429  1
  O  O408  1  0.27336872  0.08403611  0.19177855  1
  O  O409  1  0.27145356  0.08367596  0.44374463  1
  O  O410  1  0.27188416  0.08439557  0.69223754  1
  O  O411  1  0.27190882  0.08321614  0.94381878  1
  O  O412  1  0.27164155  0.41869200  0.19190045  1
  O  O413  1  0.27218972  0.41510141  0.44212435  1
  O  O414  1  0.27310130  0.41611049  0.69038924  1
  O  O415  1  0.27199423  0.41705933  0.94330940  1
  O  O416  1  0.27252136  0.75202657  0.19227696  1
  O  O417  1  0.27275978  0.75217383  0.44245328  1
  O  O418  1  0.27283671  0.75045366  0.69082021  1
  O  O419  1  0.27270383  0.75245752  0.94217742  1
  O  O420  1  0.77252367  0.08367411  0.19003509  1
  O  O421  1  0.77118940  0.08344857  0.44301952  1
  O  O422  1  0.77156454  0.08041287  0.69187217  1
  O  O423  1  0.77250011  0.08292061  0.94054331  1
  O  O424  1  0.77081130  0.41671665  0.19308065  1
  O  O425  1  0.77177575  0.41507773  0.44159274  1
  O  O426  1  0.77174863  0.41422854  0.69185533  1
  O  O427  1  0.77108154  0.41578764  0.94324391  1
  O  O428  1  0.77272276  0.75045514  0.19030938  1
  O  O429  1  0.77220378  0.74875557  0.44139111  1
  O  O430  1  0.77181373  0.74800809  0.69149818  1
  O  O431  1  0.77247392  0.75200650  0.94197739  1
  O  O432  1  0.02226330  0.08532663  0.18278686  1
  O  O433  1  0.02155823  0.08117229  0.43292207  1
  O  O434  1  0.02139465  0.08146316  0.68321114  1
  O  O435  1  0.02197909  0.08194633  0.93318708  1
  O  O436  1  0.02110915  0.41744327  0.18169495  1
  O  O437  1  0.02139610  0.41674027  0.43118028  1
  O  O438  1  0.02228032  0.41481593  0.68298908  1
  O  O439  1  0.02186490  0.41553392  0.93333176  1
  O  O440  1  0.02326340  0.75127227  0.18429224  1
  O  O441  1  0.02231183  0.75276113  0.43315395  1
  O  O442  1  0.02162438  0.75128599  0.68178867  1
  O  O443  1  0.02201536  0.74943494  0.93310767  1
  O  O444  1  0.52317403  0.08310916  0.18416696  1
  O  O445  1  0.52240985  0.08254173  0.43421385  1
  O  O446  1  0.52180183  0.08359894  0.68325359  1
  O  O447  1  0.52149560  0.08061136  0.93329625  1
  O  O448  1  0.52142921  0.41593245  0.18195337  1
  O  O449  1  0.52098707  0.41616486  0.43187841  1
  O  O450  1  0.52240741  0.41746447  0.68295458  1
  O  O451  1  0.52200283  0.41431957  0.93313818  1
  O  O452  1  0.52254045  0.75283463  0.18291123  1
  O  O453  1  0.52329701  0.74974537  0.43423650  1
  O  O454  1  0.52260692  0.75139695  0.68316616  1
  O  O455  1  0.52286181  0.74968460  0.93421524  1
  O  O456  1  0.47765231  0.25038340  0.06684526  1
  O  O457  1  0.47746363  0.24686433  0.31696935  1
  O  O458  1  0.47727559  0.24765201  0.56689071  1
  O  O459  1  0.47781199  0.24747506  0.81649488  1
  O  O460  1  0.47829088  0.58487195  0.06648315  1
  O  O461  1  0.47850143  0.58442918  0.31791407  1
  O  O462  1  0.47805055  0.58539238  0.56700792  1
  O  O463  1  0.47843084  0.58153522  0.81683929  1
  O  O464  1  0.47705157  0.91663610  0.06616418  1
  O  O465  1  0.47767488  0.91607729  0.31573218  1
  O  O466  1  0.47717796  0.91710010  0.56549194  1
  O  O467  1  0.47748856  0.91422621  0.81664183  1
  O  O468  1  0.97801893  0.25193949  0.06656409  1
  O  O469  1  0.97782367  0.24807884  0.31693941  1
  O  O470  1  0.97800776  0.24931275  0.56833052  1
  O  O471  1  0.97789942  0.25104053  0.81701765  1
  O  O472  1  0.97817518  0.58608920  0.06692843  1
  O  O473  1  0.97827385  0.58597677  0.31686402  1
  O  O474  1  0.97880603  0.58390537  0.56828197  1
  O  O475  1  0.97919547  0.58331613  0.81843868  1
  O  O476  1  0.97784573  0.91870891  0.06708763  1
  O  O477  1  0.97827871  0.91594317  0.31678427  1
  O  O478  1  0.97698285  0.91710285  0.56553623  1
  O  O479  1  0.97780035  0.91881559  0.81764787  1
  O  O480  1  0.07301795  0.31526402  0.07485169  1
  O  O481  1  0.07291976  0.31234758  0.32474356  1
  O  O482  1  0.07353138  0.31268684  0.57496458  1
  O  O483  1  0.07305846  0.31461361  0.82371980  1
  O  O484  1  0.07335975  0.64955168  0.07412673  1
  O  O485  1  0.07356501  0.64916983  0.32434143  1
  O  O486  1  0.07450030  0.64682529  0.57529689  1
  O  O487  1  0.07455665  0.64719237  0.82495899  1
  O  O488  1  0.07250713  0.98254157  0.07518125  1
  O  O489  1  0.07371686  0.97950541  0.32486911  1
  O  O490  1  0.07203617  0.98078318  0.57326822  1
  O  O491  1  0.07339763  0.98164938  0.82408903  1
  O  O492  1  0.57256638  0.31375065  0.07397903  1
  O  O493  1  0.57229492  0.31141206  0.32541610  1
  O  O494  1  0.57226990  0.31171841  0.57482742  1
  O  O495  1  0.57365455  0.31041193  0.82418308  1
  O  O496  1  0.57304513  0.64863415  0.07362585  1
  O  O497  1  0.57428705  0.64731544  0.32485697  1
  O  O498  1  0.57322740  0.64820512  0.57470440  1
  O  O499  1  0.57401666  0.64499829  0.82480248  1
  O  O500  1  0.57183470  0.98049842  0.07319630  1
  O  O501  1  0.57223320  0.98025545  0.32276543  1
  O  O502  1  0.57211616  0.98042113  0.57333197  1
  O  O503  1  0.57281431  0.97760883  0.82527971  1
  O  O504  1  0.42843670  0.01900322  0.17757197  1
  O  O505  1  0.42764232  0.01871206  0.42628793  1
  O  O506  1  0.42643229  0.02020488  0.67486670  1
  O  O507  1  0.42651186  0.01723424  0.92637151  1
  O  O508  1  0.42539606  0.35346054  0.17481412  1
  O  O509  1  0.42573219  0.35251474  0.42494623  1
  O  O510  1  0.42685655  0.35412470  0.67506384  1
  O  O511  1  0.42724818  0.35075503  0.92530092  1
  O  O512  1  0.42739468  0.68879524  0.17489627  1
  O  O513  1  0.42783376  0.68705930  0.42643410  1
  O  O514  1  0.42724779  0.68795273  0.67528987  1
  O  O515  1  0.42843998  0.68531357  0.92641919  1
  O  O516  1  0.92678132  0.02168963  0.17498696  1
  O  O517  1  0.92624617  0.01848269  0.42494001  1
  O  O518  1  0.92624270  0.01797120  0.67646632  1
  O  O519  1  0.92672282  0.01877410  0.92657228  1
  O  O520  1  0.92546287  0.35412246  0.17452377  1
  O  O521  1  0.92588880  0.35337690  0.42430458  1
  O  O522  1  0.92691909  0.35184384  0.67596361  1
  O  O523  1  0.92684258  0.35166810  0.92620894  1
  O  O524  1  0.92812434  0.68768437  0.17694411  1
  O  O525  1  0.92745656  0.68824823  0.42502556  1
  O  O526  1  0.92660154  0.68721315  0.67418209  1
  O  O527  1  0.92692820  0.68591448  0.92627524  1
  O  O528  1  0.17876307  0.01975758  0.19874919  1
  O  O529  1  0.17639222  0.01991977  0.45127311  1
  O  O530  1  0.17646621  0.02075222  0.70003729  1
  O  O531  1  0.17649442  0.02015510  0.95147311  1
  O  O532  1  0.17605988  0.35509297  0.19968471  1
  O  O533  1  0.17703880  0.35215721  0.44944638  1
  O  O534  1  0.17735994  0.35363597  0.69833223  1
  O  O535  1  0.17673963  0.35362609  0.95047274  1
  O  O536  1  0.17727821  0.68839926  0.20000346  1
  O  O537  1  0.17769434  0.68793173  0.44995905  1
  O  O538  1  0.17773865  0.68709662  0.69886488  1
  O  O539  1  0.17772226  0.68830060  0.94992763  1
  O  O540  1  0.67797715  0.01954517  0.19690349  1
  O  O541  1  0.67582736  0.01971206  0.44921189  1
  O  O542  1  0.67658039  0.01697818  0.69965871  1
  O  O543  1  0.67800944  0.01861971  0.94857906  1
  O  O544  1  0.67513665  0.35355111  0.20024406  1
  O  O545  1  0.67661201  0.35163946  0.44911352  1
  O  O546  1  0.67674594  0.35045266  0.69912355  1
  O  O547  1  0.67545454  0.35274039  0.95044842  1
  O  O548  1  0.67757714  0.68677743  0.19756271  1
  O  O549  1  0.67705932  0.68539806  0.44828440  1
  O  O550  1  0.67686172  0.68467106  0.69937256  1
  O  O551  1  0.67741846  0.68780396  0.94993212  1
  O  O552  1  0.32360947  0.31260286  0.05102120  1
  O  O553  1  0.32260802  0.31488903  0.30084484  1
  O  O554  1  0.32280053  0.31346602  0.55175765  1
  O  O555  1  0.32383193  0.31351750  0.79941430  1
  O  O556  1  0.32366233  0.64646484  0.05035774  1
  O  O557  1  0.32455405  0.64744212  0.29958851  1
  O  O558  1  0.32287506  0.64755668  0.55153507  1
  O  O559  1  0.32469487  0.64710636  0.79934449  1
  O  O560  1  0.32158379  0.98065538  0.05273243  1
  O  O561  1  0.32299223  0.97969617  0.30067139  1
  O  O562  1  0.32317333  0.97919383  0.55019712  1
  O  O563  1  0.32323689  0.97916284  0.80051542  1
  O  O564  1  0.82228836  0.31179022  0.04949839  1
  O  O565  1  0.82274018  0.31443811  0.29998973  1
  O  O566  1  0.82288435  0.31424095  0.55151938  1
  O  O567  1  0.82281069  0.31091010  0.80071706  1
  O  O568  1  0.82321146  0.64837100  0.05061319  1
  O  O569  1  0.82307875  0.64900990  0.30068009  1
  O  O570  1  0.82316286  0.64801498  0.55051235  1
  O  O571  1  0.82476526  0.64580249  0.79948141  1
  O  O572  1  0.82122163  0.98081936  0.05093785  1
  O  O573  1  0.82333644  0.98034558  0.29828297  1
  O  O574  1  0.82220336  0.98117743  0.55108600  1
  O  O575  1  0.82133207  0.97925155  0.80247204  1
  O  O576  1  0.42797338  0.14626827  0.17655276  1
  O  O577  1  0.42715157  0.14584699  0.42644560  1
  O  O578  1  0.42692682  0.14715940  0.67600342  1
  O  O579  1  0.42606031  0.14428937  0.92572667  1
  O  O580  1  0.42678675  0.48050240  0.17386588  1
  O  O581  1  0.42545024  0.47960887  0.42508421  1
  O  O582  1  0.42774512  0.48149973  0.67617679  1
  O  O583  1  0.42648718  0.47800528  0.92490325  1
  O  O584  1  0.42723606  0.81565924  0.17600058  1
  O  O585  1  0.42881440  0.81441923  0.42726982  1
  O  O586  1  0.42769435  0.81482746  0.67546146  1
  O  O587  1  0.42733484  0.81268484  0.92662316  1
  O  O588  1  0.92741530  0.14878720  0.17536436  1
  O  O589  1  0.92638674  0.14556365  0.42574167  1
  O  O590  1  0.92613628  0.14508003  0.67507706  1
  O  O591  1  0.92686804  0.14589444  0.92462218  1
  O  O592  1  0.92589420  0.48110601  0.17391503  1
  O  O593  1  0.92605593  0.48055443  0.42468102  1
  O  O594  1  0.92717055  0.47911797  0.67583454  1
  O  O595  1  0.92638025  0.47885851  0.92485587  1
  O  O596  1  0.92841920  0.81507951  0.17580177  1
  O  O597  1  0.92672503  0.81516979  0.42529413  1
  O  O598  1  0.92570626  0.81410344  0.67529510  1
  O  O599  1  0.92668908  0.81314650  0.92601061  1
  O  O600  1  0.07340576  0.18814671  0.07416752  1
  O  O601  1  0.07313841  0.18502837  0.32376675  1
  O  O602  1  0.07328399  0.18581383  0.57618010  1
  O  O603  1  0.07319453  0.18737836  0.82534135  1
  O  O604  1  0.07336246  0.52236187  0.07544887  1
  O  O605  1  0.07347682  0.52184906  0.32418037  1
  O  O606  1  0.07387763  0.51971397  0.57468703  1
  O  O607  1  0.07474759  0.52020431  0.82600397  1
  O  O608  1  0.07341306  0.85537968  0.07475452  1
  O  O609  1  0.07337173  0.85267781  0.32408724  1
  O  O610  1  0.07185487  0.85343121  0.57394519  1
  O  O611  1  0.07284661  0.85462260  0.82501245  1
  O  O612  1  0.57304727  0.18662798  0.07440268  1
  O  O613  1  0.57308453  0.18432988  0.32391378  1
  O  O614  1  0.57268793  0.18453260  0.57381468  1
  O  O615  1  0.57221198  0.18323679  0.82446334  1
  O  O616  1  0.57377213  0.52132249  0.07489833  1
  O  O617  1  0.57353756  0.52037929  0.32570757  1
  O  O618  1  0.57325879  0.52102235  0.57453807  1
  O  O619  1  0.57312126  0.51779607  0.82413173  1
  O  O620  1  0.57238497  0.85340745  0.07349941  1
  O  O621  1  0.57315238  0.85312950  0.32332121  1
  O  O622  1  0.57207307  0.85316749  0.57255908  1
  O  O623  1  0.57236634  0.85069032  0.82412003  1
  O  O624  1  0.32373882  0.18541020  0.05169394  1
  O  O625  1  0.32285085  0.18770356  0.30108742  1
  O  O626  1  0.32170523  0.18607899  0.55130400  1
  O  O627  1  0.32365089  0.18676211  0.79938174  1
  O  O628  1  0.32341644  0.51911456  0.05096508  1
  O  O629  1  0.32456847  0.52061337  0.30024181  1
  O  O630  1  0.32206256  0.51997477  0.55186316  1
  O  O631  1  0.32387487  0.52036028  0.79884827  1
  O  O632  1  0.32276147  0.85338353  0.05228850  1
  O  O633  1  0.32349103  0.85270749  0.30109402  1
  O  O634  1  0.32345067  0.85215353  0.55151016  1
  O  O635  1  0.32313381  0.85203526  0.80137773  1
  O  O636  1  0.82305026  0.18469649  0.05089435  1
  O  O637  1  0.82243750  0.18724974  0.30057351  1
  O  O638  1  0.82311029  0.18714529  0.54992294  1
  O  O639  1  0.82293913  0.18371660  0.80016518  1
  O  O640  1  0.82313319  0.52105335  0.05058870  1
  O  O641  1  0.82334344  0.52183777  0.29973865  1
  O  O642  1  0.82343968  0.52082925  0.54952877  1
  O  O643  1  0.82364744  0.51885246  0.79909748  1
  O  O644  1  0.82287686  0.85368439  0.05108186  1
  O  O645  1  0.82350286  0.85358681  0.29895254  1
  O  O646  1  0.82277686  0.85399555  0.55008881  1
  O  O647  1  0.82216318  0.85204013  0.80118390  1
  O  O648  1  0.17808504  0.14733661  0.19929189  1
  O  O649  1  0.17570022  0.14675106  0.45069377  1
  O  O650  1  0.17694159  0.14804309  0.69940156  1
  O  O651  1  0.17650923  0.14682770  0.95110405  1
  O  O652  1  0.17687473  0.48230843  0.19950645  1
  O  O653  1  0.17701629  0.47921704  0.45030577  1
  O  O654  1  0.17897441  0.48112092  0.69768683  1
  O  O655  1  0.17645472  0.48060280  0.94984341  1
  O  O656  1  0.17729294  0.81538011  0.19919739  1
  O  O657  1  0.17741388  0.81492457  0.44988970  1
  O  O658  1  0.17774356  0.81440317  0.69844421  1
  O  O659  1  0.17725234  0.81539904  0.94915401  1
  O  O660  1  0.67726658  0.14702629  0.19766198  1
  O  O661  1  0.67583541  0.14655664  0.45025309  1
  O  O662  1  0.67628325  0.14402738  0.70007589  1
  O  O663  1  0.67705303  0.14580679  0.94805325  1
  O  O664  1  0.67566591  0.48051551  0.20092539  1
  O  O665  1  0.67657648  0.47885606  0.45050571  1
  O  O666  1  0.67631213  0.47775902  0.69922689  1
  O  O667  1  0.67595562  0.47989118  0.94969273  1
  O  O668  1  0.67767480  0.81407274  0.19799918  1
  O  O669  1  0.67707918  0.81252487  0.44951046  1
  O  O670  1  0.67646361  0.81179985  0.69885165  1
  O  O671  1  0.67707484  0.81470883  0.94939869  1
