# generated using pymatgen
data_Na2MnFe(PO4)2
_symmetry_space_group_name_H-M   'P 1'
_cell_length_a   22.34559028
_cell_length_b   20.09839892
_cell_length_c   19.44855734
_cell_angle_alpha   90.00194806
_cell_angle_beta   90.02749907
_cell_angle_gamma   89.97459839
_symmetry_Int_Tables_number   1
_chemical_formula_structural   Na2MnFe(PO4)2
_chemical_formula_sum   'Na96 Mn48 Fe48 P96 O384'
_cell_volume   8734.55114806
_cell_formula_units_Z   48
loop_
 _symmetry_equiv_pos_site_id
 _symmetry_equiv_pos_as_xyz
  1  'x, y, z'
loop_
 _atom_site_type_symbol
 _atom_site_label
 _atom_site_symmetry_multiplicity
 _atom_site_fract_x
 _atom_site_fract_y
 _atom_site_fract_z
 _atom_site_occupancy
  Na  Na0  1  0.13981715  0.24995308  0.24428895  1
  Na  Na1  1  0.14048173  0.24952703  0.49299294  1
  Na  Na2  1  0.13975179  0.24974636  0.74462931  1
  Na  Na3  1  0.13957352  0.25030060  0.99382020  1
  Na  Na4  1  0.13942207  0.58378661  0.24394890  1
  Na  Na5  1  0.13971911  0.58443833  0.49257777  1
  Na  Na6  1  0.14034660  0.58394643  0.74346797  1
  Na  Na7  1  0.13976617  0.58440209  0.99485133  1
  Na  Na8  1  0.13994751  0.91623860  0.24441962  1
  Na  Na9  1  0.13975447  0.91698081  0.49280329  1
  Na  Na10  1  0.13906777  0.91591462  0.74247247  1
  Na  Na11  1  0.13945478  0.91638979  0.99344815  1
  Na  Na12  1  0.64075226  0.24961452  0.24354787  1
  Na  Na13  1  0.64118552  0.25075188  0.49214199  1
  Na  Na14  1  0.64082536  0.24982727  0.74423311  1
  Na  Na15  1  0.64009825  0.24930413  0.99443785  1
  Na  Na16  1  0.64067920  0.58279148  0.24343084  1
  Na  Na17  1  0.64081149  0.58482309  0.49319699  1
  Na  Na18  1  0.64070439  0.58326627  0.74383341  1
  Na  Na19  1  0.64085488  0.58243892  0.99319768  1
  Na  Na20  1  0.64104754  0.91711405  0.24457459  1
  Na  Na21  1  0.64095204  0.91762684  0.49355755  1
  Na  Na22  1  0.64032924  0.91546106  0.74314825  1
  Na  Na23  1  0.64059140  0.91585982  0.99376908  1
  Na  Na24  1  0.35982528  0.08363808  0.00530934  1
  Na  Na25  1  0.35884394  0.08326753  0.25679578  1
  Na  Na26  1  0.35919455  0.08268763  0.50513629  1
  Na  Na27  1  0.36000184  0.08264591  0.75545880  1
  Na  Na28  1  0.35992090  0.41788814  0.00639830  1
  Na  Na29  1  0.35982638  0.41570672  0.25620219  1
  Na  Na30  1  0.35989479  0.41663563  0.50570921  1
  Na  Na31  1  0.35995939  0.41733691  0.75590548  1
  Na  Na32  1  0.35992824  0.74945570  0.00531809  1
  Na  Na33  1  0.35991554  0.74956823  0.25647735  1
  Na  Na34  1  0.36012384  0.75061197  0.50640563  1
  Na  Na35  1  0.35960068  0.74952153  0.75441174  1
  Na  Na36  1  0.85954776  0.08299096  0.00868706  1
  Na  Na37  1  0.85906955  0.08272483  0.25663289  1
  Na  Na38  1  0.85987959  0.08318189  0.50634949  1
  Na  Na39  1  0.86010567  0.08227961  0.75781345  1
  Na  Na40  1  0.85947921  0.41506561  0.00758511  1
  Na  Na41  1  0.85979197  0.41549614  0.25813352  1
  Na  Na42  1  0.85994006  0.41820932  0.50529319  1
  Na  Na43  1  0.85954638  0.41748277  0.75633625  1
  Na  Na44  1  0.86008162  0.75068151  0.00666078  1
  Na  Na45  1  0.85961853  0.75059232  0.25691588  1
  Na  Na46  1  0.86013616  0.75180230  0.50700016  1
  Na  Na47  1  0.86015379  0.75034954  0.75676481  1
  Na  Na48  1  0.10883894  0.08205504  0.11955286  1
  Na  Na49  1  0.10951921  0.08361506  0.36818010  1
  Na  Na50  1  0.10883754  0.08268837  0.61873474  1
  Na  Na51  1  0.10822778  0.08218734  0.86937540  1
  Na  Na52  1  0.10881027  0.41666980  0.11943027  1
  Na  Na53  1  0.10891028  0.41793069  0.36795900  1
  Na  Na54  1  0.10908083  0.41749017  0.61857892  1
  Na  Na55  1  0.10910665  0.41663509  0.86910339  1
  Na  Na56  1  0.10889237  0.75001332  0.11889698  1
  Na  Na57  1  0.10935576  0.75065802  0.36907909  1
  Na  Na58  1  0.10930631  0.75084611  0.61667282  1
  Na  Na59  1  0.10932024  0.75109539  0.86865652  1
  Na  Na60  1  0.61000780  0.08372232  0.11839726  1
  Na  Na61  1  0.61043286  0.08398451  0.36795271  1
  Na  Na62  1  0.61010198  0.08252422  0.61810461  1
  Na  Na63  1  0.60960724  0.08291234  0.86911363  1
  Na  Na64  1  0.60983576  0.41468748  0.11881707  1
  Na  Na65  1  0.61039504  0.41722882  0.36787008  1
  Na  Na66  1  0.60993448  0.41837300  0.61831958  1
  Na  Na67  1  0.61006004  0.41571821  0.86982983  1
  Na  Na68  1  0.61010012  0.74842709  0.11833383  1
  Na  Na69  1  0.61005250  0.75058932  0.36936512  1
  Na  Na70  1  0.61009858  0.75041669  0.61886080  1
  Na  Na71  1  0.61039620  0.74954296  0.86761472  1
  Na  Na72  1  0.39020941  0.24972416  0.13045680  1
  Na  Na73  1  0.38991645  0.25077619  0.38122782  1
  Na  Na74  1  0.39108694  0.25099799  0.62969616  1
  Na  Na75  1  0.39119420  0.25074234  0.88125858  1
  Na  Na76  1  0.39072080  0.58196749  0.13061767  1
  Na  Na77  1  0.39103201  0.58402565  0.38125207  1
  Na  Na78  1  0.39069803  0.58481458  0.63102219  1
  Na  Na79  1  0.39033317  0.58175638  0.88089058  1
  Na  Na80  1  0.39060001  0.91577888  0.13127015  1
  Na  Na81  1  0.39003269  0.91565839  0.38212586  1
  Na  Na82  1  0.39041706  0.91595225  0.63017361  1
  Na  Na83  1  0.39079123  0.91697337  0.87912030  1
  Na  Na84  1  0.88989363  0.24930308  0.13299558  1
  Na  Na85  1  0.88976373  0.25064601  0.38197528  1
  Na  Na86  1  0.89052817  0.24957858  0.63144320  1
  Na  Na87  1  0.89023966  0.24861300  0.88256489  1
  Na  Na88  1  0.89069987  0.58320830  0.13194119  1
  Na  Na89  1  0.89070513  0.58403736  0.38186089  1
  Na  Na90  1  0.89047975  0.58541386  0.63063378  1
  Na  Na91  1  0.89042708  0.58473744  0.88170058  1
  Na  Na92  1  0.88970649  0.91569187  0.13192309  1
  Na  Na93  1  0.88980920  0.91661424  0.38254150  1
  Na  Na94  1  0.89035116  0.91782036  0.63173811  1
  Na  Na95  1  0.89058168  0.91612532  0.88247985  1
  Mn  Mn96  1  0.25045353  0.83265376  0.12475997  1
  Mn  Mn97  1  0.50055464  0.66636395  0.74996226  1
  Mn  Mn98  1  -0.00081613  0.16601363  0.25073032  1
  Mn  Mn99  1  0.75030295  0.33377428  0.62408985  1
  Mn  Mn100  1  0.24979360  0.33336946  0.62507083  1
  Mn  Mn101  1  0.75081995  0.16602280  0.62485241  1
  Mn  Mn102  1  0.50047291  0.16776844  0.49928162  1
  Mn  Mn103  1  0.74972908  0.16673466  0.87613588  1
  Mn  Mn104  1  0.50036751  0.00010402  -0.00014901  1
  Mn  Mn105  1  0.25039375  0.33459638  0.87445826  1
  Mn  Mn106  1  -0.00088196  0.50043539  0.00058352  1
  Mn  Mn107  1  0.24979805  0.16667018  0.87470936  1
  Mn  Mn108  1  0.25046201  0.66744920  0.37477644  1
  Mn  Mn109  1  0.50040891  0.50081006  0.49911966  1
  Mn  Mn110  1  0.75047397  0.49959395  0.87496064  1
  Mn  Mn111  1  0.75045080  0.83368798  0.62544105  1
  Mn  Mn112  1  0.75002601  0.50150303  0.62566467  1
  Mn  Mn113  1  -0.00103177  0.33211396  0.00016967  1
  Mn  Mn114  1  -0.00021452  0.50083953  0.75006056  1
  Mn  Mn115  1  0.24970102  0.83274644  0.87430307  1
  Mn  Mn116  1  0.50022150  0.49939646  0.25026130  1
  Mn  Mn117  1  0.24964618  -0.00053698  0.87443802  1
  Mn  Mn118  1  0.50100812  0.16654242  0.74953556  1
  Mn  Mn119  1  0.75032251  0.66759347  0.37431475  1
  Mn  Mn120  1  0.75068643  0.49868674  0.12426445  1
  Mn  Mn121  1  0.24898650  0.50099250  0.12584398  1
  Mn  Mn122  1  0.50085155  0.33439996  0.75051718  1
  Mn  Mn123  1  0.25056944  0.49989034  0.37480484  1
  Mn  Mn124  1  0.24972546  0.33382920  0.12489344  1
  Mn  Mn125  1  0.24919853  0.16686688  0.12541643  1
  Mn  Mn126  1  0.00033996  0.33446194  0.50076011  1
  Mn  Mn127  1  0.49998650  0.66478314  -0.00132578  1
  Mn  Mn128  1  0.75078507  0.66716473  0.12490133  1
  Mn  Mn129  1  0.00030821  0.16622453  0.50049079  1
  Mn  Mn130  1  0.49987962  -0.00023863  0.24973915  1
  Mn  Mn131  1  -0.00059106  0.83349088  0.25022749  1
  Mn  Mn132  1  0.74949059  -0.00110874  0.87628895  1
  Mn  Mn133  1  0.50056839  0.83180753  0.25024397  1
  Mn  Mn134  1  0.24986563  -0.00037498  0.12539758  1
  Mn  Mn135  1  0.49939226  0.16769347  0.24913556  1
  Mn  Mn136  1  0.25040511  0.16627401  0.62420388  1
  Mn  Mn137  1  0.50000131  -0.00039513  0.49939454  1
  Mn  Mn138  1  -0.00094579  0.33247304  0.74980041  1
  Mn  Mn139  1  0.24915568  0.50059213  0.62446716  1
  Mn  Mn140  1  0.24924491  0.66619963  0.87452721  1
  Mn  Mn141  1  0.00084937  0.66825402  0.74992406  1
  Mn  Mn142  1  0.50031215  0.83255377  -0.00044027  1
  Mn  Mn143  1  0.24894926  -0.00096529  0.62435663  1
  Fe  Fe144  1  0.24999848  0.83308153  0.62380408  1
  Fe  Fe145  1  0.49947184  0.16651572  -0.00061836  1
  Fe  Fe146  1  0.50078679  0.49870691  0.00068593  1
  Fe  Fe147  1  0.74933353  0.83349150  0.12533835  1
  Fe  Fe148  1  0.24969770  0.16648217  0.37480738  1
  Fe  Fe149  1  0.50022284  0.49985775  0.74992853  1
  Fe  Fe150  1  0.74988325  -0.00031794  0.12611055  1
  Fe  Fe151  1  -0.00044487  0.16536665  0.00129919  1
  Fe  Fe152  1  0.75031437  0.00053621  0.37466155  1
  Fe  Fe153  1  -0.00032110  0.50088250  0.25006989  1
  Fe  Fe154  1  0.50010255  0.83337227  0.74922200  1
  Fe  Fe155  1  0.75017701  0.16645871  0.37478366  1
  Fe  Fe156  1  -0.00045436  -0.00026473  0.75066023  1
  Fe  Fe157  1  -0.00022802  0.83345177  0.00038853  1
  Fe  Fe158  1  0.50090246  0.83299648  0.50018339  1
  Fe  Fe159  1  -0.00028415  0.50106485  0.49912961  1
  Fe  Fe160  1  0.50077110  0.33435138  0.49996452  1
  Fe  Fe161  1  -0.00011361  0.16549987  0.75120121  1
  Fe  Fe162  1  0.49999769  0.33310209  -0.00042603  1
  Fe  Fe163  1  0.75054801  0.50046737  0.37476552  1
  Fe  Fe164  1  -0.00021723  0.83428887  0.49962453  1
  Fe  Fe165  1  -0.00074139  0.66720384  0.25058797  1
  Fe  Fe166  1  0.00000728  0.66707301  0.00051311  1
  Fe  Fe167  1  -0.00043850  -0.00082588  -0.00013101  1
  Fe  Fe168  1  0.75040147  0.83417355  0.37560345  1
  Fe  Fe169  1  0.50035285  -0.00018067  0.74920551  1
  Fe  Fe170  1  -0.00046032  0.83415928  0.74981355  1
  Fe  Fe171  1  0.75009313  0.33329898  0.37465519  1
  Fe  Fe172  1  0.75024174  0.66747545  0.62487444  1
  Fe  Fe173  1  0.75005470  0.33235506  0.12644942  1
  Fe  Fe174  1  0.25000521  0.66680769  0.62434223  1
  Fe  Fe175  1  0.75053166  0.33262892  0.87570974  1
  Fe  Fe176  1  -0.00046739  -0.00063695  0.24997252  1
  Fe  Fe177  1  0.50034439  0.66616154  0.25006636  1
  Fe  Fe178  1  -0.00020211  0.33354457  0.25038691  1
  Fe  Fe179  1  0.50009133  0.33315629  0.24909242  1
  Fe  Fe180  1  0.24909217  0.33310225  0.37530903  1
  Fe  Fe181  1  0.24986097  0.50079995  0.87508477  1
  Fe  Fe182  1  -0.00062283  0.00025756  0.50084330  1
  Fe  Fe183  1  0.74992692  0.00035501  0.62457875  1
  Fe  Fe184  1  0.74974801  0.16652378  0.12605755  1
  Fe  Fe185  1  0.75039862  0.66690280  0.87513250  1
  Fe  Fe186  1  0.24940832  0.83291778  0.37465861  1
  Fe  Fe187  1  0.50068349  0.66719969  0.50058877  1
  Fe  Fe188  1  0.24987052  -0.00073776  0.37497946  1
  Fe  Fe189  1  0.75041546  0.83308629  0.87541846  1
  Fe  Fe190  1  0.25013093  0.66683027  0.12495437  1
  Fe  Fe191  1  -0.00031008  0.66741078  0.49989325  1
  P  P192  1  0.04138286  0.24838497  0.10341887  1
  P  P193  1  0.04143214  0.25125473  0.35266109  1
  P  P194  1  0.04287045  0.24949323  0.60388206  1
  P  P195  1  0.04137202  0.24783008  0.85333589  1
  P  P196  1  0.04145124  0.58480389  0.10362792  1
  P  P197  1  0.04094701  0.58417990  0.35218922  1
  P  P198  1  0.04140255  0.58397148  0.60100278  1
  P  P199  1  0.04253700  0.58445990  0.85365104  1
  P  P200  1  0.04084625  0.91673036  0.10202470  1
  P  P201  1  0.04143385  0.91802821  0.35316789  1
  P  P202  1  0.04099193  0.91702827  0.60209006  1
  P  P203  1  0.04095544  0.91657683  0.85222310  1
  P  P204  1  0.54098903  0.24992077  0.10126822  1
  P  P205  1  0.54233036  0.25205443  0.35217073  1
  P  P206  1  0.54331212  0.25191555  0.60198768  1
  P  P207  1  0.54298243  0.24998930  0.85389909  1
  P  P208  1  0.54295728  0.58141202  0.10257372  1
  P  P209  1  0.54273928  0.58488412  0.35267965  1
  P  P210  1  0.54283687  0.58456495  0.60249272  1
  P  P211  1  0.54263426  0.58092867  0.85268379  1
  P  P212  1  0.54315892  0.91588591  0.10300630  1
  P  P213  1  0.54266180  0.91591989  0.35351541  1
  P  P214  1  0.54241032  0.91545932  0.60279527  1
  P  P215  1  0.54186459  0.91660652  0.85098364  1
  P  P216  1  0.45691419  0.08359426  0.14615778  1
  P  P217  1  0.45733441  0.08392526  0.39645587  1
  P  P218  1  0.45815824  0.08232376  0.64697145  1
  P  P219  1  0.45799500  0.08397501  0.89658635  1
  P  P220  1  0.45792266  0.41503051  0.14668554  1
  P  P221  1  0.45827186  0.41552368  0.39689826  1
  P  P222  1  0.45813062  0.41829633  0.64710649  1
  P  P223  1  0.45878422  0.41689423  0.89826995  1
  P  P224  1  0.45791042  0.74750112  0.14731003  1
  P  P225  1  0.45902133  0.74945406  0.39840426  1
  P  P226  1  0.45865425  0.75113851  0.64668147  1
  P  P227  1  0.45770525  0.74971867  0.89567744  1
  P  P228  1  0.95742335  0.08121227  0.14737122  1
  P  P229  1  0.95793915  0.08184651  0.39770609  1
  P  P230  1  0.95833514  0.08295240  0.64904682  1
  P  P231  1  0.95785033  0.08267872  0.89880756  1
  P  P232  1  0.95810722  0.41685886  0.14913206  1
  P  P233  1  0.95820129  0.41845638  0.39667244  1
  P  P234  1  0.95693574  0.41771198  0.64648592  1
  P  P235  1  0.95658777  0.41650546  0.89735341  1
  P  P236  1  0.95754148  0.74894234  0.14742141  1
  P  P237  1  0.95862918  0.75017412  0.39836934  1
  P  P238  1  0.95809243  0.75224528  0.64680214  1
  P  P239  1  0.95895102  0.75062896  0.89853811  1
  P  P240  1  0.20701567  0.08298689  0.22941265  1
  P  P241  1  0.20824619  0.08300365  0.47596843  1
  P  P242  1  0.20674433  0.08306086  0.72753005  1
  P  P243  1  0.20655974  0.08312366  0.97805574  1
  P  P244  1  0.20686887  0.41627309  0.22898931  1
  P  P245  1  0.20730640  0.41605304  0.47720189  1
  P  P246  1  0.20667023  0.41754287  0.72845716  1
  P  P247  1  0.20732660  0.41881213  0.97743759  1
  P  P248  1  0.20749182  0.74894407  0.22759398  1
  P  P249  1  0.20787690  0.75150070  0.47787036  1
  P  P250  1  0.20796919  0.74984413  0.72541920  1
  P  P251  1  0.20698811  0.74953852  0.97821359  1
  P  P252  1  0.70867211  0.08314945  0.22768953  1
  P  P253  1  0.70877865  0.08343505  0.47655368  1
  P  P254  1  0.70806039  0.08176671  0.72756840  1
  P  P255  1  0.70745576  0.08288361  0.97982669  1
  P  P256  1  0.70849101  0.41536453  0.22834092  1
  P  P257  1  0.70911367  0.41744855  0.47602799  1
  P  P258  1  0.70759893  0.41649641  0.72834525  1
  P  P259  1  0.70848711  0.41446553  0.97812630  1
  P  P260  1  0.70815146  0.75151009  0.22788352  1
  P  P261  1  0.70853163  0.75170109  0.47774947  1
  P  P262  1  0.70822176  0.74868744  0.72816514  1
  P  P263  1  0.70878941  0.75030655  0.97698483  1
  P  P264  1  0.29252438  0.25041329  0.02175652  1
  P  P265  1  0.29104350  0.24999938  0.27368285  1
  P  P266  1  0.29249939  0.25003030  0.52057933  1
  P  P267  1  0.29339034  0.25013072  0.77162044  1
  P  P268  1  0.29215822  0.58441371  0.02235763  1
  P  P269  1  0.29302309  0.58383044  0.27149490  1
  P  P270  1  0.29236153  0.58485662  0.52223063  1
  P  P271  1  0.29225256  0.58249379  0.77183415  1
  P  P272  1  0.29306001  0.91645442  0.02163942  1
  P  P273  1  0.29157148  0.91587633  0.27353426  1
  P  P274  1  0.29165439  0.91527654  0.52104705  1
  P  P275  1  0.29219829  0.91558514  0.77043030  1
  P  P276  1  0.79114630  0.24980639  0.02436104  1
  P  P277  1  0.79126872  0.24940491  0.27312007  1
  P  P278  1  0.79293919  0.24971487  0.52075772  1
  P  P279  1  0.79262348  0.25062133  0.77311417  1
  P  P280  1  0.79304906  0.58348129  0.02136792  1
  P  P281  1  0.79258288  0.58231957  0.27247258  1
  P  P282  1  0.79218169  0.58527358  0.52202154  1
  P  P283  1  0.79250587  0.58522210  0.77250843  1
  P  P284  1  0.79113929  0.91625196  0.02408710  1
  P  P285  1  0.79126801  0.91684189  0.27312584  1
  P  P286  1  0.79223797  0.91839106  0.52218044  1
  P  P287  1  0.79230338  0.91526468  0.77308398  1
  O  O288  1  0.03591187  0.24940957  0.18335021  1
  O  O289  1  0.03686019  0.25134683  0.43264270  1
  O  O290  1  0.03759190  0.24895483  0.68381224  1
  O  O291  1  0.03578534  0.24751113  0.93329352  1
  O  O292  1  0.03580773  0.58460739  0.18349134  1
  O  O293  1  0.03589620  0.58383075  0.43209665  1
  O  O294  1  0.03703602  0.58444157  0.68101828  1
  O  O295  1  0.03714653  0.58485326  0.93356127  1
  O  O296  1  0.03610346  0.91665343  0.18198861  1
  O  O297  1  0.03613189  0.91814062  0.43299904  1
  O  O298  1  0.03624403  0.91657002  0.68197511  1
  O  O299  1  0.03607034  0.91684397  0.93209457  1
  O  O300  1  0.53576479  0.25053414  0.18123053  1
  O  O301  1  0.53746711  0.25231611  0.43213921  1
  O  O302  1  0.53829566  0.25143271  0.68196812  1
  O  O303  1  0.53723939  0.24971261  0.93376317  1
  O  O304  1  0.53780167  0.58223143  0.18251532  1
  O  O305  1  0.53749924  0.58517244  0.43261956  1
  O  O306  1  0.53770962  0.58369896  0.68239563  1
  O  O307  1  0.53753607  0.58055757  0.93264783  1
  O  O308  1  0.53805473  0.91573173  0.18296416  1
  O  O309  1  0.53757541  0.91548887  0.43347274  1
  O  O310  1  0.53691772  0.91582860  0.68268964  1
  O  O311  1  0.53682380  0.91663470  0.93098850  1
  O  O312  1  0.46211046  0.08392302  0.06617962  1
  O  O313  1  0.46204067  0.08388702  0.31646983  1
  O  O314  1  0.46339853  0.08277168  0.56701508  1
  O  O315  1  0.46360607  0.08318728  0.81666128  1
  O  O316  1  0.46339888  0.41539120  0.06681682  1
  O  O317  1  0.46340750  0.41518867  0.31694753  1
  O  O318  1  0.46339409  0.41783625  0.56716356  1
  O  O319  1  0.46379955  0.41758241  0.81830570  1
  O  O320  1  0.46280323  0.74772080  0.06733491  1
  O  O321  1  0.46384933  0.74870944  0.31839134  1
  O  O322  1  0.46428510  0.75099687  0.56681761  1
  O  O323  1  0.46302652  0.75029872  0.81574982  1
  O  O324  1  0.96295291  0.08142644  0.06753112  1
  O  O325  1  0.96307413  0.08174147  0.31779960  1
  O  O326  1  0.96321815  0.08233736  0.56908655  1
  O  O327  1  0.96301960  0.08300830  0.81890364  1
  O  O328  1  0.96257081  0.41628041  0.06910531  1
  O  O329  1  0.96374604  0.41810354  0.31677724  1
  O  O330  1  0.96246941  0.41834815  0.56652400  1
  O  O331  1  0.96170874  0.41643422  0.81740990  1
  O  O332  1  0.96303431  0.74914145  0.06760830  1
  O  O333  1  0.96316578  0.74984771  0.31840213  1
  O  O334  1  0.96317983  0.75178236  0.56694318  1
  O  O335  1  0.96373078  0.75150083  0.81857130  1
  O  O336  1  0.21161868  0.08309643  0.05808576  1
  O  O337  1  0.21254374  0.08300050  0.30930839  1
  O  O338  1  0.21303041  0.08271068  0.55595224  1
  O  O339  1  0.21170275  0.08288057  0.80749418  1
  O  O340  1  0.21225411  0.41838845  0.05748655  1
  O  O341  1  0.21225529  0.41563070  0.30892671  1
  O  O342  1  0.21205315  0.41640062  0.55722401  1
  O  O343  1  0.21207990  0.41836296  0.80842473  1
  O  O344  1  0.21216173  0.74908052  0.05813831  1
  O  O345  1  0.21263323  0.74982193  0.30756451  1
  O  O346  1  0.21323138  0.75112730  0.55774914  1
  O  O347  1  0.21259594  0.74963475  0.80544913  1
  O  O348  1  0.71275360  0.08273385  0.05971324  1
  O  O349  1  0.71390183  0.08389525  0.30759074  1
  O  O350  1  0.71372419  0.08273957  0.55654672  1
  O  O351  1  0.71281169  0.08200914  0.80755755  1
  O  O352  1  0.71387989  0.41419087  0.05807886  1
  O  O353  1  0.71397087  0.41619470  0.30820640  1
  O  O354  1  0.71378339  0.41751276  0.55602216  1
  O  O355  1  0.71295929  0.41604609  0.80827361  1
  O  O356  1  0.71373653  0.75077814  0.05698182  1
  O  O357  1  0.71364862  0.75169692  0.30780316  1
  O  O358  1  0.71399584  0.75090760  0.55764194  1
  O  O359  1  0.71342656  0.74869813  0.80806285  1
  O  O360  1  0.28599164  0.25009652  0.19368127  1
  O  O361  1  0.28676900  0.25010377  0.44065819  1
  O  O362  1  0.28845943  0.25020534  0.69159224  1
  O  O363  1  0.28769273  0.25061203  0.94179401  1
  O  O364  1  0.28774189  0.58439208  0.19157756  1
  O  O365  1  0.28770551  0.58467067  0.44223959  1
  O  O366  1  0.28706225  0.58313873  0.69190096  1
  O  O367  1  0.28685704  0.58349975  0.94239270  1
  O  O368  1  0.28703155  0.91604591  0.19350187  1
  O  O369  1  0.28632947  0.91545500  0.44114228  1
  O  O370  1  0.28693892  0.91520278  0.69045018  1
  O  O371  1  0.28798383  0.91641737  0.94163585  1
  O  O372  1  0.78613239  0.24979571  0.19321031  1
  O  O373  1  0.78754284  0.24920925  0.44085474  1
  O  O374  1  0.78774536  0.25021829  0.69311723  1
  O  O375  1  0.78656340  0.24991984  0.94435393  1
  O  O376  1  0.78761259  0.58238165  0.19251749  1
  O  O377  1  0.78668823  0.58435273  0.44209518  1
  O  O378  1  0.78714548  0.58563508  0.69251512  1
  O  O379  1  0.78764512  0.58399441  0.94143677  1
  O  O380  1  0.78586004  0.91694812  0.19326883  1
  O  O381  1  0.78697854  0.91819666  0.44232429  1
  O  O382  1  0.78739316  0.91587141  0.69319128  1
  O  O383  1  0.78612576  0.91551659  0.94413428  1
  O  O384  1  0.22798084  0.25041401  0.05654313  1
  O  O385  1  0.22683500  0.24948886  0.30945601  1
  O  O386  1  0.22827702  0.24990943  0.55631831  1
  O  O387  1  0.22884650  0.25061530  0.80635176  1
  O  O388  1  0.22787723  0.58552357  0.05817091  1
  O  O389  1  0.22866736  0.58357664  0.30667209  1
  O  O390  1  0.22782867  0.58523757  0.55712669  1
  O  O391  1  0.22790844  0.58171530  0.80745953  1
  O  O392  1  0.22856762  0.91615964  0.05654230  1
  O  O393  1  0.22722564  0.91551237  0.30889041  1
  O  O394  1  0.22745511  0.91476664  0.55698710  1
  O  O395  1  0.22781809  0.91603366  0.80568523  1
  O  O396  1  0.72695215  0.25019326  0.06012476  1
  O  O397  1  0.72729085  0.24893094  0.30944037  1
  O  O398  1  0.72875728  0.24949882  0.55656598  1
  O  O399  1  0.72823014  0.25126704  0.80851298  1
  O  O400  1  0.72884248  0.58319812  0.05694019  1
  O  O401  1  0.72825756  0.58253630  0.30783854  1
  O  O402  1  0.72802537  0.58593486  0.55808543  1
  O  O403  1  0.72833042  0.58472567  0.80834794  1
  O  O404  1  0.72699533  0.91688120  0.06008887  1
  O  O405  1  0.72740736  0.91617632  0.30975482  1
  O  O406  1  0.72814055  0.91827864  0.55838245  1
  O  O407  1  0.72793360  0.91462792  0.80855942  1
  O  O408  1  0.27124043  0.08323894  0.19367679  1
  O  O409  1  0.27241940  0.08363854  0.44028084  1
  O  O410  1  0.27124186  0.08240309  0.69269011  1
  O  O411  1  0.27105908  0.08291332  0.94316397  1
  O  O412  1  0.27116839  0.41695299  0.19363823  1
  O  O413  1  0.27178393  0.41552607  0.44224171  1
  O  O414  1  0.27103207  0.41736929  0.69319267  1
  O  O415  1  0.27176178  0.41915265  0.94214664  1
  O  O416  1  0.27187617  0.74825302  0.19213026  1
  O  O417  1  0.27208039  0.75216394  0.44194109  1
  O  O418  1  0.27229132  0.74975825  0.68989037  1
  O  O419  1  0.27131968  0.74950942  0.94292278  1
  O  O420  1  0.77259747  0.08266965  0.19125581  1
  O  O421  1  0.77294063  0.08412198  0.44069090  1
  O  O422  1  0.77250335  0.08156815  0.69234327  1
  O  O423  1  0.77162261  0.08274532  0.94402525  1
  O  O424  1  0.77263368  0.41474948  0.19224722  1
  O  O425  1  0.77326213  0.41753372  0.44029256  1
  O  O426  1  0.77187621  0.41709974  0.69289182  1
  O  O427  1  0.77261695  0.41472697  0.94211441  1
  O  O428  1  0.77236179  0.75186795  0.19206262  1
  O  O429  1  0.77267392  0.75197734  0.44171921  1
  O  O430  1  0.77239362  0.74861089  0.69208870  1
  O  O431  1  0.77298342  0.75054093  0.94104174  1
  O  O432  1  0.02144962  0.08133389  0.18382272  1
  O  O433  1  0.02218168  0.08143605  0.43352448  1
  O  O434  1  0.02246489  0.08355341  0.68504477  1
  O  O435  1  0.02189971  0.08275732  0.93523868  1
  O  O436  1  0.02237326  0.41726518  0.18462691  1
  O  O437  1  0.02222254  0.41893167  0.43313499  1
  O  O438  1  0.02117737  0.41690032  0.68205360  1
  O  O439  1  0.02091500  0.41644615  0.93264490  1
  O  O440  1  0.02158876  0.74890295  0.18385153  1
  O  O441  1  0.02272893  0.75036187  0.43419162  1
  O  O442  1  0.02231248  0.75293341  0.68282005  1
  O  O443  1  0.02301773  0.75015836  0.93459401  1
  O  O444  1  0.52134039  0.08367187  0.18133519  1
  O  O445  1  0.52184912  0.08363220  0.43125750  1
  O  O446  1  0.52249727  0.08171492  0.68253733  1
  O  O447  1  0.52210582  0.08470745  0.93279073  1
  O  O448  1  0.52209818  0.41482910  0.18286372  1
  O  O449  1  0.52257017  0.41597711  0.43258692  1
  O  O450  1  0.52245115  0.41872113  0.68283292  1
  O  O451  1  0.52294505  0.41635963  0.93439012  1
  O  O452  1  0.52236727  0.74752326  0.18259807  1
  O  O453  1  0.52325688  0.74946821  0.43427695  1
  O  O454  1  0.52264700  0.75121959  0.68314245  1
  O  O455  1  0.52203518  0.74907589  0.93109381  1
  O  O456  1  0.47701052  0.24984437  0.06488413  1
  O  O457  1  0.47792595  0.25224643  0.31670968  1
  O  O458  1  0.47891194  0.25224451  0.56658076  1
  O  O459  1  0.47893700  0.25001594  0.81773014  1
  O  O460  1  0.47864991  0.58084900  0.06685002  1
  O  O461  1  0.47846710  0.58457227  0.31693446  1
  O  O462  1  0.47854915  0.58490270  0.56676039  1
  O  O463  1  0.47836816  0.58141316  0.81694408  1
  O  O464  1  0.47872366  0.91610544  0.06797995  1
  O  O465  1  0.47832930  0.91575488  0.31817414  1
  O  O466  1  0.47830476  0.91501824  0.56658079  1
  O  O467  1  0.47775761  0.91691556  0.81485562  1
  O  O468  1  0.97714136  0.24784370  0.06755380  1
  O  O469  1  0.97708224  0.25075268  0.31743395  1
  O  O470  1  0.97854012  0.24991196  0.56850463  1
  O  O471  1  0.97725224  0.24754852  0.81716340  1
  O  O472  1  0.97742228  0.58505385  0.06717426  1
  O  O473  1  0.97688073  0.58423590  0.31584397  1
  O  O474  1  0.97707645  0.58349706  0.56554564  1
  O  O475  1  0.97830209  0.58491250  0.81801324  1
  O  O476  1  0.97668696  0.91684531  0.06612784  1
  O  O477  1  0.97723773  0.91793589  0.31704661  1
  O  O478  1  0.97685364  0.91756942  0.56594270  1
  O  O479  1  0.97685905  0.91596294  0.81595296  1
  O  O480  1  0.07253804  0.31178662  0.07505353  1
  O  O481  1  0.07157828  0.31500854  0.32383459  1
  O  O482  1  0.07406687  0.31298591  0.57593747  1
  O  O483  1  0.07214884  0.31186017  0.82600620  1
  O  O484  1  0.07247990  0.64809467  0.07491924  1
  O  O485  1  0.07185112  0.64793570  0.32417553  1
  O  O486  1  0.07149317  0.64797382  0.57243309  1
  O  O487  1  0.07413567  0.64744112  0.82501149  1
  O  O488  1  0.07210899  0.97994422  0.07364348  1
  O  O489  1  0.07232700  0.98119472  0.32401410  1
  O  O490  1  0.07223435  0.98052440  0.57393181  1
  O  O491  1  0.07117736  0.98043919  0.82328803  1
  O  O492  1  0.57217448  0.31329996  0.07298415  1
  O  O493  1  0.57343513  0.31501393  0.32299551  1
  O  O494  1  0.57399027  0.31552823  0.57373492  1
  O  O495  1  0.57414515  0.31350247  0.82586156  1
  O  O496  1  0.57398137  0.64473783  0.07389211  1
  O  O497  1  0.57354211  0.64812771  0.32372881  1
  O  O498  1  0.57350405  0.64833359  0.57448218  1
  O  O499  1  0.57373608  0.64472362  0.82523275  1
  O  O500  1  0.57421745  0.97934285  0.07501629  1
  O  O501  1  0.57334784  0.97976480  0.32565143  1
  O  O502  1  0.57349451  0.97903052  0.57461882  1
  O  O503  1  0.57280015  0.98028479  0.82306433  1
  O  O504  1  0.42614403  0.01988708  0.17430102  1
  O  O505  1  0.42615539  0.02055815  0.42454463  1
  O  O506  1  0.42716425  0.01881977  0.67502971  1
  O  O507  1  0.42695154  0.02041624  0.92463003  1
  O  O508  1  0.42684456  0.35164962  0.17511810  1
  O  O509  1  0.42760463  0.35237681  0.42615936  1
  O  O510  1  0.42713526  0.35480246  0.67537956  1
  O  O511  1  0.42787732  0.35303830  0.92588771  1
  O  O512  1  0.42746961  0.68396052  0.17601260  1
  O  O513  1  0.42793069  0.68620517  0.42721450  1
  O  O514  1  0.42741776  0.68756427  0.67455952  1
  O  O515  1  0.42651883  0.68608395  0.92333421  1
  O  O516  1  0.92666634  0.01772188  0.17603554  1
  O  O517  1  0.92660191  0.01891133  0.42660460  1
  O  O518  1  0.92800413  0.01921374  0.67797577  1
  O  O519  1  0.92709397  0.01881918  0.92685596  1
  O  O520  1  0.92786310  0.35292561  0.17770310  1
  O  O521  1  0.92715781  0.35487605  0.42473132  1
  O  O522  1  0.92553221  0.35417615  0.67407518  1
  O  O523  1  0.92554984  0.35304126  0.92552710  1
  O  O524  1  0.92648603  0.68575315  0.17631599  1
  O  O525  1  0.92767076  0.68677421  0.42700846  1
  O  O526  1  0.92752142  0.68849230  0.67536328  1
  O  O527  1  0.92790363  0.68694986  0.92622632  1
  O  O528  1  0.17606159  0.01946593  0.20097735  1
  O  O529  1  0.17819440  0.01886555  0.44770101  1
  O  O530  1  0.17529730  0.01988016  0.69922578  1
  O  O531  1  0.17553904  0.01964876  0.94988933  1
  O  O532  1  0.17580764  0.35309742  0.20016694  1
  O  O533  1  0.17638708  0.35259373  0.44884685  1
  O  O534  1  0.17574183  0.35373641  0.70090868  1
  O  O535  1  0.17648213  0.35506364  0.94955889  1
  O  O536  1  0.17672782  0.68537220  0.19938536  1
  O  O537  1  0.17709344  0.68777043  0.44968385  1
  O  O538  1  0.17736918  0.68601863  0.69723139  1
  O  O539  1  0.17565727  0.68653925  0.94941532  1
  O  O540  1  0.67731883  0.01963603  0.19992069  1
  O  O541  1  0.67832245  0.01979220  0.44764230  1
  O  O542  1  0.67751189  0.01819283  0.69894395  1
  O  O543  1  0.67605793  0.01967314  0.95127602  1
  O  O544  1  0.67738101  0.35182828  0.20018517  1
  O  O545  1  0.67866909  0.35352648  0.44780162  1
  O  O546  1  0.67657206  0.35329323  0.69959622  1
  O  O547  1  0.67771928  0.35109696  0.94941545  1
  O  O548  1  0.67757633  0.68746098  0.20018136  1
  O  O549  1  0.67718237  0.68847279  0.44941725  1
  O  O550  1  0.67722364  0.68547161  0.69914978  1
  O  O551  1  0.67843213  0.68620322  0.94909416  1
  O  O552  1  0.32341210  0.31395319  0.04999100  1
  O  O553  1  0.32141618  0.31396194  0.30174646  1
  O  O554  1  0.32367775  0.31332786  0.54912521  1
  O  O555  1  0.32459889  0.31349924  0.79982333  1
  O  O556  1  0.32329994  0.64789669  0.05037824  1
  O  O557  1  0.32428680  0.64690663  0.30024759  1
  O  O558  1  0.32299942  0.64837066  0.55085971  1
  O  O559  1  0.32302409  0.64622104  0.79987980  1
  O  O560  1  0.32386508  0.97993482  0.04999630  1
  O  O561  1  0.32191020  0.97976368  0.30194014  1
  O  O562  1  0.32258687  0.97900762  0.54904367  1
  O  O563  1  0.32339863  0.97906821  0.79838558  1
  O  O564  1  0.82264728  0.31290709  0.05284180  1
  O  O565  1  0.82163898  0.31323655  0.30195027  1
  O  O566  1  0.82385000  0.31344324  0.54864880  1
  O  O567  1  0.82366369  0.31394738  0.80151950  1
  O  O568  1  0.82419801  0.64670267  0.04997151  1
  O  O569  1  0.82373112  0.64599199  0.30004432  1
  O  O570  1  0.82309632  0.64894178  0.54990078  1
  O  O571  1  0.82326968  0.64853215  0.80148537  1
  O  O572  1  0.82219804  0.97988329  0.05196356  1
  O  O573  1  0.82157855  0.98081961  0.30169044  1
  O  O574  1  0.82278225  0.98194740  0.55113854  1
  O  O575  1  0.82311372  0.97872187  0.80170016  1
  O  O576  1  0.42553348  0.14678295  0.17456012  1
  O  O577  1  0.42672943  0.14760414  0.42463167  1
  O  O578  1  0.42740347  0.14616605  0.67471606  1
  O  O579  1  0.42694378  0.14755370  0.92464208  1
  O  O580  1  0.42683543  0.47852967  0.17509368  1
  O  O581  1  0.42710254  0.47943359  0.42413018  1
  O  O582  1  0.42734210  0.48191482  0.67546886  1
  O  O583  1  0.42803599  0.48029700  0.92715072  1
  O  O584  1  0.42686810  0.81116873  0.17522282  1
  O  O585  1  0.42857521  0.81354287  0.42618291  1
  O  O586  1  0.42758213  0.81450391  0.67524268  1
  O  O587  1  0.42669621  0.81302981  0.92432645  1
  O  O588  1  0.92604497  0.14468598  0.17541216  1
  O  O589  1  0.92747092  0.14597446  0.42539453  1
  O  O590  1  0.92704982  0.14645104  0.67691839  1
  O  O591  1  0.92673038  0.14597394  0.92772197  1
  O  O592  1  0.92702483  0.48051323  0.17680937  1
  O  O593  1  0.92710227  0.48189278  0.42513297  1
  O  O594  1  0.92601618  0.48113669  0.67501187  1
  O  O595  1  0.92559645  0.48003210  0.92539437  1
  O  O596  1  0.92642492  0.81260306  0.17547901  1
  O  O597  1  0.92803762  0.81411867  0.42643000  1
  O  O598  1  0.92675149  0.81537648  0.67553303  1
  O  O599  1  0.92834217  0.81421867  0.92757827  1
  O  O600  1  0.07220011  0.18463262  0.07556878  1
  O  O601  1  0.07280600  0.18774703  0.32511684  1
  O  O602  1  0.07381948  0.18614115  0.57510832  1
  O  O603  1  0.07266575  0.18467899  0.82475511  1
  O  O604  1  0.07255146  0.52106655  0.07575468  1
  O  O605  1  0.07190253  0.52073177  0.32336975  1
  O  O606  1  0.07249075  0.52051001  0.57288878  1
  O  O607  1  0.07310410  0.52057176  0.82570039  1
  O  O608  1  0.07126462  0.85275274  0.07360066  1
  O  O609  1  0.07254571  0.85433784  0.32519749  1
  O  O610  1  0.07132591  0.85340728  0.57269029  1
  O  O611  1  0.07240335  0.85337730  0.82366833  1
  O  O612  1  0.57168595  0.18589280  0.07373243  1
  O  O613  1  0.57294290  0.18799152  0.32443617  1
  O  O614  1  0.57417299  0.18816006  0.57407340  1
  O  O615  1  0.57448640  0.18682589  0.82533421  1
  O  O616  1  0.57379808  0.51765847  0.07464133  1
  O  O617  1  0.57373548  0.52103059  0.32516071  1
  O  O618  1  0.57407567  0.52134811  0.57381255  1
  O  O619  1  0.57333699  0.51762682  0.82368857  1
  O  O620  1  0.57398087  0.85231424  0.07471645  1
  O  O621  1  0.57414446  0.85282392  0.32510186  1
  O  O622  1  0.57357327  0.85210810  0.57426380  1
  O  O623  1  0.57247230  0.85268830  0.82314233  1
  O  O624  1  0.32335243  0.18689310  0.05005332  1
  O  O625  1  0.32232702  0.18648728  0.30151329  1
  O  O626  1  0.32381389  0.18653406  0.54867772  1
  O  O627  1  0.32400724  0.18639784  0.79967551  1
  O  O628  1  0.32283900  0.52078512  0.05079001  1
  O  O629  1  0.32409473  0.52013978  0.29931438  1
  O  O630  1  0.32318639  0.52108859  0.54996985  1
  O  O631  1  0.32321447  0.51914950  0.80053430  1
  O  O632  1  0.32427341  0.85303497  0.04980472  1
  O  O633  1  0.32256512  0.85225482  0.30152328  1
  O  O634  1  0.32283891  0.85208990  0.54992527  1
  O  O635  1  0.32318973  0.85217693  0.79884654  1
  O  O636  1  0.82121726  0.18567572  0.05288795  1
  O  O637  1  0.82286938  0.18602434  0.30095147  1
  O  O638  1  0.82443756  0.18665725  0.54967481  1
  O  O639  1  0.82300534  0.18667829  0.80133482  1
  O  O640  1  0.82416555  0.51978683  0.04903565  1
  O  O641  1  0.82310409  0.51875970  0.30111422  1
  O  O642  1  0.82318636  0.52180741  0.55040183  1
  O  O643  1  0.82383527  0.52146208  0.79975290  1
  O  O644  1  0.82178014  0.85259860  0.05271389  1
  O  O645  1  0.82293828  0.85366759  0.30153505  1
  O  O646  1  0.82362409  0.85500206  0.55030533  1
  O  O647  1  0.82315272  0.85172212  0.80160345  1
  O  O648  1  0.17559129  0.14627194  0.20105400  1
  O  O649  1  0.17677000  0.14640554  0.44820101  1
  O  O650  1  0.17630138  0.14682847  0.69933114  1
  O  O651  1  0.17576184  0.14673750  0.94995999  1
  O  O652  1  0.17560109  0.47990230  0.20138797  1
  O  O653  1  0.17668304  0.47993280  0.44927961  1
  O  O654  1  0.17526182  0.48055056  0.69954012  1
  O  O655  1  0.17657537  0.48241075  0.94924777  1
  O  O656  1  0.17653516  0.81253598  0.19934956  1
  O  O657  1  0.17650798  0.81457539  0.44899688  1
  O  O658  1  0.17724080  0.81353769  0.69728060  1
  O  O659  1  0.17615315  0.81327624  0.95011818  1
  O  O660  1  0.67807221  0.14688458  0.19881200  1
  O  O661  1  0.67747661  0.14698223  0.44872673  1
  O  O662  1  0.67713665  0.14541929  0.69949494  1
  O  O663  1  0.67645064  0.14634252  0.95128228  1
  O  O664  1  0.67738597  0.47876854  0.19973910  1
  O  O665  1  0.67811602  0.48109095  0.44799294  1
  O  O666  1  0.67648494  0.48015731  0.70039401  1
  O  O667  1  0.67736154  0.47828334  0.95072485  1
  O  O668  1  0.67676817  0.81453353  0.19915837  1
  O  O669  1  0.67787166  0.81551129  0.44982385  1
  O  O670  1  0.67717608  0.81233929  0.70004373  1
  O  O671  1  0.67756195  0.81359237  0.94838956  1
