# generated using pymatgen
data_Na2MnFe(PO4)2
_symmetry_space_group_name_H-M   'P 1'
_cell_length_a   22.34290704
_cell_length_b   20.09295860
_cell_length_c   19.45010094
_cell_angle_alpha   90.01461055
_cell_angle_beta   90.01674672
_cell_angle_gamma   89.99683574
_symmetry_Int_Tables_number   1
_chemical_formula_structural   Na2MnFe(PO4)2
_chemical_formula_sum   'Na96 Mn48 Fe48 P96 O384'
_cell_volume   8731.83246123
_cell_formula_units_Z   48
loop_
 _symmetry_equiv_pos_site_id
 _symmetry_equiv_pos_as_xyz
  1  'x, y, z'
loop_
 _atom_site_type_symbol
 _atom_site_label
 _atom_site_symmetry_multiplicity
 _atom_site_fract_x
 _atom_site_fract_y
 _atom_site_fract_z
 _atom_site_occupancy
  Na  Na0  1  0.14061239  0.24906035  0.24445771  1
  Na  Na1  1  0.14056781  0.24988339  0.49456985  1
  Na  Na2  1  0.14051562  0.25092925  0.74429466  1
  Na  Na3  1  0.14050572  0.25012641  0.99334892  1
  Na  Na4  1  0.14062659  0.58171043  0.24378245  1
  Na  Na5  1  0.13986198  0.58291391  0.49385531  1
  Na  Na6  1  0.14028082  0.58323121  0.74347662  1
  Na  Na7  1  0.14050896  0.58344291  0.99351728  1
  Na  Na8  1  0.14032470  0.91554063  0.24349237  1
  Na  Na9  1  0.14109026  0.91717289  0.49387157  1
  Na  Na10  1  0.14116205  0.91688319  0.74439951  1
  Na  Na11  1  0.14092552  0.91616706  0.99479329  1
  Na  Na12  1  0.63963491  0.25125529  0.24304653  1
  Na  Na13  1  0.63943189  0.25081375  0.49464077  1
  Na  Na14  1  0.64001409  0.25011085  0.74266936  1
  Na  Na15  1  0.64000517  0.25005019  0.99278622  1
  Na  Na16  1  0.63979101  0.58425577  0.24346317  1
  Na  Na17  1  0.63951359  0.58520345  0.49286785  1
  Na  Na18  1  0.63971903  0.58292807  0.74222964  1
  Na  Na19  1  0.64021115  0.58260982  0.99325600  1
  Na  Na20  1  0.64053239  0.91543756  0.24383459  1
  Na  Na21  1  0.64073715  0.91672727  0.49490360  1
  Na  Na22  1  0.64009308  0.91682337  0.74331381  1
  Na  Na23  1  0.63980922  0.91690983  0.99241580  1
  Na  Na24  1  0.35999000  0.08216889  0.00634408  1
  Na  Na25  1  0.36001684  0.08333887  0.25621463  1
  Na  Na26  1  0.35997186  0.08366819  0.50670394  1
  Na  Na27  1  0.36015872  0.08345220  0.75819389  1
  Na  Na28  1  0.36032958  0.41684338  0.00606812  1
  Na  Na29  1  0.35997661  0.41448399  0.25665962  1
  Na  Na30  1  0.36012609  0.41666210  0.50774208  1
  Na  Na31  1  0.36018898  0.41692502  0.75703603  1
  Na  Na32  1  0.35963475  0.74962292  0.00598502  1
  Na  Na33  1  0.35999436  0.74745370  0.25602400  1
  Na  Na34  1  0.36022192  0.74806905  0.50734522  1
  Na  Na35  1  0.35982167  0.74889197  0.75709321  1
  Na  Na36  1  0.85954311  0.08325343  0.00529084  1
  Na  Na37  1  0.85957852  0.08290841  0.25638108  1
  Na  Na38  1  0.85932096  0.08508176  0.50714907  1
  Na  Na39  1  0.85957236  0.08421389  0.75627782  1
  Na  Na40  1  0.85955964  0.41772948  0.00603779  1
  Na  Na41  1  0.85979323  0.41933207  0.25542763  1
  Na  Na42  1  0.85912695  0.41797993  0.50627510  1
  Na  Na43  1  0.85929252  0.41682711  0.75512502  1
  Na  Na44  1  0.85890407  0.75017017  0.00545052  1
  Na  Na45  1  0.85935296  0.75028588  0.25616619  1
  Na  Na46  1  0.85986921  0.75096458  0.50542142  1
  Na  Na47  1  0.85956109  0.75006747  0.75551078  1
  Na  Na48  1  0.10943602  0.08241529  0.11981783  1
  Na  Na49  1  0.10960139  0.08347615  0.36975443  1
  Na  Na50  1  0.11036348  0.08458924  0.61950129  1
  Na  Na51  1  0.10997984  0.08381764  0.86904378  1
  Na  Na52  1  0.11015797  0.41592840  0.11836599  1
  Na  Na53  1  0.10988881  0.41703725  0.36954077  1
  Na  Na54  1  0.10963356  0.41739074  0.61860183  1
  Na  Na55  1  0.10997088  0.41754554  0.86853674  1
  Na  Na56  1  0.11031980  0.74964185  0.11864754  1
  Na  Na57  1  0.10969216  0.74910502  0.36813584  1
  Na  Na58  1  0.10990076  0.74830874  0.61913510  1
  Na  Na59  1  0.10992230  0.75034727  0.86905584  1
  Na  Na60  1  0.60910086  0.08424216  0.11820152  1
  Na  Na61  1  0.60946941  0.08457113  0.36933482  1
  Na  Na62  1  0.61002454  0.08409557  0.61916244  1
  Na  Na63  1  0.60894762  0.08248644  0.86676053  1
  Na  Na64  1  0.60931613  0.41630733  0.11823294  1
  Na  Na65  1  0.60891697  0.41696948  0.36902024  1
  Na  Na66  1  0.60887790  0.41725018  0.61856214  1
  Na  Na67  1  0.60928272  0.41610058  0.86814272  1
  Na  Na68  1  0.60957821  0.74892831  0.11823012  1
  Na  Na69  1  0.61015576  0.74931204  0.36850021  1
  Na  Na70  1  0.60936651  0.74881156  0.61828607  1
  Na  Na71  1  0.60908855  0.74967390  0.86703430  1
  Na  Na72  1  0.39047102  0.25048439  0.13103450  1
  Na  Na73  1  0.39059945  0.25018468  0.38136215  1
  Na  Na74  1  0.39060200  0.25006647  0.63283853  1
  Na  Na75  1  0.39067075  0.25046837  0.88178841  1
  Na  Na76  1  0.39045513  0.58166997  0.13137937  1
  Na  Na77  1  0.39048669  0.58211194  0.38262236  1
  Na  Na78  1  0.39019113  0.58255818  0.63247337  1
  Na  Na79  1  0.39047626  0.58171372  0.88058822  1
  Na  Na80  1  0.39067422  0.91623682  0.13117106  1
  Na  Na81  1  0.39085701  0.91563581  0.38097064  1
  Na  Na82  1  0.39100652  0.91630308  0.63344081  1
  Na  Na83  1  0.38998035  0.91605178  0.88161340  1
  Na  Na84  1  0.89079348  0.25001103  0.13041765  1
  Na  Na85  1  0.89024175  0.25113258  0.38151804  1
  Na  Na86  1  0.88977342  0.25045101  0.63141670  1
  Na  Na87  1  0.89015685  0.25101173  0.88069146  1
  Na  Na88  1  0.88986219  0.58389961  0.13097872  1
  Na  Na89  1  0.89001491  0.58419990  0.38041642  1
  Na  Na90  1  0.88988355  0.58421511  0.62968206  1
  Na  Na91  1  0.89023199  0.58422693  0.88072114  1
  Na  Na92  1  0.89021449  0.91669282  0.13113259  1
  Na  Na93  1  0.89072436  0.91685163  0.38115863  1
  Na  Na94  1  0.89068085  0.91767723  0.63165754  1
  Na  Na95  1  0.88976588  0.91767995  0.88113356  1
  Mn  Mn96  1  0.74964675  0.16671183  0.12410786  1
  Mn  Mn97  1  0.50068659  0.00077043  0.25036029  1
  Mn  Mn98  1  0.00026764  0.33375935  -0.00014783  1
  Mn  Mn99  1  0.74969157  0.16740359  0.37536593  1
  Mn  Mn100  1  0.00071730  0.00095215  0.00051767  1
  Mn  Mn101  1  0.25057763  0.16713979  0.87582314  1
  Mn  Mn102  1  0.24986480  0.66486697  0.37571858  1
  Mn  Mn103  1  -0.00001557  0.83352047  -0.00001481  1
  Mn  Mn104  1  0.74889711  0.50208224  0.37567106  1
  Mn  Mn105  1  0.75064966  0.33446364  0.12444382  1
  Mn  Mn106  1  0.74969488  0.16700545  0.87418411  1
  Mn  Mn107  1  0.25045160  0.83211808  0.37526261  1
  Mn  Mn108  1  -0.00031176  0.33370432  0.49986640  1
  Mn  Mn109  1  0.74912134  -0.00011513  0.37551030  1
  Mn  Mn110  1  0.49933047  0.16773777  0.50034140  1
  Mn  Mn111  1  0.74975966  0.33455027  0.37441973  1
  Mn  Mn112  1  0.74983011  0.66690297  0.87449507  1
  Mn  Mn113  1  0.75009494  0.83260981  0.12396593  1
  Mn  Mn114  1  0.50000488  0.16674581  -0.00046855  1
  Mn  Mn115  1  0.00039915  0.00090884  0.50086615  1
  Mn  Mn116  1  0.25094575  0.00005592  0.37485899  1
  Mn  Mn117  1  0.49956471  0.83327470  -0.00066120  1
  Mn  Mn118  1  0.25105093  0.00082495  0.62497085  1
  Mn  Mn119  1  0.74976959  -0.00034099  0.12482739  1
  Mn  Mn120  1  0.75009686  0.83374583  0.62486550  1
  Mn  Mn121  1  0.00014731  0.16636110  0.25063963  1
  Mn  Mn122  1  0.00115882  0.83282176  0.50044763  1
  Mn  Mn123  1  0.00060599  0.66607119  0.24935060  1
  Mn  Mn124  1  0.24978554  0.66629056  0.87523276  1
  Mn  Mn125  1  0.24968355  0.16663188  0.12476016  1
  Mn  Mn126  1  0.25017219  0.33377335  0.62524897  1
  Mn  Mn127  1  0.50056774  0.83180557  0.50078779  1
  Mn  Mn128  1  -0.00056362  0.50139563  0.74885718  1
  Mn  Mn129  1  0.49968212  0.49935569  0.25056393  1
  Mn  Mn130  1  -0.00038905  0.33340161  0.74950123  1
  Mn  Mn131  1  0.49957622  0.66502491  -0.00134713  1
  Mn  Mn132  1  0.25025757  0.33246106  0.37626219  1
  Mn  Mn133  1  0.25017488  -0.00139378  0.12588087  1
  Mn  Mn134  1  0.50047901  0.83204241  0.25038084  1
  Mn  Mn135  1  0.00047726  0.00141255  0.75070864  1
  Mn  Mn136  1  0.00036437  0.83295730  0.75008048  1
  Mn  Mn137  1  0.24995285  0.49896763  0.12483849  1
  Mn  Mn138  1  0.00042193  0.33446275  0.25037308  1
  Mn  Mn139  1  -0.00078350  0.66635821  0.00026785  1
  Mn  Mn140  1  0.49998408  0.00001909  0.50061963  1
  Mn  Mn141  1  0.25080480  0.83258637  0.62517869  1
  Mn  Mn142  1  0.75029295  0.49946998  0.87374287  1
  Mn  Mn143  1  0.74941079  0.50082589  0.62438392  1
  Fe  Fe144  1  0.25055427  0.66580629  0.12469402  1
  Fe  Fe145  1  0.00011244  0.16703361  0.00047581  1
  Fe  Fe146  1  0.74925522  0.66683769  0.12468221  1
  Fe  Fe147  1  0.25025866  0.16630737  0.37521087  1
  Fe  Fe148  1  0.50053871  0.33308486  -0.00012985  1
  Fe  Fe149  1  0.00044774  0.50038306  -0.00076513  1
  Fe  Fe150  1  0.50048524  0.49902523  -0.00026567  1
  Fe  Fe151  1  0.74980840  0.66793544  0.37389827  1
  Fe  Fe152  1  0.25043816  0.49921451  0.37545229  1
  Fe  Fe153  1  0.00005306  0.50016093  0.24991358  1
  Fe  Fe154  1  0.49971630  0.33378444  0.75047113  1
  Fe  Fe155  1  0.25051527  0.16713791  0.62623899  1
  Fe  Fe156  1  -0.00006658  0.66666100  0.74955591  1
  Fe  Fe157  1  0.49984426  0.33353268  0.50075946  1
  Fe  Fe158  1  0.74946000  0.50093789  0.12479340  1
  Fe  Fe159  1  0.75045692  0.00019779  0.62503667  1
  Fe  Fe160  1  -0.00033524  0.00006592  0.25033671  1
  Fe  Fe161  1  0.49996386  0.16680907  0.75052435  1
  Fe  Fe162  1  0.00008505  0.83330258  0.25023486  1
  Fe  Fe163  1  -0.00063195  0.50051975  0.49949555  1
  Fe  Fe164  1  0.74991054  0.16726941  0.62543894  1
  Fe  Fe165  1  0.00014144  0.16740474  0.75017262  1
  Fe  Fe166  1  -0.00034459  0.66641978  0.49884525  1
  Fe  Fe167  1  0.49985976  0.16758845  0.24952457  1
  Fe  Fe168  1  0.49973465  0.33355227  0.25022870  1
  Fe  Fe169  1  0.25032090  -0.00036007  0.87567546  1
  Fe  Fe170  1  0.25023284  0.49989656  0.87535263  1
  Fe  Fe171  1  0.74964876  0.33347968  0.87452072  1
  Fe  Fe172  1  0.25016745  0.33405739  0.87473252  1
  Fe  Fe173  1  0.24965096  0.49980247  0.62585172  1
  Fe  Fe174  1  0.74920906  0.83343140  0.87434836  1
  Fe  Fe175  1  0.24958554  0.66574650  0.62593760  1
  Fe  Fe176  1  0.24983049  0.83288615  0.87544087  1
  Fe  Fe177  1  0.25084273  0.83226883  0.12474479  1
  Fe  Fe178  1  0.49942127  0.66590746  0.50067042  1
  Fe  Fe179  1  0.25014163  0.33304228  0.12530149  1
  Fe  Fe180  1  0.49996115  0.66561805  0.25018867  1
  Fe  Fe181  1  0.74968558  0.66768407  0.62441265  1
  Fe  Fe182  1  0.74925240  0.33372783  0.62498384  1
  Fe  Fe183  1  0.49987090  -0.00035530  0.74989667  1
  Fe  Fe184  1  0.50025006  0.66545821  0.74947206  1
  Fe  Fe185  1  0.50025667  0.49929746  0.74950698  1
  Fe  Fe186  1  0.49973443  0.83264676  0.74989665  1
  Fe  Fe187  1  -0.00012655  0.16715518  0.49999336  1
  Fe  Fe188  1  0.75033114  0.83361852  0.37522705  1
  Fe  Fe189  1  0.49980737  0.49970312  0.50040990  1
  Fe  Fe190  1  0.74960577  0.00005522  0.87424262  1
  Fe  Fe191  1  0.49998318  -0.00009658  -0.00060148  1
  P  P192  1  0.04273370  0.24903462  0.10262285  1
  P  P193  1  0.04279559  0.25027445  0.35379254  1
  P  P194  1  0.04208814  0.24890735  0.60278647  1
  P  P195  1  0.04217809  0.24929778  0.85287670  1
  P  P196  1  0.04250991  0.58165967  0.10245693  1
  P  P197  1  0.04219214  0.58194482  0.35285804  1
  P  P198  1  0.04107815  0.58395515  0.60114249  1
  P  P199  1  0.04226130  0.58454200  0.85233409  1
  P  P200  1  0.04265325  0.91654957  0.10432072  1
  P  P201  1  0.04180810  0.91692819  0.35182335  1
  P  P202  1  0.04364749  0.91691503  0.60352552  1
  P  P203  1  0.04307589  0.91712632  0.85327379  1
  P  P204  1  0.54219510  0.25121605  0.10265243  1
  P  P205  1  0.54139271  0.25076517  0.35183366  1
  P  P206  1  0.54142448  0.25171341  0.60375364  1
  P  P207  1  0.54134912  0.25054905  0.85168534  1
  P  P208  1  0.54195561  0.58140992  0.10218632  1
  P  P209  1  0.54179923  0.58399659  0.35338543  1
  P  P210  1  0.54089093  0.58282382  0.60232198  1
  P  P211  1  0.54139297  0.58199062  0.85118820  1
  P  P212  1  0.54216787  0.91777728  0.10189627  1
  P  P213  1  0.54308052  0.91618247  0.35341345  1
  P  P214  1  0.54237934  0.91617316  0.60446109  1
  P  P215  1  0.54081159  0.91639605  0.85137156  1
  P  P216  1  0.45783585  0.08479298  0.14722491  1
  P  P217  1  0.45746703  0.08400362  0.39683584  1
  P  P218  1  0.45870301  0.08353478  0.64910497  1
  P  P219  1  0.45798500  0.08188938  0.89669676  1
  P  P220  1  0.45796148  0.41512094  0.14713958  1
  P  P221  1  0.45850841  0.41609970  0.39886788  1
  P  P222  1  0.45842240  0.41640427  0.64813778  1
  P  P223  1  0.45901366  0.41600770  0.89772501  1
  P  P224  1  0.45819730  0.74776634  0.14742638  1
  P  P225  1  0.45797166  0.74761562  0.39776201  1
  P  P226  1  0.45862409  0.74872283  0.64851523  1
  P  P227  1  0.45738426  0.74940468  0.89544658  1
  P  P228  1  0.95749856  0.08250770  0.14762602  1
  P  P229  1  0.95739226  0.08442102  0.39777606  1
  P  P230  1  0.95799738  0.08549148  0.64760943  1
  P  P231  1  0.95803769  0.08571131  0.89749777  1
  P  P232  1  0.95825565  0.41843624  0.14678337  1
  P  P233  1  0.95725862  0.41870102  0.39708686  1
  P  P234  1  0.95698222  0.41741243  0.64587193  1
  P  P235  1  0.95762930  0.41827930  0.89711843  1
  P  P236  1  0.95780204  0.75099924  0.14780925  1
  P  P237  1  0.95849887  0.74946623  0.39673775  1
  P  P238  1  0.95794192  0.74847550  0.64679042  1
  P  P239  1  0.95701344  0.74981441  0.89631214  1
  P  P240  1  0.20744975  0.08317674  0.22878002  1
  P  P241  1  0.20841402  0.08471074  0.47811237  1
  P  P242  1  0.20876692  0.08452765  0.72859428  1
  P  P243  1  0.20811696  0.08193183  0.97772907  1
  P  P244  1  0.20793947  0.41475430  0.22801053  1
  P  P245  1  0.20813901  0.41798823  0.47833655  1
  P  P246  1  0.20775479  0.41784150  0.72839323  1
  P  P247  1  0.20870174  0.41650565  0.97692443  1
  P  P248  1  0.20903757  0.74864697  0.22649219  1
  P  P249  1  0.20739236  0.74878956  0.47894348  1
  P  P250  1  0.20816549  0.74884499  0.72818440  1
  P  P251  1  0.20801212  0.75091635  0.97825286  1
  P  P252  1  0.70665688  0.08345802  0.22792330  1
  P  P253  1  0.70698479  0.08390641  0.47944844  1
  P  P254  1  0.70894192  0.08300073  0.72674350  1
  P  P255  1  0.70703642  0.08226105  0.97629517  1
  P  P256  1  0.70745917  0.41894241  0.22703627  1
  P  P257  1  0.70673865  0.41720060  0.47860841  1
  P  P258  1  0.70742136  0.41568086  0.72716645  1
  P  P259  1  0.70789601  0.41615515  0.97718327  1
  P  P260  1  0.70761399  0.74886736  0.22755228  1
  P  P261  1  0.70859234  0.75045229  0.47660462  1
  P  P262  1  0.70742370  0.74957212  0.72730228  1
  P  P263  1  0.70688779  0.75093024  0.97687795  1
  P  P264  1  0.29207164  0.25168893  0.02219713  1
  P  P265  1  0.29234787  0.24864966  0.27270949  1
  P  P266  1  0.29249813  0.24851699  0.52314183  1
  P  P267  1  0.29252889  0.25161024  0.77280203  1
  P  P268  1  0.29232950  0.58364379  0.02222947  1
  P  P269  1  0.29260927  0.58090320  0.27265331  1
  P  P270  1  0.29121408  0.58235283  0.52409096  1
  P  P271  1  0.29177557  0.58167635  0.77231730  1
  P  P272  1  0.29244723  0.91485725  0.02198712  1
  P  P273  1  0.29326807  0.91511453  0.27160829  1
  P  P274  1  0.29400035  0.91641228  0.52229132  1
  P  P275  1  0.29146091  0.91627850  0.77391721  1
  P  P276  1  0.79271338  0.25044377  0.02080416  1
  P  P277  1  0.79290606  0.25079815  0.27161394  1
  P  P278  1  0.79090304  0.25093619  0.52365947  1
  P  P279  1  0.79162804  0.25175377  0.77138487  1
  P  P280  1  0.79119739  0.58381333  0.02306720  1
  P  P281  1  0.79151720  0.58526533  0.27155592  1
  P  P282  1  0.79134522  0.58612504  0.52164858  1
  P  P283  1  0.79250532  0.58376188  0.77075373  1
  P  P284  1  0.79235542  0.91668500  0.02044136  1
  P  P285  1  0.79224693  0.91549025  0.27272473  1
  P  P286  1  0.79270173  0.91796399  0.52248494  1
  P  P287  1  0.79127031  0.91687043  0.77271960  1
  O  O288  1  0.03755103  0.24960472  0.18255547  1
  O  O289  1  0.03741460  0.25003109  0.43372010  1
  O  O290  1  0.03665718  0.24891484  0.68276020  1
  O  O291  1  0.03702514  0.24928207  0.93283745  1
  O  O292  1  0.03749426  0.58152784  0.18243058  1
  O  O293  1  0.03648585  0.58247510  0.43269317  1
  O  O294  1  0.03588867  0.58461522  0.68109987  1
  O  O295  1  0.03705627  0.58364136  0.93226453  1
  O  O296  1  0.03717595  0.91652150  0.18424785  1
  O  O297  1  0.03700728  0.91680662  0.43185829  1
  O  O298  1  0.03848737  0.91706121  0.68345518  1
  O  O299  1  0.03802912  0.91720126  0.93321955  1
  O  O300  1  0.53695166  0.25103656  0.18251574  1
  O  O301  1  0.53604752  0.25104902  0.43179322  1
  O  O302  1  0.53609844  0.25149983  0.68358051  1
  O  O303  1  0.53674186  0.25037606  0.93166503  1
  O  O304  1  0.53670750  0.58198084  0.18209039  1
  O  O305  1  0.53643284  0.58402040  0.43323621  1
  O  O306  1  0.53622251  0.58253808  0.68223058  1
  O  O307  1  0.53668302  0.58163105  0.93112158  1
  O  O308  1  0.53734694  0.91739737  0.18186352  1
  O  O309  1  0.53786886  0.91589252  0.43337517  1
  O  O310  1  0.53678514  0.91589619  0.68435790  1
  O  O311  1  0.53591387  0.91719171  0.93133589  1
  O  O312  1  0.46311443  0.08416901  0.06727319  1
  O  O313  1  0.46288065  0.08471846  0.31693526  1
  O  O314  1  0.46289247  0.08369237  0.56908885  1
  O  O315  1  0.46332540  0.08212964  0.81682102  1
  O  O316  1  0.46344867  0.41524724  0.06733792  1
  O  O317  1  0.46335344  0.41609476  0.31892565  1
  O  O318  1  0.46341361  0.41639493  0.56828125  1
  O  O319  1  0.46441014  0.41585511  0.81788231  1
  O  O320  1  0.46324319  0.74817107  0.06745770  1
  O  O321  1  0.46317841  0.74738570  0.31781663  1
  O  O322  1  0.46346125  0.74809743  0.56852752  1
  O  O323  1  0.46283320  0.74963347  0.81559246  1
  O  O324  1  0.96305530  0.08331499  0.06770611  1
  O  O325  1  0.96267620  0.08331941  0.31784518  1
  O  O326  1  0.96299384  0.08537883  0.56766586  1
  O  O327  1  0.96331311  0.08599072  0.81753926  1
  O  O328  1  0.96374776  0.41834430  0.06683961  1
  O  O329  1  0.96258808  0.41866049  0.31711835  1
  O  O330  1  0.96227695  0.41770071  0.56595353  1
  O  O331  1  0.96256963  0.41786554  0.81713348  1
  O  O332  1  0.96246145  0.75066751  0.06780757  1
  O  O333  1  0.96403725  0.75018031  0.31683659  1
  O  O334  1  0.96350346  0.74840165  0.56685168  1
  O  O335  1  0.96234172  0.74915927  0.81636524  1
  O  O336  1  0.21315302  0.08197310  0.05767035  1
  O  O337  1  0.21282767  0.08379146  0.30872352  1
  O  O338  1  0.21370517  0.08491702  0.55810837  1
  O  O339  1  0.21414903  0.08359166  0.80852495  1
  O  O340  1  0.21366341  0.41602742  0.05690615  1
  O  O341  1  0.21305334  0.41530266  0.30792721  1
  O  O342  1  0.21325911  0.41833826  0.55827210  1
  O  O343  1  0.21305273  0.41774154  0.80827424  1
  O  O344  1  0.21357394  0.75061692  0.05810576  1
  O  O345  1  0.21393036  0.74834440  0.30651490  1
  O  O346  1  0.21231667  0.74838153  0.55890588  1
  O  O347  1  0.21332954  0.74946330  0.80812980  1
  O  O348  1  0.71198651  0.08255547  0.05627775  1
  O  O349  1  0.71159655  0.08364433  0.30794132  1
  O  O350  1  0.71253964  0.08394713  0.55935469  1
  O  O351  1  0.71376942  0.08281039  0.80671531  1
  O  O352  1  0.71329055  0.41722199  0.05710025  1
  O  O353  1  0.71218215  0.41896555  0.30705857  1
  O  O354  1  0.71204241  0.41664142  0.55853837  1
  O  O355  1  0.71268219  0.41548517  0.80710918  1
  O  O356  1  0.71204827  0.75018401  0.05681224  1
  O  O357  1  0.71299278  0.74911774  0.30742015  1
  O  O358  1  0.71355270  0.75012263  0.55659595  1
  O  O359  1  0.71255756  0.75023012  0.80721493  1
  O  O360  1  0.28704982  0.24948160  0.19279287  1
  O  O361  1  0.28721208  0.24818085  0.44319433  1
  O  O362  1  0.28733372  0.25095608  0.69285919  1
  O  O363  1  0.28679494  0.25199437  0.94224787  1
  O  O364  1  0.28752365  0.58150078  0.19274778  1
  O  O365  1  0.28644579  0.58192202  0.44407946  1
  O  O366  1  0.28628349  0.58176048  0.69245615  1
  O  O367  1  0.28695785  0.58306735  0.94232492  1
  O  O368  1  0.28801130  0.91447032  0.19163325  1
  O  O369  1  0.28903428  0.91641643  0.44230771  1
  O  O370  1  0.28704419  0.91665428  0.69388865  1
  O  O371  1  0.28668360  0.91534424  0.94210043  1
  O  O372  1  0.78801373  0.25066129  0.19160648  1
  O  O373  1  0.78655403  0.25068586  0.44363489  1
  O  O374  1  0.78598347  0.25164545  0.69151074  1
  O  O375  1  0.78725089  0.25078512  0.94084785  1
  O  O376  1  0.78621846  0.58456218  0.19166428  1
  O  O377  1  0.78584331  0.58642708  0.44174631  1
  O  O378  1  0.78725687  0.58432466  0.69084063  1
  O  O379  1  0.78652937  0.58344968  0.94306139  1
  O  O380  1  0.78735091  0.91551366  0.19274418  1
  O  O381  1  0.78730873  0.91722921  0.44261984  1
  O  O382  1  0.78635017  0.91738492  0.69271539  1
  O  O383  1  0.78697444  0.91674969  0.94052463  1
  O  O384  1  0.22784528  0.25163609  0.05798818  1
  O  O385  1  0.22817231  0.24836056  0.30870507  1
  O  O386  1  0.22825574  0.24858946  0.55894546  1
  O  O387  1  0.22828860  0.25159274  0.80851069  1
  O  O388  1  0.22814251  0.58400113  0.05812595  1
  O  O389  1  0.22823589  0.58037677  0.30821691  1
  O  O390  1  0.22697355  0.58264314  0.55986545  1
  O  O391  1  0.22771007  0.58146469  0.80853690  1
  O  O392  1  0.22845240  0.91426058  0.05847469  1
  O  O393  1  0.22894468  0.91580933  0.30694856  1
  O  O394  1  0.22950327  0.91662863  0.55710628  1
  O  O395  1  0.22725719  0.91633275  0.80952698  1
  O  O396  1  0.72839390  0.25080525  0.05619042  1
  O  O397  1  0.72831593  0.25081457  0.30633087  1
  O  O398  1  0.72663284  0.25080659  0.55906369  1
  O  O399  1  0.72753100  0.25195593  0.80769826  1
  O  O400  1  0.72692198  0.58418330  0.05870248  1
  O  O401  1  0.72733151  0.58593528  0.30759435  1
  O  O402  1  0.72719378  0.58597667  0.55768093  1
  O  O403  1  0.72815977  0.58329872  0.80599849  1
  O  O404  1  0.72810989  0.91644154  0.05611446  1
  O  O405  1  0.72788320  0.91503610  0.30816730  1
  O  O406  1  0.72844486  0.91845381  0.55828125  1
  O  O407  1  0.72707660  0.91673803  0.80868012  1
  O  O408  1  0.27170540  0.08310180  0.19328681  1
  O  O409  1  0.27265687  0.08465592  0.44230619  1
  O  O410  1  0.27301607  0.08507180  0.69276592  1
  O  O411  1  0.27244525  0.08210997  0.94231956  1
  O  O412  1  0.27221629  0.41459699  0.19226825  1
  O  O413  1  0.27239436  0.41759413  0.44261658  1
  O  O414  1  0.27196495  0.41804906  0.69247877  1
  O  O415  1  0.27289338  0.41650452  0.94094518  1
  O  O416  1  0.27320756  0.74838482  0.19054844  1
  O  O417  1  0.27183923  0.74862655  0.44390455  1
  O  O418  1  0.27238556  0.74804019  0.69240191  1
  O  O419  1  0.27206350  0.75084570  0.94196754  1
  O  O420  1  0.77119645  0.08347301  0.19309398  1
  O  O421  1  0.77117814  0.08372160  0.44361344  1
  O  O422  1  0.77302386  0.08290210  0.69075979  1
  O  O423  1  0.77145314  0.08235805  0.94108337  1
  O  O424  1  0.77190270  0.41924499  0.19188710  1
  O  O425  1  0.77104046  0.41787351  0.44320868  1
  O  O426  1  0.77161153  0.41607916  0.69140593  1
  O  O427  1  0.77211529  0.41524376  0.94125909  1
  O  O428  1  0.77176860  0.74826917  0.19140115  1
  O  O429  1  0.77272321  0.75069613  0.44054876  1
  O  O430  1  0.77173312  0.74889875  0.69165015  1
  O  O431  1  0.77122544  0.75168331  0.94133444  1
  O  O432  1  0.02170625  0.08153570  0.18360129  1
  O  O433  1  0.02175252  0.08536113  0.43347587  1
  O  O434  1  0.02235206  0.08552897  0.68312936  1
  O  O435  1  0.02232962  0.08583114  0.93326275  1
  O  O436  1  0.02246037  0.41854155  0.18279415  1
  O  O437  1  0.02151356  0.41841408  0.43284098  1
  O  O438  1  0.02122913  0.41728827  0.68137386  1
  O  O439  1  0.02204586  0.41842834  0.93250835  1
  O  O440  1  0.02225380  0.75085979  0.18291374  1
  O  O441  1  0.02265204  0.74849884  0.43276868  1
  O  O442  1  0.02213261  0.74829930  0.68284750  1
  O  O443  1  0.02132263  0.74949902  0.93172870  1
  O  O444  1  0.52204735  0.08563974  0.18313527  1
  O  O445  1  0.52166447  0.08400490  0.43255152  1
  O  O446  1  0.52304034  0.08323869  0.68433745  1
  O  O447  1  0.52211773  0.08186072  0.93281539  1
  O  O448  1  0.52202374  0.41518495  0.18352328  1
  O  O449  1  0.52260581  0.41574864  0.43493835  1
  O  O450  1  0.52253588  0.41603487  0.68436720  1
  O  O451  1  0.52297923  0.41626817  0.93442956  1
  O  O452  1  0.52247440  0.74742687  0.18309068  1
  O  O453  1  0.52226903  0.74721180  0.43348179  1
  O  O454  1  0.52280099  0.74968896  0.68431862  1
  O  O455  1  0.52151822  0.74933026  0.93135302  1
  O  O456  1  0.47803843  0.25144430  0.06650249  1
  O  O457  1  0.47730116  0.25047580  0.31547273  1
  O  O458  1  0.47729643  0.25216673  0.56753153  1
  O  O459  1  0.47709093  0.25077247  0.81610437  1
  O  O460  1  0.47774605  0.58068661  0.06621229  1
  O  O461  1  0.47767588  0.58398149  0.31713721  1
  O  O462  1  0.47676509  0.58325195  0.56624316  1
  O  O463  1  0.47723424  0.58195756  0.81535446  1
  O  O464  1  0.47776797  0.91793251  0.06651060  1
  O  O465  1  0.47879447  0.91625778  0.31804345  1
  O  O466  1  0.47823884  0.91574102  0.56856862  1
  O  O467  1  0.47668631  0.91570737  0.81537567  1
  O  O468  1  0.97842725  0.24907227  0.06696502  1
  O  O469  1  0.97853582  0.25062844  0.31830737  1
  O  O470  1  0.97786112  0.24887201  0.56686545  1
  O  O471  1  0.97789272  0.24925756  0.81713067  1
  O  O472  1  0.97808846  0.58125136  0.06699014  1
  O  O473  1  0.97812486  0.58221278  0.31646611  1
  O  O474  1  0.97698205  0.58404133  0.56490924  1
  O  O475  1  0.97792192  0.58549699  0.81665474  1
  O  O476  1  0.97847918  0.91714934  0.06845427  1
  O  O477  1  0.97759237  0.91714968  0.31595255  1
  O  O478  1  0.97921081  0.91672668  0.56853251  1
  O  O479  1  0.97866053  0.91717701  0.81818445  1
  O  O480  1  0.07383833  0.31253439  0.07449955  1
  O  O481  1  0.07394261  0.31389177  0.32593120  1
  O  O482  1  0.07307079  0.31281546  0.57532165  1
  O  O483  1  0.07298956  0.31319549  0.82507620  1
  O  O484  1  0.07290208  0.64584984  0.07486761  1
  O  O485  1  0.07382762  0.64521904  0.32465800  1
  O  O486  1  0.07236701  0.64710802  0.57254269  1
  O  O487  1  0.07333507  0.64800464  0.82418169  1
  O  O488  1  0.07431758  0.97970874  0.07597879  1
  O  O489  1  0.07260954  0.98067460  0.32394811  1
  O  O490  1  0.07455736  0.98046501  0.57532802  1
  O  O491  1  0.07411313  0.98066710  0.82533127  1
  O  O492  1  0.57323042  0.31452196  0.07378872  1
  O  O493  1  0.57227476  0.31442039  0.32366699  1
  O  O494  1  0.57258215  0.31487405  0.57487305  1
  O  O495  1  0.57271245  0.31373968  0.82339454  1
  O  O496  1  0.57290846  0.64487894  0.07381303  1
  O  O497  1  0.57268220  0.64724044  0.32422587  1
  O  O498  1  0.57224091  0.64619519  0.57404337  1
  O  O499  1  0.57176397  0.64605615  0.82295648  1
  O  O500  1  0.57272963  0.98141802  0.07341079  1
  O  O501  1  0.57425430  0.97969028  0.32566960  1
  O  O502  1  0.57325070  0.97986203  0.57639553  1
  O  O503  1  0.57130536  0.98008082  0.82248968  1
  O  O504  1  0.42694282  0.02116883  0.17535619  1
  O  O505  1  0.42661820  0.02015095  0.42452058  1
  O  O506  1  0.42761713  0.01997267  0.67722052  1
  O  O507  1  0.42719115  0.01845261  0.92553753  1
  O  O508  1  0.42709299  0.35177298  0.17612444  1
  O  O509  1  0.42704643  0.35290668  0.42712302  1
  O  O510  1  0.42701355  0.35324354  0.67680487  1
  O  O511  1  0.42818815  0.35241248  0.92622573  1
  O  O512  1  0.42736799  0.68418255  0.17558271  1
  O  O513  1  0.42657227  0.68466002  0.42675925  1
  O  O514  1  0.42851874  0.68476628  0.67724312  1
  O  O515  1  0.42617258  0.68584609  0.92344449  1
  O  O516  1  0.92635964  0.01907816  0.17584421  1
  O  O517  1  0.92663328  0.02089281  0.42635816  1
  O  O518  1  0.92718817  0.02159832  0.67546933  1
  O  O519  1  0.92726375  0.02168991  0.92490895  1
  O  O520  1  0.92735078  0.35453716  0.17438338  1
  O  O521  1  0.92597595  0.35507400  0.42477027  1
  O  O522  1  0.92605728  0.35378592  0.67393945  1
  O  O523  1  0.92669064  0.35469039  0.92514761  1
  O  O524  1  0.92673840  0.68730129  0.17544099  1
  O  O525  1  0.92728439  0.68589224  0.42450255  1
  O  O526  1  0.92675226  0.68536375  0.67546106  1
  O  O527  1  0.92540127  0.68686941  0.92507078  1
  O  O528  1  0.17655545  0.01937354  0.20110124  1
  O  O529  1  0.17750495  0.02074449  0.45055216  1
  O  O530  1  0.17758796  0.02120296  0.70008128  1
  O  O531  1  0.17756079  0.01831301  0.94918245  1
  O  O532  1  0.17736308  0.35106183  0.19950245  1
  O  O533  1  0.17701304  0.35408461  0.45107521  1
  O  O534  1  0.17668445  0.35422183  0.70018532  1
  O  O535  1  0.17755352  0.35320873  0.94830248  1
  O  O536  1  0.17816171  0.68492611  0.19835356  1
  O  O537  1  0.17609735  0.68573420  0.45004660  1
  O  O538  1  0.17729236  0.68515607  0.70003656  1
  O  O539  1  0.17657075  0.68742498  0.95029442  1
  O  O540  1  0.67587779  0.01973950  0.19993276  1
  O  O541  1  0.67561103  0.02056914  0.45112263  1
  O  O542  1  0.67766852  0.01970423  0.69844245  1
  O  O543  1  0.67646923  0.01871783  0.94757871  1
  O  O544  1  0.67674241  0.35510169  0.19924513  1
  O  O545  1  0.67583418  0.35390345  0.44979878  1
  O  O546  1  0.67658435  0.35233172  0.69843440  1
  O  O547  1  0.67683736  0.35258987  0.94915769  1
  O  O548  1  0.67640039  0.68569896  0.19859228  1
  O  O549  1  0.67749928  0.68714757  0.44802245  1
  O  O550  1  0.67648336  0.68604239  0.69897617  1
  O  O551  1  0.67595325  0.68728422  0.94871103  1
  O  O552  1  0.32295621  0.31489905  0.05123034  1
  O  O553  1  0.32352342  0.31201682  0.30121926  1
  O  O554  1  0.32329207  0.31261108  0.55046023  1
  O  O555  1  0.32298393  0.31548413  0.80094563  1
  O  O556  1  0.32306555  0.64731961  0.05050564  1
  O  O557  1  0.32347927  0.64440852  0.30117718  1
  O  O558  1  0.32179756  0.64625052  0.55231846  1
  O  O559  1  0.32295505  0.64528085  0.80017490  1
  O  O560  1  0.32344783  0.97854101  0.05009725  1
  O  O561  1  0.32452151  0.97877092  0.29919858  1
  O  O562  1  0.32512250  0.97981306  0.55059881  1
  O  O563  1  0.32212038  0.98001791  0.80236703  1
  O  O564  1  0.82444817  0.31342543  0.04919753  1
  O  O565  1  0.82368888  0.31453971  0.29964053  1
  O  O566  1  0.82174850  0.31471785  0.55153767  1
  O  O567  1  0.82278662  0.31501058  0.80008631  1
  O  O568  1  0.82208358  0.64754747  0.05095264  1
  O  O569  1  0.82273946  0.64862161  0.30001306  1
  O  O570  1  0.82238755  0.64933045  0.55039125  1
  O  O571  1  0.82357709  0.64689018  0.79967059  1
  O  O572  1  0.82342384  0.98007118  0.04914448  1
  O  O573  1  0.82293219  0.97930440  0.30059887  1
  O  O574  1  0.82364046  0.98145928  0.55088520  1
  O  O575  1  0.82232763  0.98035869  0.80109889  1
  O  O576  1  0.42685858  0.14840536  0.17532087  1
  O  O577  1  0.42609856  0.14710088  0.42558177  1
  O  O578  1  0.42843130  0.14746648  0.67759424  1
  O  O579  1  0.42670284  0.14546508  0.92468144  1
  O  O580  1  0.42660066  0.47855379  0.17535389  1
  O  O581  1  0.42837688  0.48023824  0.42728483  1
  O  O582  1  0.42797659  0.48030127  0.67672578  1
  O  O583  1  0.42799718  0.47965118  0.92592395  1
  O  O584  1  0.42739504  0.81155020  0.17532259  1
  O  O585  1  0.42737544  0.81165514  0.42548980  1
  O  O586  1  0.42710454  0.81216150  0.67623211  1
  O  O587  1  0.42614985  0.81260968  0.92426909  1
  O  O588  1  0.92663367  0.14620139  0.17568506  1
  O  O589  1  0.92643794  0.14812407  0.42568018  1
  O  O590  1  0.92702614  0.14873552  0.67642186  1
  O  O591  1  0.92691230  0.14884627  0.92638651  1
  O  O592  1  0.92714115  0.48168875  0.17541956  1
  O  O593  1  0.92645205  0.48213131  0.42578041  1
  O  O594  1  0.92557665  0.48067880  0.67401588  1
  O  O595  1  0.92695037  0.48195316  0.92528531  1
  O  O596  1  0.92725887  0.81457426  0.17646491  1
  O  O597  1  0.92766963  0.81301887  0.42516120  1
  O  O598  1  0.92709835  0.81250853  0.67424801  1
  O  O599  1  0.92634645  0.81373020  0.92400637  1
  O  O600  1  0.07332516  0.18525156  0.07463138  1
  O  O601  1  0.07400855  0.18698645  0.32545535  1
  O  O602  1  0.07314433  0.18569936  0.57409666  1
  O  O603  1  0.07323384  0.18607027  0.82411403  1
  O  O604  1  0.07382314  0.51874529  0.07334497  1
  O  O605  1  0.07285483  0.51832337  0.32435345  1
  O  O606  1  0.07151460  0.51969203  0.57367703  1
  O  O607  1  0.07295711  0.52091812  0.82380597  1
  O  O608  1  0.07352177  0.85298062  0.07583277  1
  O  O609  1  0.07235433  0.85296838  0.32377226  1
  O  O610  1  0.07481564  0.85346632  0.57547791  1
  O  O611  1  0.07404629  0.85360497  0.82517650  1
  O  O612  1  0.57331287  0.18773103  0.07418602  1
  O  O613  1  0.57220350  0.18702362  0.32372086  1
  O  O614  1  0.57223978  0.18795569  0.57553093  1
  O  O615  1  0.57153505  0.18640886  0.82320144  1
  O  O616  1  0.57287135  0.51784193  0.07389742  1
  O  O617  1  0.57296913  0.52032800  0.32546738  1
  O  O618  1  0.57123219  0.51898934  0.57343443  1
  O  O619  1  0.57265411  0.51874392  0.82258603  1
  O  O620  1  0.57306199  0.85406519  0.07386045  1
  O  O621  1  0.57397155  0.85262349  0.32511959  1
  O  O622  1  0.57402770  0.85301564  0.57600580  1
  O  O623  1  0.57208557  0.85275563  0.82379351  1
  O  O624  1  0.32299290  0.18764610  0.04940765  1
  O  O625  1  0.32309246  0.18496440  0.30080230  1
  O  O626  1  0.32356235  0.18549043  0.55232798  1
  O  O627  1  0.32402428  0.18842256  0.80107490  1
  O  O628  1  0.32351369  0.52020462  0.05030380  1
  O  O629  1  0.32341024  0.51733162  0.30115515  1
  O  O630  1  0.32220243  0.51891140  0.55256596  1
  O  O631  1  0.32287651  0.51839521  0.80117869  1
  O  O632  1  0.32372832  0.85152466  0.05040368  1
  O  O633  1  0.32426719  0.85175232  0.30017041  1
  O  O634  1  0.32480653  0.85283314  0.55054671  1
  O  O635  1  0.32208372  0.85235922  0.80171912  1
  O  O636  1  0.82325371  0.18648695  0.04867300  1
  O  O637  1  0.82387913  0.18746069  0.30017286  1
  O  O638  1  0.82143830  0.18720060  0.55236144  1
  O  O639  1  0.82270298  0.18800606  0.79915967  1
  O  O640  1  0.82161410  0.51997466  0.05146907  1
  O  O641  1  0.82240098  0.52175896  0.30025055  1
  O  O642  1  0.82234238  0.52217631  0.54890812  1
  O  O643  1  0.82366198  0.52012324  0.79856823  1
  O  O644  1  0.82374629  0.85338410  0.04888334  1
  O  O645  1  0.82305590  0.85201413  0.30127299  1
  O  O646  1  0.82371628  0.85439815  0.55069910  1
  O  O647  1  0.82172098  0.85277433  0.80047900  1
  O  O648  1  0.17602364  0.14622108  0.20006178  1
  O  O649  1  0.17741540  0.14794980  0.44934526  1
  O  O650  1  0.17805325  0.14836649  0.70068071  1
  O  O651  1  0.17696725  0.14562822  0.95021942  1
  O  O652  1  0.17672401  0.47808053  0.19957680  1
  O  O653  1  0.17741811  0.48120238  0.44914986  1
  O  O654  1  0.17659328  0.48102753  0.69945287  1
  O  O655  1  0.17818874  0.48059345  0.94914600  1
  O  O656  1  0.17846910  0.81257574  0.19873694  1
  O  O657  1  0.17670488  0.81259519  0.45080056  1
  O  O658  1  0.17719041  0.81238593  0.70006578  1
  O  O659  1  0.17713295  0.81432400  0.94940444  1
  O  O660  1  0.67573246  0.14687277  0.19942611  1
  O  O661  1  0.67583310  0.14736538  0.45100935  1
  O  O662  1  0.67861405  0.14723930  0.69885046  1
  O  O663  1  0.67583109  0.14583563  0.94841648  1
  O  O664  1  0.67664454  0.48236108  0.19835992  1
  O  O665  1  0.67553174  0.48087059  0.45105318  1
  O  O666  1  0.67623857  0.47943371  0.69958728  1
  O  O667  1  0.67704389  0.47970980  0.94872547  1
  O  O668  1  0.67673004  0.81258187  0.19943303  1
  O  O669  1  0.67803067  0.81451413  0.44878542  1
  O  O670  1  0.67661960  0.81315249  0.69901163  1
  O  O671  1  0.67601407  0.81443975  0.94844831  1
