# generated using pymatgen
data_Na2MnFe(PO4)2
_symmetry_space_group_name_H-M   'P 1'
_cell_length_a   22.34305465
_cell_length_b   20.09370170
_cell_length_c   19.45093770
_cell_angle_alpha   90.02679078
_cell_angle_beta   90.05770733
_cell_angle_gamma   89.99797099
_symmetry_Int_Tables_number   1
_chemical_formula_structural   Na2MnFe(PO4)2
_chemical_formula_sum   'Na96 Mn48 Fe48 P96 O384'
_cell_volume   8732.58402940
_cell_formula_units_Z   48
loop_
 _symmetry_equiv_pos_site_id
 _symmetry_equiv_pos_as_xyz
  1  'x, y, z'
loop_
 _atom_site_type_symbol
 _atom_site_label
 _atom_site_symmetry_multiplicity
 _atom_site_fract_x
 _atom_site_fract_y
 _atom_site_fract_z
 _atom_site_occupancy
  Na  Na0  1  0.13947147  0.25015198  0.24442223  1
  Na  Na1  1  0.14009080  0.25028558  0.49385524  1
  Na  Na2  1  0.13977724  0.25022401  0.74325742  1
  Na  Na3  1  0.13953628  0.24982392  0.99461566  1
  Na  Na4  1  0.13954984  0.58240668  0.24443885  1
  Na  Na5  1  0.13991179  0.58291164  0.49260496  1
  Na  Na6  1  0.14027613  0.58306209  0.74287455  1
  Na  Na7  1  0.13966721  0.58408632  0.99313486  1
  Na  Na8  1  0.13980915  0.91637006  0.24513917  1
  Na  Na9  1  0.13943694  0.91667971  0.49404630  1
  Na  Na10  1  0.13985224  0.91653870  0.74339420  1
  Na  Na11  1  0.14007352  0.91665350  0.99432185  1
  Na  Na12  1  0.63977046  0.24961005  0.24268191  1
  Na  Na13  1  0.64054887  0.24985225  0.49343066  1
  Na  Na14  1  0.64073709  0.24961329  0.74416212  1
  Na  Na15  1  0.64015345  0.25081781  0.99376680  1
  Na  Na16  1  0.64038289  0.58207586  0.24317657  1
  Na  Na17  1  0.64064263  0.58323332  0.49306147  1
  Na  Na18  1  0.64072835  0.58219765  0.74314381  1
  Na  Na19  1  0.64043000  0.58421434  0.99378443  1
  Na  Na20  1  0.64056109  0.91605388  0.24353195  1
  Na  Na21  1  0.64014338  0.91728202  0.49386058  1
  Na  Na22  1  0.64043684  0.91607052  0.74316587  1
  Na  Na23  1  0.64106938  0.91816605  0.99404169  1
  Na  Na24  1  0.35989989  0.08329638  0.00562377  1
  Na  Na25  1  0.36009341  0.08308055  0.25691116  1
  Na  Na26  1  0.35968843  0.08238839  0.50668270  1
  Na  Na27  1  0.35917791  0.08275571  0.75537154  1
  Na  Na28  1  0.36022630  0.41621937  0.00595042  1
  Na  Na29  1  0.36023947  0.41624100  0.25683723  1
  Na  Na30  1  0.35974111  0.41579845  0.50516333  1
  Na  Na31  1  0.36037234  0.41565280  0.75570495  1
  Na  Na32  1  0.36011326  0.74957699  0.00569930  1
  Na  Na33  1  0.36011417  0.74875459  0.25664348  1
  Na  Na34  1  0.36001023  0.74929444  0.50539141  1
  Na  Na35  1  0.36014686  0.75024177  0.75556633  1
  Na  Na36  1  0.85961448  0.08584912  0.00713589  1
  Na  Na37  1  0.85996484  0.08427108  0.25742409  1
  Na  Na38  1  0.85946994  0.08450757  0.50697197  1
  Na  Na39  1  0.85913593  0.08396304  0.75591734  1
  Na  Na40  1  0.86014304  0.41780003  0.00691906  1
  Na  Na41  1  0.85977188  0.41644891  0.25708270  1
  Na  Na42  1  0.85945391  0.41716417  0.50660612  1
  Na  Na43  1  0.86034826  0.41574048  0.75695259  1
  Na  Na44  1  0.85982563  0.75106620  0.00650493  1
  Na  Na45  1  0.85935142  0.74972111  0.25695489  1
  Na  Na46  1  0.85996963  0.75107538  0.50741313  1
  Na  Na47  1  0.85992421  0.75018886  0.75569389  1
  Na  Na48  1  0.10897901  0.08354108  0.12017347  1
  Na  Na49  1  0.10873018  0.08436136  0.36971021  1
  Na  Na50  1  0.10879030  0.08341324  0.61795743  1
  Na  Na51  1  0.10879657  0.08435185  0.86887811  1
  Na  Na52  1  0.10919780  0.41687122  0.12026366  1
  Na  Na53  1  0.10917381  0.41648639  0.36828371  1
  Na  Na54  1  0.10923061  0.41653529  0.61802147  1
  Na  Na55  1  0.10898713  0.41718286  0.86863246  1
  Na  Na56  1  0.10903645  0.74947803  0.11907359  1
  Na  Na57  1  0.10890693  0.75077052  0.36931936  1
  Na  Na58  1  0.10914631  0.75119129  0.61780911  1
  Na  Na59  1  0.10931842  0.74952852  0.86823041  1
  Na  Na60  1  0.60966247  0.08427637  0.11844755  1
  Na  Na61  1  0.60952892  0.08208953  0.36841290  1
  Na  Na62  1  0.61032413  0.08319522  0.61809206  1
  Na  Na63  1  0.60983300  0.08442934  0.86826682  1
  Na  Na64  1  0.60980745  0.41593089  0.11906698  1
  Na  Na65  1  0.61019066  0.41609201  0.36669205  1
  Na  Na66  1  0.61007832  0.41659729  0.61864234  1
  Na  Na67  1  0.60989661  0.41528179  0.86881562  1
  Na  Na68  1  0.60995732  0.74953333  0.11920172  1
  Na  Na69  1  0.60933948  0.74859711  0.36821951  1
  Na  Na70  1  0.60977347  0.75047640  0.61851627  1
  Na  Na71  1  0.61000960  0.74884407  0.86840829  1
  Na  Na72  1  0.39096415  0.25058769  0.13106775  1
  Na  Na73  1  0.39044688  0.24945273  0.38118557  1
  Na  Na74  1  0.39001286  0.25054623  0.63120826  1
  Na  Na75  1  0.39051923  0.25015479  0.88003411  1
  Na  Na76  1  0.39115556  0.58301797  0.13140867  1
  Na  Na77  1  0.39089621  0.58233039  0.37983631  1
  Na  Na78  1  0.39109445  0.58340626  0.63050244  1
  Na  Na79  1  0.39133866  0.58151889  0.88056902  1
  Na  Na80  1  0.39090267  0.91605656  0.13127719  1
  Na  Na81  1  0.39077015  0.91440268  0.38142232  1
  Na  Na82  1  0.39040144  0.91612378  0.63107925  1
  Na  Na83  1  0.39053224  0.91494604  0.88129939  1
  Na  Na84  1  0.89065234  0.25066330  0.13233123  1
  Na  Na85  1  0.88996267  0.25098394  0.38199758  1
  Na  Na86  1  0.88950005  0.25089357  0.63221586  1
  Na  Na87  1  0.88987218  0.25196780  0.88211202  1
  Na  Na88  1  0.89045763  0.58308961  0.13150150  1
  Na  Na89  1  0.89027523  0.58355641  0.38202719  1
  Na  Na90  1  0.89083565  0.58388335  0.63094629  1
  Na  Na91  1  0.89097881  0.58315051  0.88092124  1
  Na  Na92  1  0.89028197  0.91832742  0.13229532  1
  Na  Na93  1  0.89033490  0.91848862  0.38243081  1
  Na  Na94  1  0.89005329  0.91744930  0.63108368  1
  Na  Na95  1  0.89025960  0.91612065  0.88143213  1
  Mn  Mn96  1  0.75028221  0.16762486  0.12559842  1
  Mn  Mn97  1  -0.00107727  0.16788568  0.74998853  1
  Mn  Mn98  1  0.25003298  0.83285113  0.12514938  1
  Mn  Mn99  1  0.74942230  0.16674906  0.37526613  1
  Mn  Mn100  1  0.50035265  0.50032085  0.49898610  1
  Mn  Mn101  1  0.50017819  0.83256360  0.49958925  1
  Mn  Mn102  1  0.24967428  -0.00115487  0.37632875  1
  Mn  Mn103  1  -0.00014633  0.33393004  0.00096026  1
  Mn  Mn104  1  0.74981579  0.83424617  0.37549831  1
  Mn  Mn105  1  0.25009330  0.16652683  0.12544611  1
  Mn  Mn106  1  0.50067281  0.66600407  0.74982041  1
  Mn  Mn107  1  0.50072132  0.00020709  0.00034104  1
  Mn  Mn108  1  0.49971934  -0.00061847  0.75011026  1
  Mn  Mn109  1  0.24984929  0.49997006  0.87425634  1
  Mn  Mn110  1  0.50072785  0.49910938  0.00030717  1
  Mn  Mn111  1  0.50023337  0.33327365  0.49904304  1
  Mn  Mn112  1  0.25013532  0.66713034  0.62379675  1
  Mn  Mn113  1  0.24988735  -0.00080606  0.62527765  1
  Mn  Mn114  1  0.74988408  0.83348744  0.62466565  1
  Mn  Mn115  1  0.24926097  -0.00078203  0.87476107  1
  Mn  Mn116  1  0.50037964  0.16563267  0.49993749  1
  Mn  Mn117  1  0.75023392  0.00100901  0.87473814  1
  Mn  Mn118  1  0.24982046  0.33330358  0.12525012  1
  Mn  Mn119  1  0.00023851  0.66670234  0.74934310  1
  Mn  Mn120  1  0.25058761  0.49890551  0.62375733  1
  Mn  Mn121  1  0.49952913  0.16709186  0.74911776  1
  Mn  Mn122  1  0.25032691  -0.00055060  0.12540473  1
  Mn  Mn123  1  0.25084726  0.66765333  0.87380555  1
  Mn  Mn124  1  0.75040124  0.49950170  0.62503477  1
  Mn  Mn125  1  0.74983319  0.66609932  0.37532549  1
  Mn  Mn126  1  -0.00080478  -0.00006747  0.74958735  1
  Mn  Mn127  1  0.75085511  0.83431012  0.12560211  1
  Mn  Mn128  1  0.49990488  -0.00047391  0.24941953  1
  Mn  Mn129  1  0.24946374  0.66640709  0.37508138  1
  Mn  Mn130  1  0.75083882  0.66761745  0.87483078  1
  Mn  Mn131  1  -0.00064517  0.66626987  0.25042463  1
  Mn  Mn132  1  0.24996387  0.33304183  0.87445313  1
  Mn  Mn133  1  0.50112444  0.83168866  0.00060862  1
  Mn  Mn134  1  0.24949724  0.16711190  0.37588445  1
  Mn  Mn135  1  -0.00060432  0.33393251  0.50017053  1
  Mn  Mn136  1  0.25005669  0.16645782  0.87459239  1
  Mn  Mn137  1  0.24980353  0.49963719  0.12480201  1
  Mn  Mn138  1  0.00030813  0.83259513  0.00086523  1
  Mn  Mn139  1  0.74983442  0.49971728  0.12484128  1
  Mn  Mn140  1  -0.00113218  0.83429702  0.25039630  1
  Mn  Mn141  1  0.24961258  0.66627267  0.12503528  1
  Mn  Mn142  1  0.75060639  0.49945091  0.87454890  1
  Mn  Mn143  1  -0.00019262  0.00083899  0.00060080  1
  Fe  Fe144  1  0.50022246  0.49972073  0.24941461  1
  Fe  Fe145  1  0.75031678  0.49963267  0.37514287  1
  Fe  Fe146  1  -0.00028045  0.83341804  0.74962249  1
  Fe  Fe147  1  0.74993139  0.00049412  0.37540093  1
  Fe  Fe148  1  0.50025134  0.33257221  0.24901098  1
  Fe  Fe149  1  0.50037880  0.66589701  0.24969429  1
  Fe  Fe150  1  0.00032220  0.50052324  0.75008241  1
  Fe  Fe151  1  0.50078826  0.33350420  0.75005693  1
  Fe  Fe152  1  0.74994611  0.00037638  0.62551822  1
  Fe  Fe153  1  0.24983783  0.83334000  0.87479969  1
  Fe  Fe154  1  -0.00024853  0.16742461  0.00077929  1
  Fe  Fe155  1  0.24965226  0.33318146  0.62432164  1
  Fe  Fe156  1  0.75044254  0.00113575  0.12474672  1
  Fe  Fe157  1  -0.00010371  0.66705490  0.50033103  1
  Fe  Fe158  1  -0.00036463  0.16776261  0.50008703  1
  Fe  Fe159  1  0.75013092  0.66698569  0.12483592  1
  Fe  Fe160  1  -0.00049433  0.33363373  0.25058116  1
  Fe  Fe161  1  0.49973275  0.33299983  0.00000150  1
  Fe  Fe162  1  0.74998060  0.16728731  0.87483756  1
  Fe  Fe163  1  -0.00036966  0.50005843  0.50022041  1
  Fe  Fe164  1  0.49965455  0.16643363  0.24912887  1
  Fe  Fe165  1  0.50058857  0.66588743  0.49917379  1
  Fe  Fe166  1  0.74988442  0.66657684  0.62504059  1
  Fe  Fe167  1  -0.00075036  0.00089783  0.50018565  1
  Fe  Fe168  1  0.74991394  0.33314945  0.37551113  1
  Fe  Fe169  1  0.50027122  0.66582442  0.00042672  1
  Fe  Fe170  1  0.50049204  0.83220267  0.25024951  1
  Fe  Fe171  1  0.74975373  0.16711075  0.62505151  1
  Fe  Fe172  1  -0.00012284  0.00127073  0.25114346  1
  Fe  Fe173  1  0.49993011  -0.00101673  0.49927933  1
  Fe  Fe174  1  -0.00039590  0.66588428  -0.00044682  1
  Fe  Fe175  1  0.50051931  0.83278351  0.74980571  1
  Fe  Fe176  1  0.25015390  0.33292907  0.37528675  1
  Fe  Fe177  1  -0.00055659  0.16697817  0.25097567  1
  Fe  Fe178  1  -0.00001128  0.49999482  0.00033901  1
  Fe  Fe179  1  0.24973109  0.83278548  0.37498431  1
  Fe  Fe180  1  -0.00046782  0.83455298  0.49949621  1
  Fe  Fe181  1  0.74977708  0.33322329  0.62504450  1
  Fe  Fe182  1  0.24982622  0.83312997  0.62481640  1
  Fe  Fe183  1  0.49988182  0.16714345  -0.00068388  1
  Fe  Fe184  1  0.74991921  0.83402474  0.87501900  1
  Fe  Fe185  1  0.50086512  0.49937785  0.75038612  1
  Fe  Fe186  1  0.75021202  0.33366739  0.12530724  1
  Fe  Fe187  1  0.24937952  0.16668206  0.62490674  1
  Fe  Fe188  1  0.75015438  0.33295649  0.87538707  1
  Fe  Fe189  1  0.25002668  0.49937273  0.37472859  1
  Fe  Fe190  1  0.00020912  0.33423871  0.75049772  1
  Fe  Fe191  1  -0.00012439  0.50051217  0.25049618  1
  P  P192  1  0.04158327  0.24902835  0.10405073  1
  P  P193  1  0.04067495  0.25017645  0.35236229  1
  P  P194  1  0.04156934  0.24983571  0.60269360  1
  P  P195  1  0.04186118  0.25184994  0.85296663  1
  P  P196  1  0.04128040  0.58303920  0.10194395  1
  P  P197  1  0.04164162  0.58242342  0.35372137  1
  P  P198  1  0.04147235  0.58308041  0.60161254  1
  P  P199  1  0.04243013  0.58239561  0.85267035  1
  P  P200  1  0.04239965  0.91750682  0.10411549  1
  P  P201  1  0.04109713  0.91879994  0.35378754  1
  P  P202  1  0.04071506  0.91702789  0.60160826  1
  P  P203  1  0.04169270  0.91561022  0.85223758  1
  P  P204  1  0.54136416  0.24987727  0.10181517  1
  P  P205  1  0.54135442  0.24905197  0.35076230  1
  P  P206  1  0.54277959  0.25047753  0.60297301  1
  P  P207  1  0.54210643  0.25095791  0.85276702  1
  P  P208  1  0.54241747  0.58398882  0.10327787  1
  P  P209  1  0.54215477  0.58296803  0.35123563  1
  P  P210  1  0.54278674  0.58426589  0.60220135  1
  P  P211  1  0.54324660  0.58144297  0.85274372  1
  P  P212  1  0.54327030  0.91594422  0.10375780  1
  P  P213  1  0.54233089  0.91493765  0.35238885  1
  P  P214  1  0.54229543  0.91735075  0.60235990  1
  P  P215  1  0.54273962  0.91492259  0.85244839  1
  P  P216  1  0.45774962  0.08476155  0.14671270  1
  P  P217  1  0.45766133  0.08146477  0.39698798  1
  P  P218  1  0.45725652  0.08256317  0.64604214  1
  P  P219  1  0.45800607  0.08417788  0.89738470  1
  P  P220  1  0.45888897  0.41619378  0.14794183  1
  P  P221  1  0.45804293  0.41657308  0.39516813  1
  P  P222  1  0.45926203  0.41694519  0.64814336  1
  P  P223  1  0.45834025  0.41496097  0.89700932  1
  P  P224  1  0.45874667  0.74908229  0.14835012  1
  P  P225  1  0.45830222  0.74761746  0.39646119  1
  P  P226  1  0.45829443  0.75075613  0.64704016  1
  P  P227  1  0.45852837  0.74769029  0.89745849  1
  P  P228  1  0.95808562  0.08422371  0.14896358  1
  P  P229  1  0.95820472  0.08462710  0.39836877  1
  P  P230  1  0.95693584  0.08394173  0.64605530  1
  P  P231  1  0.95728433  0.08534153  0.89812932  1
  P  P232  1  0.95862806  0.41738279  0.14883457  1
  P  P233  1  0.95762107  0.41830888  0.39714514  1
  P  P234  1  0.95864013  0.41747124  0.64854801  1
  P  P235  1  0.95788814  0.41831180  0.89743691  1
  P  P236  1  0.95671441  0.74960446  0.14705695  1
  P  P237  1  0.95797578  0.75054679  0.39890858  1
  P  P238  1  0.95810263  0.75167687  0.64642887  1
  P  P239  1  0.95788068  0.74863990  0.89734242  1
  P  P240  1  0.20718146  0.08293092  0.22891640  1
  P  P241  1  0.20710704  0.08346821  0.47931122  1
  P  P242  1  0.20700299  0.08405263  0.72701190  1
  P  P243  1  0.20666121  0.08307207  0.97808702  1
  P  P244  1  0.20739080  0.41658555  0.22944177  1
  P  P245  1  0.20833645  0.41590261  0.47640580  1
  P  P246  1  0.20754447  0.41537811  0.72658050  1
  P  P247  1  0.20671247  0.41663664  0.97780592  1
  P  P248  1  0.20667460  0.74975092  0.22877303  1
  P  P249  1  0.20739970  0.75153257  0.47772953  1
  P  P250  1  0.20763931  0.75134497  0.72708183  1
  P  P251  1  0.20733771  0.75103998  0.97699118  1
  P  P252  1  0.70797125  0.08218953  0.22775376  1
  P  P253  1  0.70780659  0.08244860  0.47833781  1
  P  P254  1  0.70866177  0.08387155  0.72682376  1
  P  P255  1  0.70800013  0.08550036  0.97753444  1
  P  P256  1  0.70814027  0.41523092  0.22827640  1
  P  P257  1  0.70839217  0.41635869  0.47675620  1
  P  P258  1  0.70835672  0.41468582  0.72780490  1
  P  P259  1  0.70823740  0.41559018  0.97766883  1
  P  P260  1  0.70816256  0.74883945  0.22744043  1
  P  P261  1  0.70731121  0.75011321  0.47849458  1
  P  P262  1  0.70784496  0.74901597  0.72746460  1
  P  P263  1  0.70822173  0.75199423  0.97785314  1
  P  P264  1  0.29310062  0.24987107  0.02187881  1
  P  P265  1  0.29231167  0.25089195  0.27301832  1
  P  P266  1  0.29139405  0.25017390  0.52312974  1
  P  P267  1  0.29250136  0.24966893  0.77024506  1
  P  P268  1  0.29299352  0.58341593  0.02145482  1
  P  P269  1  0.29212200  0.58187378  0.27266287  1
  P  P270  1  0.29275766  0.58264283  0.52059563  1
  P  P271  1  0.29344898  0.58323581  0.77090016  1
  P  P272  1  0.29317842  0.91599474  0.02148693  1
  P  P273  1  0.29257456  0.91499750  0.27318129  1
  P  P274  1  0.29213993  0.91459771  0.52230203  1
  P  P275  1  0.29216913  0.91496269  0.77201017  1
  P  P276  1  0.79239835  0.25212948  0.02246456  1
  P  P277  1  0.79173801  0.25139199  0.27288547  1
  P  P278  1  0.79112380  0.25059757  0.52336775  1
  P  P279  1  0.79146073  0.25002343  0.77285932  1
  P  P280  1  0.79231996  0.58482057  0.02259152  1
  P  P281  1  0.79209601  0.58171671  0.27245169  1
  P  P282  1  0.79218361  0.58415535  0.52246401  1
  P  P283  1  0.79302874  0.58339791  0.77126555  1
  P  P284  1  0.79274054  0.91889895  0.02246844  1
  P  P285  1  0.79229676  0.91861212  0.27274298  1
  P  P286  1  0.79182670  0.91913239  0.52249890  1
  P  P287  1  0.79210440  0.91602397  0.77227664  1
  O  O288  1  0.03594999  0.24908801  0.18389520  1
  O  O289  1  0.03580231  0.25029817  0.43231750  1
  O  O290  1  0.03660589  0.25071539  0.68258160  1
  O  O291  1  0.03689692  0.25138464  0.93292029  1
  O  O292  1  0.03595124  0.58283475  0.18189169  1
  O  O293  1  0.03621303  0.58267706  0.43353922  1
  O  O294  1  0.03676317  0.58296542  0.68159131  1
  O  O295  1  0.03709447  0.58261371  0.93250886  1
  O  O296  1  0.03690892  0.91813674  0.18403245  1
  O  O297  1  0.03526568  0.91867557  0.43365693  1
  O  O298  1  0.03570579  0.91629525  0.68155060  1
  O  O299  1  0.03683711  0.91585902  0.93218701  1
  O  O300  1  0.53609611  0.24945206  0.18171083  1
  O  O301  1  0.53688136  0.24933653  0.43074919  1
  O  O302  1  0.53758855  0.25110008  0.68287381  1
  O  O303  1  0.53672377  0.25069148  0.93262691  1
  O  O304  1  0.53682724  0.58387259  0.18313103  1
  O  O305  1  0.53690354  0.58358254  0.43118540  1
  O  O306  1  0.53793054  0.58350341  0.68209902  1
  O  O307  1  0.53817015  0.58190929  0.93264897  1
  O  O308  1  0.53777379  0.91548235  0.18366536  1
  O  O309  1  0.53687259  0.91558872  0.43231467  1
  O  O310  1  0.53722259  0.91669306  0.68228891  1
  O  O311  1  0.53795798  0.91516008  0.93243187  1
  O  O312  1  0.46329990  0.08494711  0.06681381  1
  O  O313  1  0.46261140  0.08209889  0.31704909  1
  O  O314  1  0.46249948  0.08177699  0.56611457  1
  O  O315  1  0.46293678  0.08384080  0.81740182  1
  O  O316  1  0.46372464  0.41553508  0.06798557  1
  O  O317  1  0.46319403  0.41664616  0.31532121  1
  O  O318  1  0.46413816  0.41711785  0.56813702  1
  O  O319  1  0.46391407  0.41533749  0.81716599  1
  O  O320  1  0.46404897  0.74851009  0.06842194  1
  O  O321  1  0.46382975  0.74798660  0.31662056  1
  O  O322  1  0.46326080  0.75049386  0.56713991  1
  O  O323  1  0.46375778  0.74834643  0.81756709  1
  O  O324  1  0.96323702  0.08455748  0.06903533  1
  O  O325  1  0.96372183  0.08451320  0.31848240  1
  O  O326  1  0.96235142  0.08395305  0.56619619  1
  O  O327  1  0.96216341  0.08506457  0.81816617  1
  O  O328  1  0.96359116  0.41725137  0.06889069  1
  O  O329  1  0.96296184  0.41803971  0.31733098  1
  O  O330  1  0.96362397  0.41774155  0.56857571  1
  O  O331  1  0.96327766  0.41796428  0.81760043  1
  O  O332  1  0.96194671  0.74901544  0.06713886  1
  O  O333  1  0.96261920  0.75017334  0.31889933  1
  O  O334  1  0.96348475  0.75168174  0.56657923  1
  O  O335  1  0.96314474  0.74914276  0.81740375  1
  O  O336  1  0.21185884  0.08303332  0.05808674  1
  O  O337  1  0.21214064  0.08299242  0.30892776  1
  O  O338  1  0.21244367  0.08391635  0.55923316  1
  O  O339  1  0.21187391  0.08369227  0.80702527  1
  O  O340  1  0.21160356  0.41665259  0.05784264  1
  O  O341  1  0.21280969  0.41676216  0.30936874  1
  O  O342  1  0.21351446  0.41532518  0.55637682  1
  O  O343  1  0.21238859  0.41589457  0.80654409  1
  O  O344  1  0.21207435  0.75033757  0.05702455  1
  O  O345  1  0.21168771  0.74996188  0.30876579  1
  O  O346  1  0.21279094  0.75170341  0.55767322  1
  O  O347  1  0.21284848  0.75148148  0.80703825  1
  O  O348  1  0.71324366  0.08508164  0.05745759  1
  O  O349  1  0.71297304  0.08200058  0.30773739  1
  O  O350  1  0.71286290  0.08260473  0.55822537  1
  O  O351  1  0.71368003  0.08470318  0.80677400  1
  O  O352  1  0.71325891  0.41572518  0.05765273  1
  O  O353  1  0.71357795  0.41554726  0.30813604  1
  O  O354  1  0.71356234  0.41614836  0.55672018  1
  O  O355  1  0.71373643  0.41470092  0.80770200  1
  O  O356  1  0.71364983  0.75142306  0.05778527  1
  O  O357  1  0.71319664  0.74899774  0.30738469  1
  O  O358  1  0.71248783  0.74963275  0.55843992  1
  O  O359  1  0.71312072  0.74981138  0.80738612  1
  O  O360  1  0.28751436  0.25052209  0.19305197  1
  O  O361  1  0.28629329  0.25073277  0.44312009  1
  O  O362  1  0.28703361  0.24957778  0.69031298  1
  O  O363  1  0.28822631  0.24989252  0.94187490  1
  O  O364  1  0.28722252  0.58232653  0.19266078  1
  O  O365  1  0.28727291  0.58216714  0.44069286  1
  O  O366  1  0.28845440  0.58318268  0.69089559  1
  O  O367  1  0.28826357  0.58362990  0.94141959  1
  O  O368  1  0.28781690  0.91549365  0.19316919  1
  O  O369  1  0.28687183  0.91441086  0.44237469  1
  O  O370  1  0.28702186  0.91494641  0.69201186  1
  O  O371  1  0.28796849  0.91561205  0.94150894  1
  O  O372  1  0.78687972  0.25143769  0.19294274  1
  O  O373  1  0.78614497  0.25054385  0.44341403  1
  O  O374  1  0.78609469  0.25005335  0.69297585  1
  O  O375  1  0.78712325  0.25181014  0.94259246  1
  O  O376  1  0.78696660  0.58216823  0.19252612  1
  O  O377  1  0.78674110  0.58314357  0.44253535  1
  O  O378  1  0.78754140  0.58364274  0.69134207  1
  O  O379  1  0.78745114  0.58454427  0.94263134  1
  O  O380  1  0.78745824  0.91876289  0.19275162  1
  O  O381  1  0.78649105  0.91939951  0.44255547  1
  O  O382  1  0.78677896  0.91644103  0.69234442  1
  O  O383  1  0.78730864  0.91816851  0.94255271  1
  O  O384  1  0.22853460  0.24983773  0.05656657  1
  O  O385  1  0.22784281  0.25137446  0.30810969  1
  O  O386  1  0.22719152  0.25031835  0.55899932  1
  O  O387  1  0.22824878  0.24967914  0.80587355  1
  O  O388  1  0.22836300  0.58311109  0.05600181  1
  O  O389  1  0.22776504  0.58173830  0.30789095  1
  O  O390  1  0.22848584  0.58279874  0.55599408  1
  O  O391  1  0.22893832  0.58371582  0.80566434  1
  O  O392  1  0.22874325  0.91621519  0.05658258  1
  O  O393  1  0.22805987  0.91479046  0.30824125  1
  O  O394  1  0.22784214  0.91487666  0.55789377  1
  O  O395  1  0.22777334  0.91472118  0.80741653  1
  O  O396  1  0.72820257  0.25228228  0.05850018  1
  O  O397  1  0.72742289  0.25136137  0.30837277  1
  O  O398  1  0.72700385  0.25110530  0.55927452  1
  O  O399  1  0.72750343  0.24986026  0.80946687  1
  O  O400  1  0.72799061  0.58473263  0.05803081  1
  O  O401  1  0.72785036  0.58145012  0.30808639  1
  O  O402  1  0.72802332  0.58451332  0.55837732  1
  O  O403  1  0.72883924  0.58338116  0.80681934  1
  O  O404  1  0.72857252  0.91893630  0.05844063  1
  O  O405  1  0.72791081  0.91825823  0.30804337  1
  O  O406  1  0.72769197  0.91881476  0.55840563  1
  O  O407  1  0.72792071  0.91603820  0.80815352  1
  O  O408  1  0.27169580  0.08299097  0.19408601  1
  O  O409  1  0.27135923  0.08325930  0.44390248  1
  O  O410  1  0.27140685  0.08400696  0.69187925  1
  O  O411  1  0.27110708  0.08273941  0.94307492  1
  O  O412  1  0.27164372  0.41663647  0.19380896  1
  O  O413  1  0.27254026  0.41589300  0.44054105  1
  O  O414  1  0.27202858  0.41467735  0.69150804  1
  O  O415  1  0.27128340  0.41662705  0.94313922  1
  O  O416  1  0.27118645  0.74939435  0.19391173  1
  O  O417  1  0.27162806  0.75119014  0.44200406  1
  O  O418  1  0.27199994  0.75124432  0.69163102  1
  O  O419  1  0.27186163  0.75184694  0.94191198  1
  O  O420  1  0.77229208  0.08259540  0.19220511  1
  O  O421  1  0.77199019  0.08303183  0.44244856  1
  O  O422  1  0.77269343  0.08339988  0.69075501  1
  O  O423  1  0.77219818  0.08567945  0.94172219  1
  O  O424  1  0.77223984  0.41512906  0.19205001  1
  O  O425  1  0.77256571  0.41639976  0.44082060  1
  O  O426  1  0.77254659  0.41470134  0.69195354  1
  O  O427  1  0.77252609  0.41546094  0.94215342  1
  O  O428  1  0.77246129  0.74881360  0.19196502  1
  O  O429  1  0.77164872  0.75031785  0.44330253  1
  O  O430  1  0.77206085  0.74862226  0.69163040  1
  O  O431  1  0.77245186  0.75254528  0.94201209  1
  O  O432  1  0.02216384  0.08424234  0.18534259  1
  O  O433  1  0.02212741  0.08480592  0.43509364  1
  O  O434  1  0.02105343  0.08401372  0.68207252  1
  O  O435  1  0.02166974  0.08547531  0.93358013  1
  O  O436  1  0.02262435  0.41768949  0.18517817  1
  O  O437  1  0.02177264  0.41845148  0.43333471  1
  O  O438  1  0.02277743  0.41713433  0.68470338  1
  O  O439  1  0.02197075  0.41835791  0.93379829  1
  O  O440  1  0.02098945  0.75017913  0.18260105  1
  O  O441  1  0.02220679  0.75089179  0.43454658  1
  O  O442  1  0.02217161  0.75180795  0.68280552  1
  O  O443  1  0.02206756  0.74791408  0.93340409  1
  O  O444  1  0.52196701  0.08463926  0.18271699  1
  O  O445  1  0.52204314  0.08114458  0.43257699  1
  O  O446  1  0.52154838  0.08287215  0.68151345  1
  O  O447  1  0.52236192  0.08457283  0.93289730  1
  O  O448  1  0.52301297  0.41708006  0.18394983  1
  O  O449  1  0.52232685  0.41664841  0.43080922  1
  O  O450  1  0.52345448  0.41701405  0.68411121  1
  O  O451  1  0.52241658  0.41459522  0.93344603  1
  O  O452  1  0.52288595  0.74934955  0.18458739  1
  O  O453  1  0.52238505  0.74778432  0.43282556  1
  O  O454  1  0.52256249  0.75089210  0.68287501  1
  O  O455  1  0.52282069  0.74712213  0.93329553  1
  O  O456  1  0.47737320  0.24997287  0.06518561  1
  O  O457  1  0.47706601  0.24859953  0.31524363  1
  O  O458  1  0.47844931  0.24984712  0.56754057  1
  O  O459  1  0.47803596  0.25158990  0.81638198  1
  O  O460  1  0.47837002  0.58375220  0.06684439  1
  O  O461  1  0.47806691  0.58253378  0.31491946  1
  O  O462  1  0.47843406  0.58452377  0.56653435  1
  O  O463  1  0.47897128  0.58123063  0.81693391  1
  O  O464  1  0.47908628  0.91602606  0.06804755  1
  O  O465  1  0.47815573  0.91445706  0.31638683  1
  O  O466  1  0.47805071  0.91741193  0.56652041  1
  O  O467  1  0.47828201  0.91457668  0.81716830  1
  O  O468  1  0.97755597  0.24918920  0.06749569  1
  O  O469  1  0.97656195  0.24975198  0.31631146  1
  O  O470  1  0.97721364  0.24941159  0.56706650  1
  O  O471  1  0.97751306  0.25259862  0.81734567  1
  O  O472  1  0.97720881  0.58333400  0.06550201  1
  O  O473  1  0.97750632  0.58174938  0.31745252  1
  O  O474  1  0.97724871  0.58296297  0.56579461  1
  O  O475  1  0.97825392  0.58242182  0.81647588  1
  O  O476  1  0.97817584  0.91691283  0.06845546  1
  O  O477  1  0.97710687  0.91924820  0.31720224  1
  O  O478  1  0.97661510  0.91735266  0.56545426  1
  O  O479  1  0.97730714  0.91535618  0.81676741  1
  O  O480  1  0.07301886  0.31256160  0.07633354  1
  O  O481  1  0.07074649  0.31431523  0.32397177  1
  O  O482  1  0.07253483  0.31324003  0.57409589  1
  O  O483  1  0.07273564  0.31533857  0.82448168  1
  O  O484  1  0.07207332  0.64679559  0.07385416  1
  O  O485  1  0.07233724  0.64630074  0.32565436  1
  O  O486  1  0.07168999  0.64722374  0.57344072  1
  O  O487  1  0.07372327  0.64575149  0.82425535  1
  O  O488  1  0.07341099  0.98078583  0.07543893  1
  O  O489  1  0.07240995  0.98207802  0.32542588  1
  O  O490  1  0.07152678  0.98097940  0.57404087  1
  O  O491  1  0.07247293  0.97940575  0.82429660  1
  O  O492  1  0.57228383  0.31368026  0.07396181  1
  O  O493  1  0.57158803  0.31298820  0.32217290  1
  O  O494  1  0.57376718  0.31372239  0.57420191  1
  O  O495  1  0.57338298  0.31416393  0.82411127  1
  O  O496  1  0.57307220  0.64748063  0.07446217  1
  O  O497  1  0.57308523  0.64642982  0.32284155  1
  O  O498  1  0.57318636  0.64802246  0.57374791  1
  O  O499  1  0.57454127  0.64473842  0.82451925  1
  O  O500  1  0.57421271  0.97970513  0.07598816  1
  O  O501  1  0.57350914  0.97835779  0.32430032  1
  O  O502  1  0.57272975  0.98111911  0.57391628  1
  O  O503  1  0.57359334  0.97873142  0.82474695  1
  O  O504  1  0.42671567  0.02091369  0.17419321  1
  O  O505  1  0.42714354  0.01769746  0.42532394  1
  O  O506  1  0.42590755  0.01953440  0.67484034  1
  O  O507  1  0.42722285  0.02036561  0.92515339  1
  O  O508  1  0.42870581  0.35228957  0.17666503  1
  O  O509  1  0.42697729  0.35311457  0.42364230  1
  O  O510  1  0.42855294  0.35311997  0.67596074  1
  O  O511  1  0.42712530  0.35171875  0.92559068  1
  O  O512  1  0.42766441  0.68565248  0.17666695  1
  O  O513  1  0.42773462  0.68398188  0.42509662  1
  O  O514  1  0.42700572  0.68731153  0.67489834  1
  O  O515  1  0.42780345  0.68401881  0.92573087  1
  O  O516  1  0.92760776  0.02026971  0.17702208  1
  O  O517  1  0.92733151  0.02099168  0.42668810  1
  O  O518  1  0.92586453  0.02050600  0.67451443  1
  O  O519  1  0.92634541  0.02159734  0.92587182  1
  O  O520  1  0.92833368  0.35327937  0.17705926  1
  O  O521  1  0.92659902  0.35463524  0.42531110  1
  O  O522  1  0.92791608  0.35357279  0.67641734  1
  O  O523  1  0.92662876  0.35494961  0.92585336  1
  O  O524  1  0.92576604  0.68630753  0.17578353  1
  O  O525  1  0.92761311  0.68668952  0.42734415  1
  O  O526  1  0.92702132  0.68797158  0.67423536  1
  O  O527  1  0.92694606  0.68505817  0.92548692  1
  O  O528  1  0.17633364  0.01935976  0.20074057  1
  O  O529  1  0.17608707  0.01977686  0.45151760  1
  O  O530  1  0.17585332  0.02037620  0.69928687  1
  O  O531  1  0.17545954  0.01968306  0.94982566  1
  O  O532  1  0.17631579  0.35303561  0.20119200  1
  O  O533  1  0.17714010  0.35247544  0.44804217  1
  O  O534  1  0.17647352  0.35205003  0.69811214  1
  O  O535  1  0.17579617  0.35306220  0.94969349  1
  O  O536  1  0.17566126  0.68615894  0.20046553  1
  O  O537  1  0.17623252  0.68768820  0.45037993  1
  O  O538  1  0.17673011  0.68747105  0.69923823  1
  O  O539  1  0.17688969  0.68727162  0.94852991  1
  O  O540  1  0.67727807  0.01893992  0.19855996  1
  O  O541  1  0.67733855  0.01892339  0.44915076  1
  O  O542  1  0.67759624  0.01996721  0.69944122  1
  O  O543  1  0.67673109  0.02203023  0.94944876  1
  O  O544  1  0.67716416  0.35182827  0.19957175  1
  O  O545  1  0.67727552  0.35286479  0.44843786  1
  O  O546  1  0.67724365  0.35150679  0.69904412  1
  O  O547  1  0.67727027  0.35229747  0.94890393  1
  O  O548  1  0.67761986  0.68517156  0.19889247  1
  O  O549  1  0.67600585  0.68698408  0.44982155  1
  O  O550  1  0.67714597  0.68527129  0.69924109  1
  O  O551  1  0.67716827  0.68843969  0.94971571  1
  O  O552  1  0.32397030  0.31340582  0.05022620  1
  O  O553  1  0.32320754  0.31434583  0.30146191  1
  O  O554  1  0.32265239  0.31361695  0.55137616  1
  O  O555  1  0.32367379  0.31308042  0.79868857  1
  O  O556  1  0.32361556  0.64699064  0.05007481  1
  O  O557  1  0.32320225  0.64545857  0.30060467  1
  O  O558  1  0.32370885  0.64636696  0.54845049  1
  O  O559  1  0.32471293  0.64662252  0.79902141  1
  O  O560  1  0.32410825  0.97965378  0.04966651  1
  O  O561  1  0.32351479  0.97855853  0.30143146  1
  O  O562  1  0.32315573  0.97844337  0.54990930  1
  O  O563  1  0.32285469  0.97900355  0.79966944  1
  O  O564  1  0.82343958  0.31542644  0.05134475  1
  O  O565  1  0.82275077  0.31454699  0.30189387  1
  O  O566  1  0.82272251  0.31383583  0.55151417  1
  O  O567  1  0.82239087  0.31361860  0.80135337  1
  O  O568  1  0.82270300  0.64856284  0.05109831  1
  O  O569  1  0.82340323  0.64516702  0.30058028  1
  O  O570  1  0.82291632  0.64793382  0.55040033  1
  O  O571  1  0.82451062  0.64657789  0.79954038  1
  O  O572  1  0.82312969  0.98287271  0.05062132  1
  O  O573  1  0.82294901  0.98194737  0.30187431  1
  O  O574  1  0.82274392  0.98230039  0.55155375  1
  O  O575  1  0.82354591  0.97944923  0.80017875  1
  O  O576  1  0.42672209  0.14796076  0.17557463  1
  O  O577  1  0.42654007  0.14492462  0.42530743  1
  O  O578  1  0.42625149  0.14637660  0.67354743  1
  O  O579  1  0.42711917  0.14776301  0.92547780  1
  O  O580  1  0.42748586  0.47970569  0.17562604  1
  O  O581  1  0.42685272  0.47980166  0.42394419  1
  O  O582  1  0.42855660  0.48069546  0.67630914  1
  O  O583  1  0.42732322  0.47857384  0.92527712  1
  O  O584  1  0.42805025  0.81304004  0.17615416  1
  O  O585  1  0.42679645  0.81095101  0.42455193  1
  O  O586  1  0.42791914  0.81447395  0.67584492  1
  O  O587  1  0.42753557  0.81119968  0.92574582  1
  O  O588  1  0.92678379  0.14755044  0.17731837  1
  O  O589  1  0.92702420  0.14825881  0.42640823  1
  O  O590  1  0.92556480  0.14722588  0.67443027  1
  O  O591  1  0.92677945  0.14898581  0.92668124  1
  O  O592  1  0.92723988  0.48071936  0.17684344  1
  O  O593  1  0.92655280  0.48146504  0.42616289  1
  O  O594  1  0.92776545  0.48104097  0.67684608  1
  O  O595  1  0.92699992  0.48176448  0.92617743  1
  O  O596  1  0.92543135  0.81315380  0.17493809  1
  O  O597  1  0.92688391  0.81429109  0.42648417  1
  O  O598  1  0.92707657  0.81494803  0.67542600  1
  O  O599  1  0.92697108  0.81225603  0.92545853  1
  O  O600  1  0.07229226  0.18556753  0.07511861  1
  O  O601  1  0.07234222  0.18698702  0.32443286  1
  O  O602  1  0.07232060  0.18621936  0.57438282  1
  O  O603  1  0.07269628  0.18826027  0.82465652  1
  O  O604  1  0.07217296  0.51936067  0.07389443  1
  O  O605  1  0.07298167  0.51935589  0.32484869  1
  O  O606  1  0.07268024  0.51974438  0.57321711  1
  O  O607  1  0.07321773  0.51893943  0.82378139  1
  O  O608  1  0.07375326  0.85393865  0.07641345  1
  O  O609  1  0.07203939  0.85496820  0.32605738  1
  O  O610  1  0.07173327  0.85371145  0.57278991  1
  O  O611  1  0.07238106  0.85209733  0.82364539  1
  O  O612  1  0.57235821  0.18639498  0.07311922  1
  O  O613  1  0.57251740  0.18550402  0.32285804  1
  O  O614  1  0.57396908  0.18688255  0.57514385  1
  O  O615  1  0.57294889  0.18721095  0.82454822  1
  O  O616  1  0.57393696  0.52048476  0.07557478  1
  O  O617  1  0.57300884  0.51913036  0.32350218  1
  O  O618  1  0.57398645  0.52089007  0.57373076  1
  O  O619  1  0.57373218  0.51766280  0.82428550  1
  O  O620  1  0.57475295  0.85279559  0.07547701  1
  O  O621  1  0.57319079  0.85117908  0.32450349  1
  O  O622  1  0.57375886  0.85406626  0.57421773  1
  O  O623  1  0.57332483  0.85138190  0.82373066  1
  O  O624  1  0.32397367  0.18637148  0.05015080  1
  O  O625  1  0.32303899  0.18717566  0.30111729  1
  O  O626  1  0.32180098  0.18607446  0.55093061  1
  O  O627  1  0.32376096  0.18633481  0.79874827  1
  O  O628  1  0.32410439  0.51998633  0.04960921  1
  O  O629  1  0.32283393  0.51827369  0.30096563  1
  O  O630  1  0.32417800  0.51943912  0.54893838  1
  O  O631  1  0.32407622  0.51956741  0.79916778  1
  O  O632  1  0.32441483  0.85279349  0.05012850  1
  O  O633  1  0.32308038  0.85121364  0.30134469  1
  O  O634  1  0.32307002  0.85132829  0.55110136  1
  O  O635  1  0.32323301  0.85183805  0.80088450  1
  O  O636  1  0.82339838  0.18854086  0.05082323  1
  O  O637  1  0.82249189  0.18752221  0.30076696  1
  O  O638  1  0.82116925  0.18651869  0.55192516  1
  O  O639  1  0.82243084  0.18641544  0.80127150  1
  O  O640  1  0.82343446  0.52122310  0.05038905  1
  O  O641  1  0.82267207  0.51809302  0.30110549  1
  O  O642  1  0.82341245  0.52072581  0.55066089  1
  O  O643  1  0.82394059  0.51966497  0.79918986  1
  O  O644  1  0.82429072  0.85572203  0.05074031  1
  O  O645  1  0.82326252  0.85473678  0.30049421  1
  O  O646  1  0.82291912  0.85521128  0.54973844  1
  O  O647  1  0.82255406  0.85225877  0.80074277  1
  O  O648  1  0.17625714  0.14649981  0.20078883  1
  O  O649  1  0.17580177  0.14668519  0.45086247  1
  O  O650  1  0.17643724  0.14767662  0.69853825  1
  O  O651  1  0.17583645  0.14664377  0.94990646  1
  O  O652  1  0.17603379  0.47976415  0.20077180  1
  O  O653  1  0.17779422  0.47994766  0.44864912  1
  O  O654  1  0.17700322  0.47921452  0.69843319  1
  O  O655  1  0.17588233  0.48015333  0.94945159  1
  O  O656  1  0.17559635  0.81305931  0.20031007  1
  O  O657  1  0.17659236  0.81485092  0.44890049  1
  O  O658  1  0.17666000  0.81459328  0.69823510  1
  O  O659  1  0.17634914  0.81453598  0.94888994  1
  O  O660  1  0.67694243  0.14604560  0.20017697  1
  O  O661  1  0.67622569  0.14581721  0.45015925  1
  O  O662  1  0.67807009  0.14742573  0.69778347  1
  O  O663  1  0.67733600  0.14908653  0.94900853  1
  O  O664  1  0.67695615  0.47869925  0.19995062  1
  O  O665  1  0.67787968  0.48029057  0.44860507  1
  O  O666  1  0.67743515  0.47847877  0.69994558  1
  O  O667  1  0.67738490  0.47944033  0.94981303  1
  O  O668  1  0.67713068  0.81253746  0.19986763  1
  O  O669  1  0.67642250  0.81387920  0.45064023  1
  O  O670  1  0.67665099  0.81244772  0.69928988  1
  O  O671  1  0.67751441  0.81567846  0.94950886  1
