# generated using pymatgen
data_Na2MnFe(PO4)2
_symmetry_space_group_name_H-M   'P 1'
_cell_length_a   22.34569474
_cell_length_b   20.09850283
_cell_length_c   19.44866170
_cell_angle_alpha   89.99329772
_cell_angle_beta   89.93704827
_cell_angle_gamma   90.01727739
_symmetry_Int_Tables_number   1
_chemical_formula_structural   Na2MnFe(PO4)2
_chemical_formula_sum   'Na96 Mn48 Fe48 P96 O384'
_cell_volume   8734.68014557
_cell_formula_units_Z   48
loop_
 _symmetry_equiv_pos_site_id
 _symmetry_equiv_pos_as_xyz
  1  'x, y, z'
loop_
 _atom_site_type_symbol
 _atom_site_label
 _atom_site_symmetry_multiplicity
 _atom_site_fract_x
 _atom_site_fract_y
 _atom_site_fract_z
 _atom_site_occupancy
  Na  Na0  1  0.13995948  0.25008097  0.24457106  1
  Na  Na1  1  0.13982804  0.24899298  0.49223010  1
  Na  Na2  1  0.14001720  0.25013722  0.74376881  1
  Na  Na3  1  0.14013059  0.24979650  0.99403336  1
  Na  Na4  1  0.14086605  0.58315803  0.24480558  1
  Na  Na5  1  0.14023319  0.58442500  0.49447489  1
  Na  Na6  1  0.14030512  0.58443810  0.74350071  1
  Na  Na7  1  0.14016620  0.58326372  0.99498509  1
  Na  Na8  1  0.14061668  0.91520210  0.24469957  1
  Na  Na9  1  0.14037705  0.91650306  0.49400177  1
  Na  Na10  1  0.14006936  0.91605085  0.74364840  1
  Na  Na11  1  0.14107226  0.91687996  0.99421674  1
  Na  Na12  1  0.64025568  0.25058158  0.24211004  1
  Na  Na13  1  0.64059396  0.25063057  0.49279171  1
  Na  Na14  1  0.64055248  0.24984488  0.74336535  1
  Na  Na15  1  0.64061598  0.24920140  0.99241008  1
  Na  Na16  1  0.64140805  0.58371039  0.24328007  1
  Na  Na17  1  0.64097748  0.58292384  0.49415955  1
  Na  Na18  1  0.64048582  0.58344112  0.74293209  1
  Na  Na19  1  0.64063228  0.58384756  0.99341782  1
  Na  Na20  1  0.64126679  0.91706277  0.24330859  1
  Na  Na21  1  0.64022634  0.91674893  0.49418525  1
  Na  Na22  1  0.64102845  0.91703987  0.74299051  1
  Na  Na23  1  0.64144371  0.91740136  0.99371812  1
  Na  Na24  1  0.35971795  0.08431006  0.00575002  1
  Na  Na25  1  0.35943466  0.08297859  0.25682242  1
  Na  Na26  1  0.35962750  0.08238342  0.50511990  1
  Na  Na27  1  0.36006147  0.08388974  0.75542622  1
  Na  Na28  1  0.35918364  0.41743039  0.00625874  1
  Na  Na29  1  0.35973912  0.41589290  0.25619257  1
  Na  Na30  1  0.35994302  0.41638172  0.50550463  1
  Na  Na31  1  0.35946362  0.41753333  0.75596413  1
  Na  Na32  1  0.35960292  0.74936479  0.00637342  1
  Na  Na33  1  0.35966256  0.75034066  0.25602847  1
  Na  Na34  1  0.36002304  0.75077737  0.50649121  1
  Na  Na35  1  0.35983401  0.75024738  0.75491780  1
  Na  Na36  1  0.85923320  0.08294718  0.00565104  1
  Na  Na37  1  0.85923992  0.08412994  0.25550335  1
  Na  Na38  1  0.85922971  0.08285526  0.50761250  1
  Na  Na39  1  0.85888058  0.08288874  0.75687120  1
  Na  Na40  1  0.85890010  0.41634575  0.00535784  1
  Na  Na41  1  0.85906033  0.41650128  0.25661999  1
  Na  Na42  1  0.85953827  0.41583445  0.50714559  1
  Na  Na43  1  0.85938967  0.41624694  0.75699610  1
  Na  Na44  1  0.85885138  0.75035784  0.00701084  1
  Na  Na45  1  0.85954235  0.74947000  0.25661164  1
  Na  Na46  1  0.85947207  0.74918866  0.50856565  1
  Na  Na47  1  0.85881546  0.75034810  0.75679926  1
  Na  Na48  1  0.11022483  0.08249153  0.11961311  1
  Na  Na49  1  0.10953602  0.08324195  0.36825993  1
  Na  Na50  1  0.10895011  0.08347140  0.61876743  1
  Na  Na51  1  0.10937000  0.08400962  0.86859637  1
  Na  Na52  1  0.10944346  0.41548431  0.11970470  1
  Na  Na53  1  0.10970402  0.41572800  0.36946442  1
  Na  Na54  1  0.10900491  0.41623595  0.61892506  1
  Na  Na55  1  0.10915096  0.41640794  0.86901796  1
  Na  Na56  1  0.10978148  0.74931809  0.11954190  1
  Na  Na57  1  0.10987355  0.74939541  0.36982224  1
  Na  Na58  1  0.10974055  0.75052716  0.61928959  1
  Na  Na59  1  0.10969194  0.74944803  0.86814601  1
  Na  Na60  1  0.61048916  0.08428135  0.11778487  1
  Na  Na61  1  0.61003739  0.08378439  0.36852668  1
  Na  Na62  1  0.61042091  0.08460649  0.61787686  1
  Na  Na63  1  0.61052626  0.08406520  0.86787917  1
  Na  Na64  1  0.60987380  0.41669612  0.11808121  1
  Na  Na65  1  0.61067238  0.41597558  0.36765849  1
  Na  Na66  1  0.60974556  0.41851857  0.61844255  1
  Na  Na67  1  0.60996515  0.41650974  0.86793402  1
  Na  Na68  1  0.61063396  0.75018028  0.11787276  1
  Na  Na69  1  0.61040298  0.75025186  0.37015690  1
  Na  Na70  1  0.61011955  0.75120919  0.61748637  1
  Na  Na71  1  0.61004972  0.74941187  0.86868108  1
  Na  Na72  1  0.39067458  0.24966253  0.13105553  1
  Na  Na73  1  0.39018876  0.24952645  0.38070361  1
  Na  Na74  1  0.39040650  0.25140681  0.62966171  1
  Na  Na75  1  0.39023348  0.24956523  0.88031181  1
  Na  Na76  1  0.39008152  0.58325317  0.13123584  1
  Na  Na77  1  0.39110732  0.58340809  0.38099562  1
  Na  Na78  1  0.39048973  0.58470124  0.63098713  1
  Na  Na79  1  0.38997177  0.58356436  0.88111629  1
  Na  Na80  1  0.39058599  0.91783660  0.13167794  1
  Na  Na81  1  0.39055826  0.91632979  0.38212040  1
  Na  Na82  1  0.39042636  0.91750813  0.62991192  1
  Na  Na83  1  0.39092040  0.91708738  0.88125969  1
  Na  Na84  1  0.88960831  0.24873163  0.13035245  1
  Na  Na85  1  0.88969401  0.25032054  0.38154659  1
  Na  Na86  1  0.89017651  0.24971780  0.63170246  1
  Na  Na87  1  0.88956783  0.24977562  0.88105860  1
  Na  Na88  1  0.88937809  0.58249584  0.13280300  1
  Na  Na89  1  0.89010381  0.58189679  0.38234838  1
  Na  Na90  1  0.88995674  0.58311555  0.63254823  1
  Na  Na91  1  0.88960558  0.58222724  0.88107296  1
  Na  Na92  1  0.88979302  0.91648064  0.13161864  1
  Na  Na93  1  0.89020228  0.91546008  0.38182635  1
  Na  Na94  1  0.88967756  0.91650367  0.63328026  1
  Na  Na95  1  0.88940400  0.91710977  0.88124635  1
  Mn  Mn96  1  0.00034674  0.49837614  0.25144137  1
  Mn  Mn97  1  0.49980051  0.66648691  0.74922176  1
  Mn  Mn98  1  -0.00035378  0.16697586  0.74943018  1
  Mn  Mn99  1  -0.00067964  0.66655323  0.75077283  1
  Mn  Mn100  1  0.25000043  0.16614736  0.62385901  1
  Mn  Mn101  1  0.75044549  0.83312047  0.37516677  1
  Mn  Mn102  1  0.74935239  0.16711227  0.37477550  1
  Mn  Mn103  1  0.50071516  0.00153291  0.75005801  1
  Mn  Mn104  1  0.50070974  0.83308511  0.00025746  1
  Mn  Mn105  1  0.49944918  0.50017853  -0.00030908  1
  Mn  Mn106  1  0.25050125  0.83277554  0.87493071  1
  Mn  Mn107  1  0.50139173  0.00096294  0.25007941  1
  Mn  Mn108  1  0.25051465  0.83322287  0.12503300  1
  Mn  Mn109  1  0.00018288  0.66648056  0.25107891  1
  Mn  Mn110  1  0.50049668  0.83362048  0.25044567  1
  Mn  Mn111  1  0.24995540  0.33301025  0.62493374  1
  Mn  Mn112  1  -0.00075223  0.49886315  0.00075736  1
  Mn  Mn113  1  0.50053329  0.00145717  0.00026205  1
  Mn  Mn114  1  0.75044656  0.00001334  0.37521314  1
  Mn  Mn115  1  0.50031609  0.83372694  0.74971001  1
  Mn  Mn116  1  -0.00046097  0.16695751  0.25008687  1
  Mn  Mn117  1  0.25036474  0.00071761  0.87426395  1
  Mn  Mn118  1  -0.00000262  -0.00002815  0.50040019  1
  Mn  Mn119  1  0.74980523  0.33353588  0.12424498  1
  Mn  Mn120  1  0.50044539  0.66704632  0.25023888  1
  Mn  Mn121  1  -0.00104813  0.33203076  -0.00051586  1
  Mn  Mn122  1  0.24957016  0.50105148  0.62537096  1
  Mn  Mn123  1  0.49988684  0.33406109  0.74966443  1
  Mn  Mn124  1  0.75028490  0.66584720  0.37569655  1
  Mn  Mn125  1  0.00081286  0.00006669  0.00014601  1
  Mn  Mn126  1  0.50064170  0.16764643  0.49913841  1
  Mn  Mn127  1  0.25038402  0.33384355  0.12473779  1
  Mn  Mn128  1  -0.00064857  -0.00074407  0.25013642  1
  Mn  Mn129  1  0.24933001  0.50121830  0.87533386  1
  Mn  Mn130  1  0.74998840  0.66682545  0.87512362  1
  Mn  Mn131  1  0.74947783  0.33303596  0.62526852  1
  Mn  Mn132  1  0.49977860  0.33249230  -0.00141204  1
  Mn  Mn133  1  -0.00060314  0.66606488  0.00021261  1
  Mn  Mn134  1  0.24933597  0.33291791  0.87563407  1
  Mn  Mn135  1  0.25119228  0.66751704  0.37466867  1
  Mn  Mn136  1  0.00002470  0.49934231  0.50064359  1
  Mn  Mn137  1  -0.00008024  0.83337787  -0.00018349  1
  Mn  Mn138  1  0.50006680  0.50012130  0.49916602  1
  Mn  Mn139  1  0.50116967  0.49918628  0.25025452  1
  Mn  Mn140  1  0.00002760  0.83251034  0.50123760  1
  Mn  Mn141  1  0.24916342  -0.00076115  0.62499209  1
  Mn  Mn142  1  0.25100897  0.49998927  0.37507297  1
  Mn  Mn143  1  0.25013508  0.16612110  0.12563617  1
  Fe  Fe144  1  0.50061121  0.33370868  0.49924927  1
  Fe  Fe145  1  0.75056707  0.49996660  0.37517641  1
  Fe  Fe146  1  -0.00051576  0.33298230  0.50069927  1
  Fe  Fe147  1  0.75022871  0.00052163  0.12379290  1
  Fe  Fe148  1  0.75007238  0.66624378  0.62564697  1
  Fe  Fe149  1  0.74998185  0.49932139  0.62533497  1
  Fe  Fe150  1  0.74996533  -0.00006701  0.87503442  1
  Fe  Fe151  1  0.50082748  0.66705385  0.50019137  1
  Fe  Fe152  1  0.25013602  0.66772786  0.62431866  1
  Fe  Fe153  1  -0.00006340  0.49982803  0.74986194  1
  Fe  Fe154  1  0.24986088  0.83330313  0.37488345  1
  Fe  Fe155  1  0.74962324  0.49967427  0.12463016  1
  Fe  Fe156  1  0.50041515  0.83417832  0.49990156  1
  Fe  Fe157  1  0.74992094  0.50040419  0.87490004  1
  Fe  Fe158  1  0.49988112  0.66627218  -0.00039892  1
  Fe  Fe159  1  0.74958973  0.33327004  0.87463081  1
  Fe  Fe160  1  0.25003827  0.66691903  0.87535248  1
  Fe  Fe161  1  0.74931706  0.83349277  0.87521402  1
  Fe  Fe162  1  -0.00005192  0.33291645  0.74999660  1
  Fe  Fe163  1  0.49983991  0.16695974  0.25015779  1
  Fe  Fe164  1  0.74987780  0.16666183  0.12363236  1
  Fe  Fe165  1  0.50015983  0.16765336  0.74858919  1
  Fe  Fe166  1  -0.00056777  0.00039963  0.75028006  1
  Fe  Fe167  1  0.25064691  0.83327089  0.62473221  1
  Fe  Fe168  1  0.50032358  0.16698855  -0.00007244  1
  Fe  Fe169  1  0.24972909  0.16595399  0.37454843  1
  Fe  Fe170  1  0.25029191  -0.00096863  0.37520847  1
  Fe  Fe171  1  0.50017836  0.00101178  0.49969212  1
  Fe  Fe172  1  0.49977046  0.50048040  0.74940613  1
  Fe  Fe173  1  0.75053413  0.83354861  0.12483405  1
  Fe  Fe174  1  0.00005211  0.16629679  -0.00015074  1
  Fe  Fe175  1  0.24965756  0.50028066  0.12542886  1
  Fe  Fe176  1  -0.00033351  0.33214935  0.25029523  1
  Fe  Fe177  1  -0.00045582  0.66640680  0.50113629  1
  Fe  Fe178  1  0.24969526  0.16658395  0.87515484  1
  Fe  Fe179  1  0.25011360  -0.00033009  0.12555669  1
  Fe  Fe180  1  0.24986959  0.66647216  0.12550881  1
  Fe  Fe181  1  0.75013366  0.33371637  0.37470679  1
  Fe  Fe182  1  -0.00014768  0.83251661  0.25090361  1
  Fe  Fe183  1  0.75050028  0.66629959  0.12521010  1
  Fe  Fe184  1  0.24943617  0.33327228  0.37490489  1
  Fe  Fe185  1  0.75019965  0.16677804  0.62525141  1
  Fe  Fe186  1  -0.00077718  0.83349324  0.75012582  1
  Fe  Fe187  1  0.74992203  0.83354905  0.62599489  1
  Fe  Fe188  1  0.74956244  -0.00004834  0.62584931  1
  Fe  Fe189  1  -0.00085252  0.16673361  0.50014647  1
  Fe  Fe190  1  0.50012790  0.33263493  0.24891045  1
  Fe  Fe191  1  0.74982995  0.16624070  0.87446833  1
  P  P192  1  0.04218178  0.24851860  0.10263494  1
  P  P193  1  0.04165247  0.25086922  0.35364422  1
  P  P194  1  0.04118620  0.24992949  0.60179969  1
  P  P195  1  0.04196318  0.25056275  0.85239211  1
  P  P196  1  0.04218050  0.58258969  0.10388767  1
  P  P197  1  0.04293034  0.58282227  0.35454136  1
  P  P198  1  0.04163400  0.58407394  0.60344336  1
  P  P199  1  0.04197001  0.58170068  0.85253385  1
  P  P200  1  0.04291332  0.91596669  0.10379242  1
  P  P201  1  0.04198429  0.91502025  0.35293748  1
  P  P202  1  0.04231211  0.91673807  0.60458821  1
  P  P203  1  0.04112144  0.91683148  0.85140122  1
  P  P204  1  0.54251160  0.24911942  0.10250956  1
  P  P205  1  0.54188109  0.25036970  0.35119084  1
  P  P206  1  0.54266863  0.25212825  0.60201373  1
  P  P207  1  0.54230106  0.24866275  0.85183851  1
  P  P208  1  0.54243190  0.58432086  0.10214422  1
  P  P209  1  0.54347439  0.58371316  0.35354591  1
  P  P210  1  0.54234628  0.58436113  0.60230143  1
  P  P211  1  0.54219870  0.58235255  0.85223912  1
  P  P212  1  0.54351628  0.91751091  0.10308348  1
  P  P213  1  0.54327137  0.91719200  0.35416101  1
  P  P214  1  0.54153955  0.91800277  0.60132173  1
  P  P215  1  0.54336671  0.91710130  0.85296907  1
  P  P216  1  0.45814243  0.08539516  0.14746436  1
  P  P217  1  0.45815471  0.08304727  0.39690113  1
  P  P218  1  0.45821124  0.08506905  0.64637994  1
  P  P219  1  0.45825899  0.08552895  0.89701254  1
  P  P220  1  0.45786155  0.41540048  0.14728465  1
  P  P221  1  0.45829581  0.41478893  0.39642269  1
  P  P222  1  0.45751962  0.41840727  0.64674949  1
  P  P223  1  0.45678554  0.41704329  0.89591048  1
  P  P224  1  0.45761874  0.75003021  0.14658192  1
  P  P225  1  0.45915897  0.75017977  0.39888922  1
  P  P226  1  0.45805221  0.75079021  0.64551911  1
  P  P227  1  0.45786263  0.74872754  0.89750222  1
  P  P228  1  0.95730884  0.08341062  0.14650885  1
  P  P229  1  0.95717097  0.08423781  0.39797427  1
  P  P230  1  0.95712590  0.08246049  0.64748618  1
  P  P231  1  0.95781926  0.08410980  0.89709663  1
  P  P232  1  0.95713246  0.41432971  0.14829611  1
  P  P233  1  0.95773152  0.41460288  0.39799564  1
  P  P234  1  0.95831045  0.41594589  0.64855717  1
  P  P235  1  0.95688678  0.41622580  0.89594354  1
  P  P236  1  0.95746765  0.75076195  0.14824738  1
  P  P237  1  0.95734742  0.74837511  0.39841927  1
  P  P238  1  0.95731374  0.75066273  0.64804701  1
  P  P239  1  0.95674747  0.75003381  0.89662301  1
  P  P240  1  0.20814486  0.08136754  0.22870483  1
  P  P241  1  0.20828429  0.08241667  0.47602476  1
  P  P242  1  0.20688704  0.08360743  0.72809437  1
  P  P243  1  0.20749683  0.08417290  0.97780875  1
  P  P244  1  0.20796935  0.41747743  0.22810142  1
  P  P245  1  0.20776993  0.41581080  0.47745518  1
  P  P246  1  0.20680715  0.41695943  0.72828050  1
  P  P247  1  0.20682380  0.41746811  0.97886103  1
  P  P248  1  0.20796495  0.74917799  0.22780109  1
  P  P249  1  0.20823698  0.75137666  0.47813530  1
  P  P250  1  0.20873672  0.75009283  0.72665619  1
  P  P251  1  0.20763389  0.74856823  0.97799415  1
  P  P252  1  0.70897396  0.08392606  0.22562733  1
  P  P253  1  0.70748317  0.08330420  0.47891853  1
  P  P254  1  0.70888682  0.08382200  0.72722846  1
  P  P255  1  0.70883477  0.08335909  0.97659230  1
  P  P256  1  0.70784320  0.41790759  0.22756275  1
  P  P257  1  0.70897322  0.41700967  0.47673441  1
  P  P258  1  0.70779528  0.41757861  0.72822660  1
  P  P259  1  0.70845696  0.41712653  0.97628235  1
  P  P260  1  0.70910869  0.75000327  0.22638033  1
  P  P261  1  0.70830787  0.74982433  0.47947021  1
  P  P262  1  0.70846126  0.75018365  0.72694382  1
  P  P263  1  0.70814572  0.75142258  0.97815272  1
  P  P264  1  0.29273611  0.24946178  0.02164776  1
  P  P265  1  0.29098672  0.24997115  0.27352504  1
  P  P266  1  0.29216127  0.24979026  0.52019179  1
  P  P267  1  0.29211067  0.24873286  0.77247838  1
  P  P268  1  0.29126279  0.58380262  0.02347937  1
  P  P269  1  0.29339215  0.58341671  0.27102304  1
  P  P270  1  0.29264220  0.58495788  0.52257470  1
  P  P271  1  0.29190201  0.58569592  0.77209488  1
  P  P272  1  0.29266204  0.91808268  0.02268656  1
  P  P273  1  0.29203814  0.91647293  0.27325861  1
  P  P274  1  0.29194261  0.91554110  0.52156803  1
  P  P275  1  0.29317097  0.91623536  0.77130439  1
  P  P276  1  0.79156964  0.24874853  0.02100382  1
  P  P277  1  0.79155870  0.25138451  0.27196679  1
  P  P278  1  0.79184689  0.24907814  0.52262475  1
  P  P279  1  0.79092270  0.24947595  0.77306506  1
  P  P280  1  0.79125572  0.58285000  0.02322320  1
  P  P281  1  0.79241360  0.58195636  0.27223812  1
  P  P282  1  0.79147217  0.58237887  0.52395112  1
  P  P283  1  0.79161685  0.58225372  0.77195779  1
  P  P284  1  0.79146275  0.91664558  0.02259925  1
  P  P285  1  0.79275047  0.91674569  0.27109810  1
  P  P286  1  0.79137197  0.91648244  0.52448395  1
  P  P287  1  0.79052728  0.91645517  0.77313250  1
  O  O288  1  0.03699926  0.24952073  0.18261311  1
  O  O289  1  0.03613319  0.25047050  0.43350675  1
  O  O290  1  0.03616474  0.25038491  0.68178963  1
  O  O291  1  0.03662234  0.24936324  0.93228688  1
  O  O292  1  0.03738109  0.58263609  0.18389234  1
  O  O293  1  0.03765954  0.58341263  0.43451226  1
  O  O294  1  0.03604785  0.58338270  0.68335910  1
  O  O295  1  0.03692704  0.58195115  0.93253252  1
  O  O296  1  0.03759649  0.91535454  0.18373500  1
  O  O297  1  0.03702634  0.91537818  0.43293460  1
  O  O298  1  0.03681651  0.91698908  0.68449193  1
  O  O299  1  0.03637583  0.91693997  0.93144005  1
  O  O300  1  0.53702112  0.24953163  0.18241434  1
  O  O301  1  0.53705084  0.25100583  0.43119982  1
  O  O302  1  0.53732462  0.25148743  0.68191494  1
  O  O303  1  0.53729548  0.24835494  0.93181358  1
  O  O304  1  0.53775640  0.58388636  0.18215140  1
  O  O305  1  0.53805262  0.58421408  0.43350000  1
  O  O306  1  0.53689613  0.58338367  0.68222856  1
  O  O307  1  0.53690525  0.58312591  0.93220130  1
  O  O308  1  0.53869903  0.91751555  0.18309440  1
  O  O309  1  0.53779065  0.91754477  0.43409149  1
  O  O310  1  0.53693908  0.91776408  0.68134741  1
  O  O311  1  0.53834377  0.91715460  0.93292479  1
  O  O312  1  0.46328735  0.08565008  0.06748650  1
  O  O313  1  0.46358151  0.08354422  0.31699581  1
  O  O314  1  0.46360703  0.08420929  0.56644029  1
  O  O315  1  0.46344992  0.08560437  0.81702146  1
  O  O316  1  0.46258569  0.41575886  0.06725595  1
  O  O317  1  0.46370379  0.41459278  0.31649084  1
  O  O318  1  0.46287077  0.41779677  0.56681269  1
  O  O319  1  0.46193468  0.41773440  0.81594832  1
  O  O320  1  0.46263003  0.74940187  0.06660917  1
  O  O321  1  0.46381375  0.75049623  0.31887357  1
  O  O322  1  0.46366192  0.75060374  0.56567038  1
  O  O323  1  0.46287521  0.74898900  0.81749914  1
  O  O324  1  0.96282975  0.08385385  0.06658064  1
  O  O325  1  0.96225379  0.08395659  0.31799029  1
  O  O326  1  0.96216443  0.08296904  0.56753074  1
  O  O327  1  0.96308488  0.08342615  0.81711288  1
  O  O328  1  0.96205109  0.41469435  0.06828528  1
  O  O329  1  0.96301547  0.41438946  0.31808350  1
  O  O330  1  0.96341735  0.41561417  0.56856013  1
  O  O331  1  0.96241552  0.41656357  0.81606828  1
  O  O332  1  0.96241468  0.75045775  0.06824647  1
  O  O333  1  0.96252920  0.74910437  0.31845504  1
  O  O334  1  0.96236217  0.74986305  0.56809463  1
  O  O335  1  0.96181686  0.75054455  0.81663218  1
  O  O336  1  0.21269690  0.08336992  0.05775516  1
  O  O337  1  0.21371755  0.08149597  0.30855301  1
  O  O338  1  0.21272314  0.08269369  0.55602650  1
  O  O339  1  0.21198927  0.08430989  0.80803934  1
  O  O340  1  0.21225195  0.41791250  0.05881168  1
  O  O341  1  0.21343862  0.41657110  0.30804610  1
  O  O342  1  0.21267649  0.41604756  0.55744430  1
  O  O343  1  0.21175215  0.41690237  0.80826473  1
  O  O344  1  0.21291775  0.74863253  0.05792898  1
  O  O345  1  0.21332157  0.75006205  0.30771160  1
  O  O346  1  0.21364975  0.75126026  0.55802374  1
  O  O347  1  0.21359653  0.74951332  0.80665707  1
  O  O348  1  0.71398359  0.08340141  0.05643707  1
  O  O349  1  0.71354018  0.08370546  0.30562472  1
  O  O350  1  0.71249507  0.08357956  0.55880171  1
  O  O351  1  0.71403971  0.08367662  0.80709287  1
  O  O352  1  0.71348268  0.41696883  0.05623802  1
  O  O353  1  0.71326629  0.41757296  0.30739517  1
  O  O354  1  0.71365603  0.41673261  0.55670038  1
  O  O355  1  0.71310973  0.41740830  0.80805314  1
  O  O356  1  0.71379536  0.75125334  0.05793820  1
  O  O357  1  0.71395737  0.74940346  0.30640720  1
  O  O358  1  0.71346820  0.75003749  0.55934042  1
  O  O359  1  0.71313115  0.75024329  0.80694935  1
  O  O360  1  0.28646435  0.24986712  0.19351971  1
  O  O361  1  0.28663107  0.24999928  0.44031018  1
  O  O362  1  0.28703755  0.24905451  0.69246193  1
  O  O363  1  0.28740464  0.24899171  0.94173281  1
  O  O364  1  0.28772056  0.58328944  0.19115014  1
  O  O365  1  0.28820619  0.58455007  0.44256695  1
  O  O366  1  0.28651573  0.58582898  0.69215990  1
  O  O367  1  0.28614706  0.58432459  0.94346972  1
  O  O368  1  0.28696968  0.91692122  0.19327559  1
  O  O369  1  0.28671926  0.91570694  0.44166165  1
  O  O370  1  0.28791482  0.91575925  0.69135183  1
  O  O371  1  0.28753776  0.91773110  0.94273747  1
  O  O372  1  0.78685527  0.25132121  0.19205767  1
  O  O373  1  0.78673373  0.24983790  0.44273209  1
  O  O374  1  0.78596288  0.24948996  0.69310644  1
  O  O375  1  0.78595156  0.24889070  0.94117545  1
  O  O376  1  0.78711944  0.58221630  0.19238311  1
  O  O377  1  0.78689172  0.58241510  0.44395397  1
  O  O378  1  0.78630054  0.58236983  0.69212738  1
  O  O379  1  0.78621428  0.58308877  0.94325962  1
  O  O380  1  0.78747872  0.91651570  0.19124627  1
  O  O381  1  0.78715176  0.91663883  0.44443641  1
  O  O382  1  0.78531873  0.91662232  0.69326813  1
  O  O383  1  0.78624931  0.91661983  0.94273017  1
  O  O384  1  0.22846441  0.24982156  0.05715599  1
  O  O385  1  0.22675320  0.25024144  0.30911813  1
  O  O386  1  0.22791707  0.24986377  0.55597678  1
  O  O387  1  0.22777128  0.24822001  0.80811237  1
  O  O388  1  0.22716547  0.58339457  0.05977960  1
  O  O389  1  0.22924026  0.58366834  0.30694650  1
  O  O390  1  0.22813772  0.58512171  0.55763481  1
  O  O391  1  0.22767135  0.58584397  0.80808726  1
  O  O392  1  0.22836918  0.91794762  0.05837301  1
  O  O393  1  0.22783655  0.91636310  0.30938180  1
  O  O394  1  0.22780365  0.91486445  0.55775884  1
  O  O395  1  0.22882472  0.91645839  0.80667106  1
  O  O396  1  0.72754907  0.24867584  0.05747882  1
  O  O397  1  0.72726976  0.25135526  0.30761713  1
  O  O398  1  0.72756195  0.24839161  0.55840056  1
  O  O399  1  0.72684894  0.24897540  0.80916615  1
  O  O400  1  0.72716398  0.58252883  0.05939989  1
  O  O401  1  0.72828715  0.58135196  0.30851950  1
  O  O402  1  0.72728956  0.58192905  0.55981721  1
  O  O403  1  0.72754009  0.58218616  0.80827716  1
  O  O404  1  0.72756675  0.91610915  0.05927374  1
  O  O405  1  0.72850608  0.91672867  0.30698844  1
  O  O406  1  0.72703495  0.91597464  0.55990909  1
  O  O407  1  0.72661972  0.91616559  0.80976588  1
  O  O408  1  0.27221692  0.08125556  0.19225248  1
  O  O409  1  0.27257651  0.08202462  0.44055527  1
  O  O410  1  0.27128665  0.08298664  0.69287398  1
  O  O411  1  0.27179784  0.08499145  0.94193257  1
  O  O412  1  0.27213485  0.41831229  0.19203091  1
  O  O413  1  0.27217094  0.41524592  0.44211904  1
  O  O414  1  0.27126628  0.41722026  0.69324534  1
  O  O415  1  0.27107142  0.41721995  0.94325544  1
  O  O416  1  0.27216147  0.74858445  0.19185646  1
  O  O417  1  0.27240915  0.75219384  0.44191315  1
  O  O418  1  0.27287873  0.75016952  0.69054769  1
  O  O419  1  0.27198774  0.74843657  0.94226476  1
  O  O420  1  0.77311983  0.08424969  0.18978897  1
  O  O421  1  0.77175021  0.08376775  0.44321303  1
  O  O422  1  0.77284150  0.08420323  0.69067511  1
  O  O423  1  0.77281047  0.08383731  0.94005979  1
  O  O424  1  0.77194959  0.41821496  0.19121511  1
  O  O425  1  0.77313557  0.41743570  0.44075937  1
  O  O426  1  0.77195394  0.41763795  0.69203842  1
  O  O427  1  0.77249490  0.41740361  0.94005335  1
  O  O428  1  0.77326070  0.75040853  0.19049693  1
  O  O429  1  0.77247964  0.74967554  0.44354598  1
  O  O430  1  0.77267176  0.75075688  0.69115915  1
  O  O431  1  0.77214021  0.75179102  0.94155800  1
  O  O432  1  0.02146931  0.08305519  0.18216474  1
  O  O433  1  0.02152507  0.08472616  0.43335240  1
  O  O434  1  0.02142526  0.08222392  0.68296199  1
  O  O435  1  0.02207614  0.08484427  0.93285069  1
  O  O436  1  0.02155000  0.41384980  0.18360342  1
  O  O437  1  0.02192192  0.41460223  0.43381059  1
  O  O438  1  0.02242807  0.41563856  0.68452658  1
  O  O439  1  0.02100657  0.41588672  0.93182758  1
  O  O440  1  0.02185472  0.75100030  0.18358135  1
  O  O441  1  0.02169090  0.74778132  0.43392284  1
  O  O442  1  0.02156413  0.75110211  0.68354291  1
  O  O443  1  0.02120069  0.74947070  0.93157242  1
  O  O444  1  0.52251044  0.08603018  0.18287901  1
  O  O445  1  0.52234093  0.08272571  0.43272810  1
  O  O446  1  0.52244924  0.08575487  0.68219421  1
  O  O447  1  0.52257598  0.08560201  0.93262507  1
  O  O448  1  0.52232906  0.41482372  0.18233180  1
  O  O449  1  0.52250810  0.41539285  0.43223326  1
  O  O450  1  0.52174370  0.41880496  0.68258367  1
  O  O451  1  0.52116871  0.41682720  0.93100979  1
  O  O452  1  0.52210240  0.75048102  0.18151844  1
  O  O453  1  0.52335735  0.74991621  0.43447275  1
  O  O454  1  0.52218482  0.75032838  0.68139835  1
  O  O455  1  0.52223823  0.74834227  0.93278642  1
  O  O456  1  0.47829857  0.24850886  0.06648985  1
  O  O457  1  0.47760758  0.24994725  0.31543950  1
  O  O458  1  0.47845163  0.25216256  0.56626342  1
  O  O459  1  0.47804902  0.24880559  0.81618870  1
  O  O460  1  0.47794536  0.58474891  0.06709765  1
  O  O461  1  0.47917184  0.58316562  0.31826717  1
  O  O462  1  0.47821999  0.58487270  0.56638860  1
  O  O463  1  0.47791334  0.58192394  0.81658474  1
  O  O464  1  0.47905415  0.91741238  0.06827983  1
  O  O465  1  0.47904136  0.91745517  0.31850548  1
  O  O466  1  0.47741952  0.91829584  0.56555363  1
  O  O467  1  0.47893146  0.91744471  0.81803980  1
  O  O468  1  0.97786005  0.24744400  0.06700680  1
  O  O469  1  0.97749343  0.25132647  0.31754300  1
  O  O470  1  0.97693551  0.24955509  0.56605125  1
  O  O471  1  0.97770239  0.25126974  0.81669858  1
  O  O472  1  0.97766384  0.58268868  0.06908858  1
  O  O473  1  0.97862587  0.58259618  0.31928143  1
  O  O474  1  0.97751838  0.58405474  0.56742702  1
  O  O475  1  0.97759288  0.58163582  0.81735260  1
  O  O476  1  0.97857137  0.91667732  0.06853331  1
  O  O477  1  0.97764681  0.91466226  0.31757862  1
  O  O478  1  0.97809911  0.91662293  0.56895695  1
  O  O479  1  0.97683368  0.91678502  0.81587977  1
  O  O480  1  0.07289125  0.31211982  0.07415378  1
  O  O481  1  0.07281227  0.31409186  0.32484579  1
  O  O482  1  0.07206245  0.31345771  0.57337541  1
  O  O483  1  0.07286878  0.31425477  0.82445025  1
  O  O484  1  0.07305523  0.64611854  0.07553358  1
  O  O485  1  0.07435262  0.64587864  0.32585866  1
  O  O486  1  0.07211075  0.64798993  0.57537917  1
  O  O487  1  0.07307788  0.64536680  0.82472037  1
  O  O488  1  0.07418946  0.97948583  0.07579282  1
  O  O489  1  0.07280283  0.97878278  0.32508376  1
  O  O490  1  0.07361485  0.97993902  0.57576231  1
  O  O491  1  0.07185129  0.98064169  0.82347149  1
  O  O492  1  0.57334121  0.31277730  0.07397215  1
  O  O493  1  0.57270369  0.31373179  0.32228904  1
  O  O494  1  0.57320459  0.31593105  0.57366160  1
  O  O495  1  0.57320930  0.31265493  0.82447478  1
  O  O496  1  0.57312639  0.64781482  0.07352486  1
  O  O497  1  0.57464212  0.64699591  0.32502064  1
  O  O498  1  0.57327677  0.64811624  0.57456203  1
  O  O499  1  0.57349345  0.64576678  0.82401517  1
  O  O500  1  0.57432194  0.98115132  0.07494952  1
  O  O501  1  0.57484881  0.98027165  0.32543554  1
  O  O502  1  0.57260456  0.98162663  0.57352994  1
  O  O503  1  0.57451139  0.98050013  0.82471016  1
  O  O504  1  0.42773015  0.02123825  0.17512508  1
  O  O505  1  0.42729238  0.01952217  0.42532735  1
  O  O506  1  0.42718129  0.02165034  0.67488841  1
  O  O507  1  0.42744376  0.02154279  0.92472787  1
  O  O508  1  0.42688410  0.35188843  0.17552368  1
  O  O509  1  0.42775259  0.35137750  0.42545040  1
  O  O510  1  0.42633494  0.35490177  0.67486244  1
  O  O511  1  0.42596050  0.35320398  0.92365449  1
  O  O512  1  0.42659303  0.68684463  0.17549559  1
  O  O513  1  0.42805544  0.68654640  0.42664691  1
  O  O514  1  0.42640048  0.68769833  0.67400789  1
  O  O515  1  0.42711062  0.68517828  0.92596768  1
  O  O516  1  0.92609650  0.01987366  0.17439377  1
  O  O517  1  0.92634706  0.02040108  0.42573775  1
  O  O518  1  0.92652076  0.01890534  0.67630480  1
  O  O519  1  0.92691237  0.02051323  0.92531466  1
  O  O520  1  0.92626791  0.35074513  0.17641899  1
  O  O521  1  0.92659775  0.35153982  0.42703396  1
  O  O522  1  0.92695264  0.35265306  0.67693513  1
  O  O523  1  0.92548768  0.35281123  0.92405297  1
  O  O524  1  0.92648608  0.68710122  0.17613829  1
  O  O525  1  0.92661292  0.68471195  0.42684038  1
  O  O526  1  0.92598891  0.68732751  0.67619720  1
  O  O527  1  0.92566700  0.68639108  0.92465444  1
  O  O528  1  0.17727886  0.01797865  0.19989545  1
  O  O529  1  0.17705627  0.01892866  0.44823441  1
  O  O530  1  0.17576452  0.01994157  0.70035350  1
  O  O531  1  0.17662023  0.02060124  0.94946142  1
  O  O532  1  0.17698949  0.35392527  0.19990273  1
  O  O533  1  0.17672304  0.35247558  0.44895598  1
  O  O534  1  0.17604562  0.35335477  0.70011897  1
  O  O535  1  0.17575203  0.35376423  0.95116138  1
  O  O536  1  0.17695543  0.68555684  0.19992275  1
  O  O537  1  0.17757954  0.68750052  0.45016715  1
  O  O538  1  0.17763560  0.68678063  0.69792354  1
  O  O539  1  0.17657439  0.68540223  0.94921837  1
  O  O540  1  0.67853419  0.02009919  0.19719049  1
  O  O541  1  0.67682674  0.01966511  0.45038788  1
  O  O542  1  0.67844345  0.01982339  0.69880814  1
  O  O543  1  0.67853093  0.01932145  0.94819977  1
  O  O544  1  0.67680471  0.35440415  0.19910259  1
  O  O545  1  0.67889153  0.35290274  0.44811419  1
  O  O546  1  0.67667958  0.35397005  0.70009267  1
  O  O547  1  0.67814777  0.35300400  0.94809598  1
  O  O548  1  0.67885652  0.68602413  0.19788362  1
  O  O549  1  0.67717659  0.68640900  0.45101610  1
  O  O550  1  0.67855667  0.68595031  0.69856094  1
  O  O551  1  0.67721576  0.68767938  0.95005904  1
  O  O552  1  0.32390948  0.31313509  0.04933020  1
  O  O553  1  0.32208677  0.31348288  0.30148148  1
  O  O554  1  0.32354199  0.31290224  0.54899779  1
  O  O555  1  0.32280619  0.31265252  0.80011916  1
  O  O556  1  0.32218175  0.64729718  0.05187269  1
  O  O557  1  0.32486677  0.64671380  0.29923435  1
  O  O558  1  0.32315872  0.64863782  0.55088651  1
  O  O559  1  0.32306425  0.64880641  0.80089085  1
  O  O560  1  0.32320055  0.98172820  0.05104605  1
  O  O561  1  0.32314540  0.97977692  0.30182826  1
  O  O562  1  0.32263733  0.97941661  0.54958139  1
  O  O563  1  0.32428182  0.97986031  0.79914102  1
  O  O564  1  0.82284077  0.31230511  0.04888979  1
  O  O565  1  0.82178839  0.31508149  0.30110823  1
  O  O566  1  0.82262002  0.31266073  0.55108964  1
  O  O567  1  0.82092704  0.31370611  0.80130346  1
  O  O568  1  0.82156164  0.64688554  0.05161688  1
  O  O569  1  0.82320245  0.64567176  0.30059036  1
  O  O570  1  0.82152342  0.64648394  0.55250237  1
  O  O571  1  0.82276431  0.64584156  0.80008567  1
  O  O572  1  0.82166964  0.98082562  0.05094054  1
  O  O573  1  0.82376885  0.98027120  0.29948759  1
  O  O574  1  0.82134403  0.98056566  0.55304160  1
  O  O575  1  0.82113884  0.98031188  0.80159575  1
  O  O576  1  0.42669378  0.14824121  0.17658014  1
  O  O577  1  0.42703610  0.14659564  0.42474384  1
  O  O578  1  0.42736771  0.14882868  0.67422778  1
  O  O579  1  0.42718922  0.14856231  0.92603360  1
  O  O580  1  0.42734292  0.47916988  0.17548707  1
  O  O581  1  0.42683322  0.47841027  0.42385719  1
  O  O582  1  0.42676555  0.48203637  0.67502240  1
  O  O583  1  0.42541333  0.48001378  0.92484547  1
  O  O584  1  0.42663347  0.81369104  0.17462922  1
  O  O585  1  0.42885675  0.81418207  0.42718983  1
  O  O586  1  0.42719011  0.81439131  0.67388457  1
  O  O587  1  0.42701075  0.81250205  0.92527193  1
  O  O588  1  0.92606099  0.14663111  0.17498717  1
  O  O589  1  0.92627152  0.14770075  0.42632326  1
  O  O590  1  0.92594918  0.14593517  0.67555383  1
  O  O591  1  0.92696921  0.14770591  0.92519969  1
  O  O592  1  0.92654527  0.47809182  0.17643762  1
  O  O593  1  0.92685674  0.47848162  0.42566591  1
  O  O594  1  0.92807538  0.48014548  0.67642171  1
  O  O595  1  0.92577333  0.47946549  0.92486568  1
  O  O596  1  0.92691080  0.81435617  0.17677572  1
  O  O597  1  0.92628049  0.81184778  0.42668964  1
  O  O598  1  0.92665826  0.81438252  0.67635458  1
  O  O599  1  0.92582369  0.81337154  0.92520519  1
  O  O600  1  0.07320519  0.18497187  0.07456560  1
  O  O601  1  0.07260122  0.18723589  0.32535960  1
  O  O602  1  0.07180790  0.18602373  0.57376155  1
  O  O603  1  0.07303759  0.18729812  0.82370398  1
  O  O604  1  0.07301413  0.51901175  0.07581590  1
  O  O605  1  0.07384425  0.51905101  0.32674228  1
  O  O606  1  0.07322494  0.52082336  0.57546522  1
  O  O607  1  0.07261754  0.51824941  0.82381446  1
  O  O608  1  0.07390887  0.85275162  0.07489477  1
  O  O609  1  0.07268587  0.85137948  0.32474658  1
  O  O610  1  0.07353106  0.85330534  0.57636517  1
  O  O611  1  0.07182682  0.85296421  0.82353186  1
  O  O612  1  0.57374601  0.18592130  0.07386551  1
  O  O613  1  0.57257789  0.18636123  0.32358491  1
  O  O614  1  0.57408021  0.18889602  0.57374042  1
  O  O615  1  0.57319328  0.18558912  0.82258180  1
  O  O616  1  0.57314254  0.52055565  0.07415716  1
  O  O617  1  0.57451288  0.52006653  0.32569832  1
  O  O618  1  0.57352971  0.52102192  0.57394486  1
  O  O619  1  0.57282725  0.51870721  0.82384503  1
  O  O620  1  0.57458275  0.85412470  0.07494148  1
  O  O621  1  0.57419922  0.85353486  0.32599709  1
  O  O622  1  0.57188327  0.85402710  0.57303734  1
  O  O623  1  0.57405496  0.85346633  0.82473684  1
  O  O624  1  0.32386248  0.18636520  0.05048249  1
  O  O625  1  0.32121565  0.18585825  0.30160798  1
  O  O626  1  0.32328026  0.18619399  0.54819960  1
  O  O627  1  0.32301314  0.18529880  0.80073765  1
  O  O628  1  0.32204494  0.51988719  0.05118233  1
  O  O629  1  0.32456358  0.52010142  0.29960059  1
  O  O630  1  0.32348953  0.52129963  0.55059159  1
  O  O631  1  0.32265287  0.52175584  0.79975906  1
  O  O632  1  0.32386328  0.85449742  0.05040706  1
  O  O633  1  0.32258687  0.85245005  0.30099545  1
  O  O634  1  0.32324668  0.85248057  0.55041121  1
  O  O635  1  0.32434880  0.85305969  0.79996378  1
  O  O636  1  0.82249616  0.18537627  0.04975378  1
  O  O637  1  0.82295989  0.18802229  0.29989232  1
  O  O638  1  0.82284973  0.18566805  0.55096030  1
  O  O639  1  0.82263218  0.18634988  0.80104937  1
  O  O640  1  0.82257060  0.51947080  0.05119619  1
  O  O641  1  0.82363615  0.51879838  0.30105933  1
  O  O642  1  0.82288058  0.51910553  0.55216516  1
  O  O643  1  0.82259704  0.51893606  0.80071502  1
  O  O644  1  0.82315588  0.85359687  0.05104301  1
  O  O645  1  0.82386326  0.85350577  0.30000752  1
  O  O646  1  0.82261885  0.85313384  0.55263003  1
  O  O647  1  0.82182824  0.85312677  0.80144869  1
  O  O648  1  0.17692980  0.14505731  0.20099038  1
  O  O649  1  0.17809539  0.14638693  0.44750668  1
  O  O650  1  0.17583989  0.14672800  0.69913833  1
  O  O651  1  0.17662002  0.14773581  0.94961747  1
  O  O652  1  0.17691371  0.48105707  0.20022112  1
  O  O653  1  0.17716206  0.47976985  0.44987553  1
  O  O654  1  0.17575528  0.48041932  0.70021178  1
  O  O655  1  0.17554444  0.48063687  0.95040311  1
  O  O656  1  0.17701472  0.81264911  0.19950722  1
  O  O657  1  0.17684480  0.81441662  0.44927960  1
  O  O658  1  0.17818710  0.81408596  0.69885950  1
  O  O659  1  0.17693286  0.81248116  0.95007845  1
  O  O660  1  0.67806352  0.14759459  0.19763906  1
  O  O661  1  0.67597360  0.14635185  0.45006035  1
  O  O662  1  0.67751632  0.14707005  0.69882964  1
  O  O663  1  0.67724307  0.14643107  0.94806387  1
  O  O664  1  0.67674711  0.48120660  0.19885891  1
  O  O665  1  0.67765375  0.48030125  0.44863328  1
  O  O666  1  0.67684363  0.48081579  0.69925427  1
  O  O667  1  0.67711058  0.48048839  0.94828930  1
  O  O668  1  0.67784331  0.81352319  0.19881171  1
  O  O669  1  0.67718481  0.81312828  0.45078409  1
  O  O670  1  0.67689972  0.81335002  0.69870420  1
  O  O671  1  0.67682567  0.81456823  0.94946510  1
