# generated using pymatgen
data_Na2MnFe(PO4)2
_symmetry_space_group_name_H-M   'P 1'
_cell_length_a   22.34081809
_cell_length_b   20.09526548
_cell_length_c   19.45088256
_cell_angle_alpha   90.02133498
_cell_angle_beta   90.03197587
_cell_angle_gamma   90.00291042
_symmetry_Int_Tables_number   1
_chemical_formula_structural   Na2MnFe(PO4)2
_chemical_formula_sum   'Na96 Mn48 Fe48 P96 O384'
_cell_volume   8732.36808515
_cell_formula_units_Z   48
loop_
 _symmetry_equiv_pos_site_id
 _symmetry_equiv_pos_as_xyz
  1  'x, y, z'
loop_
 _atom_site_type_symbol
 _atom_site_label
 _atom_site_symmetry_multiplicity
 _atom_site_fract_x
 _atom_site_fract_y
 _atom_site_fract_z
 _atom_site_occupancy
  Na  Na0  1  0.14018996  0.24979658  0.24281895  1
  Na  Na1  1  0.14033141  0.24925916  0.49474022  1
  Na  Na2  1  0.14038479  0.25122576  0.74436065  1
  Na  Na3  1  0.14008086  0.25151761  0.99336821  1
  Na  Na4  1  0.14050502  0.58304771  0.24337697  1
  Na  Na5  1  0.14009316  0.58420999  0.49393350  1
  Na  Na6  1  0.14041049  0.58318374  0.74457179  1
  Na  Na7  1  0.14074207  0.58186374  0.99243432  1
  Na  Na8  1  0.14099680  0.91662737  0.24425172  1
  Na  Na9  1  0.14120843  0.91652098  0.49411599  1
  Na  Na10  1  0.13997268  0.91754372  0.74375889  1
  Na  Na11  1  0.13981489  0.91608027  0.99253579  1
  Na  Na12  1  0.63966671  0.24954351  0.24261837  1
  Na  Na13  1  0.64026276  0.25045032  0.49317837  1
  Na  Na14  1  0.64072364  0.25154530  0.74426027  1
  Na  Na15  1  0.63976367  0.25035789  0.99525124  1
  Na  Na16  1  0.63998749  0.58385751  0.24310896  1
  Na  Na17  1  0.63966781  0.58326774  0.49376538  1
  Na  Na18  1  0.63979712  0.58377850  0.74295162  1
  Na  Na19  1  0.63995532  0.58242658  0.99360737  1
  Na  Na20  1  0.64023020  0.91582417  0.24400659  1
  Na  Na21  1  0.64016751  0.91603557  0.49271123  1
  Na  Na22  1  0.63997669  0.91507266  0.74347371  1
  Na  Na23  1  0.63983140  0.91469834  0.99425242  1
  Na  Na24  1  0.35937694  0.08398511  0.00667728  1
  Na  Na25  1  0.35916743  0.08282218  0.25805219  1
  Na  Na26  1  0.35952064  0.08320085  0.50601602  1
  Na  Na27  1  0.35947853  0.08457585  0.75506150  1
  Na  Na28  1  0.35971375  0.41677777  0.00632446  1
  Na  Na29  1  0.35985667  0.41685883  0.25682778  1
  Na  Na30  1  0.35970998  0.41674855  0.50588807  1
  Na  Na31  1  0.35950684  0.41773067  0.75638716  1
  Na  Na32  1  0.36060894  0.74834440  0.00697224  1
  Na  Na33  1  0.36007713  0.75027333  0.25778495  1
  Na  Na34  1  0.36036783  0.75003195  0.50609569  1
  Na  Na35  1  0.36040853  0.74988005  0.75679089  1
  Na  Na36  1  0.85965155  0.08330464  0.00738466  1
  Na  Na37  1  0.85962406  0.08342021  0.25482347  1
  Na  Na38  1  0.85958855  0.08392789  0.50554898  1
  Na  Na39  1  0.85946730  0.08370721  0.75731666  1
  Na  Na40  1  0.85997611  0.41646013  0.00589785  1
  Na  Na41  1  0.85944765  0.41662853  0.25469366  1
  Na  Na42  1  0.85922460  0.41730332  0.50661413  1
  Na  Na43  1  0.86008032  0.41842684  0.75710248  1
  Na  Na44  1  0.85985280  0.74961106  0.00656585  1
  Na  Na45  1  0.86003198  0.75007673  0.25501418  1
  Na  Na46  1  0.86005205  0.74857639  0.50673278  1
  Na  Na47  1  0.86003545  0.74993130  0.75641525  1
  Na  Na48  1  0.10919323  0.08375534  0.11854215  1
  Na  Na49  1  0.11051762  0.08344194  0.36833346  1
  Na  Na50  1  0.10959716  0.08374901  0.61921336  1
  Na  Na51  1  0.10903533  0.08399285  0.86906387  1
  Na  Na52  1  0.11000939  0.41658468  0.11637083  1
  Na  Na53  1  0.10928142  0.41586205  0.36856693  1
  Na  Na54  1  0.10960569  0.41696437  0.62018357  1
  Na  Na55  1  0.11026760  0.41675834  0.86871169  1
  Na  Na56  1  0.10968837  0.74988302  0.11764522  1
  Na  Na57  1  0.11020935  0.74947206  0.36915576  1
  Na  Na58  1  0.10999362  0.75075400  0.61924046  1
  Na  Na59  1  0.10976726  0.75015304  0.86862311  1
  Na  Na60  1  0.60873918  0.08235586  0.11932188  1
  Na  Na61  1  0.60939810  0.08294117  0.36774074  1
  Na  Na62  1  0.60934002  0.08273997  0.61817754  1
  Na  Na63  1  0.60912285  0.08213644  0.86934050  1
  Na  Na64  1  0.60973922  0.41760655  0.11905961  1
  Na  Na65  1  0.60879726  0.41730512  0.36744646  1
  Na  Na66  1  0.60944132  0.41874472  0.61882294  1
  Na  Na67  1  0.60976791  0.41743358  0.86842133  1
  Na  Na68  1  0.60938150  0.75004204  0.11934830  1
  Na  Na69  1  0.60994245  0.74858253  0.36884646  1
  Na  Na70  1  0.60945712  0.74887098  0.61813650  1
  Na  Na71  1  0.60937359  0.74832659  0.86861103  1
  Na  Na72  1  0.39032484  0.25105894  0.13319613  1
  Na  Na73  1  0.39007477  0.24952502  0.38167309  1
  Na  Na74  1  0.39001549  0.25075862  0.63168678  1
  Na  Na75  1  0.39023137  0.25097952  0.88099357  1
  Na  Na76  1  0.39045666  0.58370277  0.13191089  1
  Na  Na77  1  0.39081139  0.58439739  0.38072915  1
  Na  Na78  1  0.39063884  0.58458337  0.63128943  1
  Na  Na79  1  0.39007370  0.58415982  0.88171617  1
  Na  Na80  1  0.39046545  0.91559388  0.13242237  1
  Na  Na81  1  0.39056212  0.91506772  0.38285998  1
  Na  Na82  1  0.39077300  0.91523394  0.63015484  1
  Na  Na83  1  0.39069066  0.91492164  0.88092363  1
  Na  Na84  1  0.89018823  0.25060803  0.13020743  1
  Na  Na85  1  0.88984988  0.24896546  0.38010575  1
  Na  Na86  1  0.89033189  0.25040425  0.63239327  1
  Na  Na87  1  0.89068068  0.25104841  0.88242135  1
  Na  Na88  1  0.89053574  0.58301198  0.12982939  1
  Na  Na89  1  0.89004094  0.58356831  0.38145424  1
  Na  Na90  1  0.89021900  0.58392266  0.63209783  1
  Na  Na91  1  0.89062118  0.58338102  0.88180431  1
  Na  Na92  1  0.89021202  0.91718452  0.13035172  1
  Na  Na93  1  0.89067514  0.91595387  0.38019110  1
  Na  Na94  1  0.89084105  0.91655796  0.63127826  1
  Na  Na95  1  0.89125588  0.91688765  0.88170041  1
  Mn  Mn96  1  0.24915427  0.33269545  0.37544353  1
  Mn  Mn97  1  0.75042443  0.83207346  0.87449812  1
  Mn  Mn98  1  0.25094307  0.83269598  0.87494807  1
  Mn  Mn99  1  0.49896415  -0.00165242  0.00000557  1
  Mn  Mn100  1  0.50044094  0.16637353  0.49988510  1
  Mn  Mn101  1  0.75072896  0.00028446  0.37435495  1
  Mn  Mn102  1  0.74967486  0.00035961  0.62430157  1
  Mn  Mn103  1  0.50030063  0.33453482  0.74999467  1
  Mn  Mn104  1  0.00058325  0.00074177  0.24949547  1
  Mn  Mn105  1  0.25030550  0.66743482  0.62469192  1
  Mn  Mn106  1  0.00013249  0.83323326  0.24931657  1
  Mn  Mn107  1  0.24911144  0.50030522  0.37515796  1
  Mn  Mn108  1  0.75060918  0.83211682  0.62418000  1
  Mn  Mn109  1  0.74936175  0.16776415  0.87621159  1
  Mn  Mn110  1  0.25018584  0.00046937  0.62459442  1
  Mn  Mn111  1  0.74987927  0.66621804  0.12480625  1
  Mn  Mn112  1  0.25019781  0.00071089  0.87431882  1
  Mn  Mn113  1  0.49939142  -0.00190823  0.74958314  1
  Mn  Mn114  1  -0.00005379  0.16653123  0.50059822  1
  Mn  Mn115  1  0.49961880  0.16654664  0.00032906  1
  Mn  Mn116  1  0.25000896  -0.00022694  0.12569282  1
  Mn  Mn117  1  0.74961124  0.50073114  0.37495523  1
  Mn  Mn118  1  -0.00044542  0.33260997  0.24871733  1
  Mn  Mn119  1  0.49997861  0.16628755  0.74968670  1
  Mn  Mn120  1  0.75075143  0.83244539  0.37449340  1
  Mn  Mn121  1  0.25008693  0.83289315  0.12542215  1
  Mn  Mn122  1  0.74980335  0.50006163  0.87487954  1
  Mn  Mn123  1  0.00026007  -0.00010666  0.49999630  1
  Mn  Mn124  1  -0.00047350  0.50065945  0.49995660  1
  Mn  Mn125  1  0.49966220  -0.00131738  0.25017862  1
  Mn  Mn126  1  0.74950422  0.16649182  0.12448118  1
  Mn  Mn127  1  0.75051056  0.33476016  0.62432576  1
  Mn  Mn128  1  -0.00006572  0.16668716  0.75077708  1
  Mn  Mn129  1  0.50012164  0.33456546  0.50000677  1
  Mn  Mn130  1  0.00120076  0.83263048  0.50039304  1
  Mn  Mn131  1  0.24958196  0.66563035  0.12558254  1
  Mn  Mn132  1  0.50021045  0.33412190  0.00053729  1
  Mn  Mn133  1  -0.00037783  0.33340065  0.50010272  1
  Mn  Mn134  1  0.24934209  0.16745158  0.12545042  1
  Mn  Mn135  1  0.49950631  0.50150039  0.00007819  1
  Mn  Mn136  1  0.24989143  0.16842726  0.87586035  1
  Mn  Mn137  1  0.74986306  0.16758776  0.62562618  1
  Mn  Mn138  1  0.25054340  0.49985421  0.62487671  1
  Mn  Mn139  1  0.00033481  0.49994367  0.24937395  1
  Mn  Mn140  1  0.00016865  0.66712666  0.75098682  1
  Mn  Mn141  1  0.74941428  0.33298763  0.37526551  1
  Mn  Mn142  1  0.00024893  0.66627885  0.24891150  1
  Mn  Mn143  1  0.74982244  -0.00050378  0.87519405  1
  Fe  Fe144  1  0.00028429  0.66684764  0.50084187  1
  Fe  Fe145  1  0.25031586  0.66694680  0.37487767  1
  Fe  Fe146  1  0.74972361  0.50087670  0.62542283  1
  Fe  Fe147  1  -0.00002904  0.83385000  -0.00063266  1
  Fe  Fe148  1  0.49990001  0.83197379  0.00069558  1
  Fe  Fe149  1  0.74973168  0.83280039  0.12515587  1
  Fe  Fe150  1  0.25025660  0.33389746  0.12474010  1
  Fe  Fe151  1  0.25012708  0.83322884  0.62477230  1
  Fe  Fe152  1  0.74992241  0.66620085  0.62496144  1
  Fe  Fe153  1  0.00032040  0.83365594  0.75032253  1
  Fe  Fe154  1  -0.00022786  0.00027738  -0.00031629  1
  Fe  Fe155  1  0.49964117  0.66670217  0.74983980  1
  Fe  Fe156  1  0.75042858  0.66595707  0.37472778  1
  Fe  Fe157  1  0.25021345  -0.00022438  0.37605709  1
  Fe  Fe158  1  0.00017658  0.33355881  -0.00039530  1
  Fe  Fe159  1  0.74969604  0.16652810  0.37398730  1
  Fe  Fe160  1  0.49928740  0.50089460  0.49908940  1
  Fe  Fe161  1  0.74923471  -0.00065769  0.12518682  1
  Fe  Fe162  1  0.25053263  0.49956369  0.12434395  1
  Fe  Fe163  1  0.74982831  0.33333688  0.12510456  1
  Fe  Fe164  1  0.00051324  0.66671205  -0.00094784  1
  Fe  Fe165  1  0.24983054  0.16728220  0.62520170  1
  Fe  Fe166  1  0.49888846  0.16617034  0.25055055  1
  Fe  Fe167  1  0.25017287  0.49969574  0.87478112  1
  Fe  Fe168  1  0.50041566  0.83208413  0.50054645  1
  Fe  Fe169  1  0.50043380  0.83225116  0.25107693  1
  Fe  Fe170  1  0.49989167  0.66698739  0.25060618  1
  Fe  Fe171  1  0.25083593  0.33392231  0.87478471  1
  Fe  Fe172  1  0.50007645  0.66641782  0.49994262  1
  Fe  Fe173  1  0.25000927  0.16686065  0.37519954  1
  Fe  Fe174  1  0.00003591  0.33394481  0.75115460  1
  Fe  Fe175  1  0.50068756  0.83205120  0.74990997  1
  Fe  Fe176  1  0.49986898  0.33392414  0.25058625  1
  Fe  Fe177  1  0.24995998  0.66643605  0.87524234  1
  Fe  Fe178  1  0.74997081  0.66601607  0.87523846  1
  Fe  Fe179  1  -0.00020918  0.16707038  -0.00067567  1
  Fe  Fe180  1  -0.00011712  0.16683447  0.24902549  1
  Fe  Fe181  1  0.50018802  -0.00124247  0.49933705  1
  Fe  Fe182  1  0.24982049  0.33344289  0.62528892  1
  Fe  Fe183  1  0.00054144  0.50028149  0.75066371  1
  Fe  Fe184  1  0.24990441  0.83309833  0.37544406  1
  Fe  Fe185  1  0.49942063  0.50110244  0.74956461  1
  Fe  Fe186  1  0.75012593  0.49971244  0.12439671  1
  Fe  Fe187  1  0.50012252  0.50096471  0.24997956  1
  Fe  Fe188  1  0.74974195  0.33434878  0.87505290  1
  Fe  Fe189  1  -0.00033551  -0.00008309  0.75071022  1
  Fe  Fe190  1  0.50052662  0.66716958  0.00046390  1
  Fe  Fe191  1  0.00011212  0.49995050  -0.00067299  1
  P  P192  1  0.04126588  0.24967452  0.10107946  1
  P  P193  1  0.04219823  0.24867063  0.35174327  1
  P  P194  1  0.04240645  0.25066573  0.60424318  1
  P  P195  1  0.04189406  0.25147010  0.85351671  1
  P  P196  1  0.04184263  0.58318210  0.10043578  1
  P  P197  1  0.04291874  0.58352912  0.35323504  1
  P  P198  1  0.04231424  0.58447433  0.60326735  1
  P  P199  1  0.04210798  0.58215076  0.85352655  1
  P  P200  1  0.04151711  0.91688913  0.10092563  1
  P  P201  1  0.04322364  0.91646193  0.35273398  1
  P  P202  1  0.04311682  0.91680237  0.60427122  1
  P  P203  1  0.04146062  0.91669946  0.85252592  1
  P  P204  1  0.54179869  0.25012114  0.10467191  1
  P  P205  1  0.54096742  0.24994816  0.35139078  1
  P  P206  1  0.54280435  0.25067748  0.60290069  1
  P  P207  1  0.54286871  0.25022407  0.85312130  1
  P  P208  1  0.54191176  0.58532377  0.10335574  1
  P  P209  1  0.54135416  0.58366078  0.35206416  1
  P  P210  1  0.54064802  0.58340496  0.60178329  1
  P  P211  1  0.54134998  0.58387994  0.85145518  1
  P  P212  1  0.54164104  0.91440559  0.10321948  1
  P  P213  1  0.54217897  0.91447364  0.35359507  1
  P  P214  1  0.54183067  0.91544117  0.60158252  1
  P  P215  1  0.54213001  0.91373522  0.85277409  1
  P  P216  1  0.45703113  0.08366594  0.14822247  1
  P  P217  1  0.45821618  0.08177742  0.39725907  1
  P  P218  1  0.45750616  0.08202319  0.64594077  1
  P  P219  1  0.45668081  0.08249531  0.89691423  1
  P  P220  1  0.45887372  0.41760405  0.14900598  1
  P  P221  1  0.45777024  0.41831744  0.39650078  1
  P  P222  1  0.45762283  0.41916697  0.64694500  1
  P  P223  1  0.45746803  0.41797335  0.89662532  1
  P  P224  1  0.45831528  0.75003331  0.14875840  1
  P  P225  1  0.45925373  0.74957724  0.39824359  1
  P  P226  1  0.45878728  0.74975793  0.64779431  1
  P  P227  1  0.45863270  0.74930520  0.89810044  1
  P  P228  1  0.95788891  0.08495588  0.14603133  1
  P  P229  1  0.95758986  0.08361700  0.39620397  1
  P  P230  1  0.95753176  0.08221144  0.64840470  1
  P  P231  1  0.95833647  0.08329588  0.89822660  1
  P  P232  1  0.95773120  0.41683687  0.14520510  1
  P  P233  1  0.95661788  0.41647421  0.39663235  1
  P  P234  1  0.95858911  0.41734969  0.64917413  1
  P  P235  1  0.95909175  0.41692032  0.89774841  1
  P  P236  1  0.95772630  0.75001077  0.14502985  1
  P  P237  1  0.95789642  0.74840648  0.39778422  1
  P  P238  1  0.95822167  0.75095583  0.64795585  1
  P  P239  1  0.95876801  0.75068174  0.89804175  1
  P  P240  1  0.20742891  0.08329500  0.22934929  1
  P  P241  1  0.20891173  0.08403019  0.47717972  1
  P  P242  1  0.20763369  0.08523975  0.72734487  1
  P  P243  1  0.20693396  0.08391134  0.97816514  1
  P  P244  1  0.20826432  0.41681695  0.22601890  1
  P  P245  1  0.20681210  0.41618177  0.47869667  1
  P  P246  1  0.20843837  0.41589103  0.72820859  1
  P  P247  1  0.20930141  0.41653302  0.97682690  1
  P  P248  1  0.20739145  0.74981734  0.22920208  1
  P  P249  1  0.20886431  0.75021102  0.47699674  1
  P  P250  1  0.20820440  0.75103119  0.72787961  1
  P  P251  1  0.20794652  0.74819075  0.97756029  1
  P  P252  1  0.70747421  0.08217201  0.22735897  1
  P  P253  1  0.70747104  0.08470751  0.47674836  1
  P  P254  1  0.70676300  0.08356705  0.72834341  1
  P  P255  1  0.70693215  0.08266519  0.97892070  1
  P  P256  1  0.70843512  0.41696849  0.22641286  1
  P  P257  1  0.70658628  0.41768148  0.47822217  1
  P  P258  1  0.70779049  0.41843367  0.72758878  1
  P  P259  1  0.70753535  0.41559227  0.97821042  1
  P  P260  1  0.70780903  0.75048509  0.22756757  1
  P  P261  1  0.70842779  0.74758654  0.47741358  1
  P  P262  1  0.70789512  0.74812513  0.72738264  1
  P  P263  1  0.70788164  0.74825572  0.97768285  1
  P  P264  1  0.29247849  0.25199465  0.02275062  1
  P  P265  1  0.29198580  0.24934069  0.27258539  1
  P  P266  1  0.29147136  0.24987175  0.52349670  1
  P  P267  1  0.29235861  0.25178701  0.77188994  1
  P  P268  1  0.29219826  0.58174931  0.02189513  1
  P  P269  1  0.29210597  0.58403578  0.27244820  1
  P  P270  1  0.29274668  0.58389328  0.52132906  1
  P  P271  1  0.29147046  0.58361442  0.77359950  1
  P  P272  1  0.29298740  0.91627689  0.02215567  1
  P  P273  1  0.29168058  0.91634010  0.27450220  1
  P  P274  1  0.29202630  0.91530041  0.52175043  1
  P  P275  1  0.29282357  0.91659898  0.77106664  1
  P  P276  1  0.79171371  0.25187729  0.02228831  1
  P  P277  1  0.79148733  0.24924039  0.27162448  1
  P  P278  1  0.79298359  0.25006661  0.52145283  1
  P  P279  1  0.79247376  0.25210542  0.77322052  1
  P  P280  1  0.79200204  0.58188580  0.02197677  1
  P  P281  1  0.79240647  0.58412174  0.27175648  1
  P  P282  1  0.79158233  0.58333809  0.52325635  1
  P  P283  1  0.79213584  0.58481931  0.77215776  1
  P  P284  1  0.79086940  0.91592172  0.02348019  1
  P  P285  1  0.79288191  0.91639424  0.27053098  1
  P  P286  1  0.79321553  0.91638211  0.52144992  1
  P  P287  1  0.79309465  0.91617589  0.77168534  1
  O  O288  1  0.03644442  0.24945394  0.18105134  1
  O  O289  1  0.03725260  0.24913607  0.43173108  1
  O  O290  1  0.03717678  0.25121161  0.68418822  1
  O  O291  1  0.03641741  0.25113579  0.93338597  1
  O  O292  1  0.03720823  0.58330434  0.18045097  1
  O  O293  1  0.03789174  0.58395050  0.43321014  1
  O  O294  1  0.03719010  0.58391345  0.68322313  1
  O  O295  1  0.03657537  0.58228961  0.93333956  1
  O  O296  1  0.03676533  0.91710567  0.18090426  1
  O  O297  1  0.03835227  0.91637015  0.43269859  1
  O  O298  1  0.03771483  0.91702751  0.68419653  1
  O  O299  1  0.03604230  0.91665432  0.93243742  1
  O  O300  1  0.53616558  0.24985091  0.18454805  1
  O  O301  1  0.53661196  0.25022556  0.43142282  1
  O  O302  1  0.53777404  0.25060391  0.68283695  1
  O  O303  1  0.53764372  0.25039828  0.93312616  1
  O  O304  1  0.53670764  0.58511797  0.18317418  1
  O  O305  1  0.53619633  0.58298093  0.43187677  1
  O  O306  1  0.53565379  0.58363703  0.68162814  1
  O  O307  1  0.53675694  0.58441749  0.93142191  1
  O  O308  1  0.53654682  0.91453460  0.18318329  1
  O  O309  1  0.53671073  0.91501701  0.43346266  1
  O  O310  1  0.53678190  0.91524462  0.68154715  1
  O  O311  1  0.53656284  0.91365459  0.93268851  1
  O  O312  1  0.46187722  0.08346240  0.06823911  1
  O  O313  1  0.46335048  0.08249481  0.31728141  1
  O  O314  1  0.46314392  0.08156426  0.56601688  1
  O  O315  1  0.46192204  0.08236304  0.81694777  1
  O  O316  1  0.46334987  0.41747496  0.06900728  1
  O  O317  1  0.46320120  0.41779664  0.31665360  1
  O  O318  1  0.46279777  0.41920585  0.56698007  1
  O  O319  1  0.46261917  0.41841347  0.81669100  1
  O  O320  1  0.46337594  0.75021702  0.06887580  1
  O  O321  1  0.46427372  0.74941404  0.31840737  1
  O  O322  1  0.46381046  0.74965213  0.56796447  1
  O  O323  1  0.46361755  0.74916642  0.81824610  1
  O  O324  1  0.96326386  0.08488736  0.06615601  1
  O  O325  1  0.96283021  0.08419178  0.31622962  1
  O  O326  1  0.96254889  0.08254766  0.56842371  1
  O  O327  1  0.96335062  0.08245242  0.81829009  1
  O  O328  1  0.96313258  0.41688491  0.06533364  1
  O  O329  1  0.96171264  0.41643701  0.31665387  1
  O  O330  1  0.96341595  0.41729973  0.56917478  1
  O  O331  1  0.96419069  0.41658778  0.81786555  1
  O  O332  1  0.96311564  0.75016969  0.06515452  1
  O  O333  1  0.96274793  0.74864956  0.31778294  1
  O  O334  1  0.96370287  0.74991520  0.56807403  1
  O  O335  1  0.96371113  0.75098828  0.81808410  1
  O  O336  1  0.21177103  0.08372772  0.05815477  1
  O  O337  1  0.21292832  0.08327270  0.30925447  1
  O  O338  1  0.21400142  0.08433488  0.55714191  1
  O  O339  1  0.21292529  0.08514477  0.80726932  1
  O  O340  1  0.21403968  0.41695375  0.05674699  1
  O  O341  1  0.21261689  0.41666264  0.30603609  1
  O  O342  1  0.21230502  0.41581536  0.55857912  1
  O  O343  1  0.21397695  0.41605109  0.80805899  1
  O  O344  1  0.21259234  0.74839153  0.05756060  1
  O  O345  1  0.21276762  0.74977833  0.30912931  1
  O  O346  1  0.21404764  0.75082447  0.55698575  1
  O  O347  1  0.21357134  0.74997125  0.80779958  1
  O  O348  1  0.71225185  0.08204598  0.05888127  1
  O  O349  1  0.71282474  0.08309271  0.30727900  1
  O  O350  1  0.71235481  0.08454263  0.55677053  1
  O  O351  1  0.71180365  0.08357715  0.80834025  1
  O  O352  1  0.71296256  0.41589455  0.05808372  1
  O  O353  1  0.71330390  0.41701798  0.30639263  1
  O  O354  1  0.71171404  0.41830695  0.55816555  1
  O  O355  1  0.71284423  0.41784441  0.80754952  1
  O  O356  1  0.71311319  0.74901248  0.05759524  1
  O  O357  1  0.71302485  0.74983501  0.30744380  1
  O  O358  1  0.71358774  0.74734730  0.55739098  1
  O  O359  1  0.71293416  0.74798042  0.80735264  1
  O  O360  1  0.28692588  0.25020107  0.19268011  1
  O  O361  1  0.28618278  0.24917110  0.44353914  1
  O  O362  1  0.28676372  0.25131870  0.69204294  1
  O  O363  1  0.28762596  0.25241429  0.94276431  1
  O  O364  1  0.28714058  0.58337976  0.19250271  1
  O  O365  1  0.28738586  0.58440855  0.44143791  1
  O  O366  1  0.28676893  0.58353941  0.69362310  1
  O  O367  1  0.28686957  0.58223631  0.94202670  1
  O  O368  1  0.28719819  0.91664938  0.19447181  1
  O  O369  1  0.28611457  0.91533006  0.44190654  1
  O  O370  1  0.28733324  0.91604237  0.69113691  1
  O  O371  1  0.28822514  0.91625916  0.94215717  1
  O  O372  1  0.78598727  0.24996349  0.19169887  1
  O  O373  1  0.78778122  0.24942091  0.44148050  1
  O  O374  1  0.78747695  0.25178935  0.69321666  1
  O  O375  1  0.78650543  0.25223465  0.94238765  1
  O  O376  1  0.78716083  0.58330739  0.19183863  1
  O  O377  1  0.78674693  0.58378338  0.44326594  1
  O  O378  1  0.78702114  0.58458359  0.69225343  1
  O  O379  1  0.78674188  0.58244791  0.94206577  1
  O  O380  1  0.78708714  0.91622005  0.19064231  1
  O  O381  1  0.78835883  0.91628474  0.44144502  1
  O  O382  1  0.78815915  0.91630982  0.69172090  1
  O  O383  1  0.78610624  0.91576438  0.94347055  1
  O  O384  1  0.22800338  0.25219896  0.05795473  1
  O  O385  1  0.22763016  0.24827096  0.30810128  1
  O  O386  1  0.22736045  0.24996982  0.55969511  1
  O  O387  1  0.22824722  0.25251910  0.80819207  1
  O  O388  1  0.22799793  0.58097783  0.05789960  1
  O  O389  1  0.22778656  0.58493824  0.30796105  1
  O  O390  1  0.22852116  0.58359707  0.55688167  1
  O  O391  1  0.22730249  0.58406319  0.80933928  1
  O  O392  1  0.22838323  0.91625266  0.05679183  1
  O  O393  1  0.22740631  0.91586061  0.30989175  1
  O  O394  1  0.22811962  0.91512683  0.55846025  1
  O  O395  1  0.22858833  0.91638346  0.80669740  1
  O  O396  1  0.72752619  0.25158495  0.05806784  1
  O  O397  1  0.72733248  0.24871083  0.30769214  1
  O  O398  1  0.72855551  0.25075066  0.55654397  1
  O  O399  1  0.72803399  0.25237826  0.80849454  1
  O  O400  1  0.72781359  0.58156513  0.05780370  1
  O  O401  1  0.72805876  0.58489291  0.30738319  1
  O  O402  1  0.72731834  0.58281750  0.55909794  1
  O  O403  1  0.72783394  0.58503446  0.80789574  1
  O  O404  1  0.72667699  0.91602951  0.05922157  1
  O  O405  1  0.72878170  0.91631189  0.30652458  1
  O  O406  1  0.72867090  0.91599078  0.55619610  1
  O  O407  1  0.72857993  0.91585486  0.80648132  1
  O  O408  1  0.27163830  0.08370442  0.19358685  1
  O  O409  1  0.27293982  0.08447995  0.44096328  1
  O  O410  1  0.27184597  0.08538190  0.69155802  1
  O  O411  1  0.27145941  0.08415988  0.94338854  1
  O  O412  1  0.27270690  0.41701248  0.19068052  1
  O  O413  1  0.27104356  0.41652345  0.44312506  1
  O  O414  1  0.27246713  0.41542269  0.69184042  1
  O  O415  1  0.27338103  0.41616861  0.94074470  1
  O  O416  1  0.27170916  0.74953438  0.19371134  1
  O  O417  1  0.27298994  0.75021119  0.44089565  1
  O  O418  1  0.27244423  0.75168646  0.69206642  1
  O  O419  1  0.27243844  0.74786781  0.94255359  1
  O  O420  1  0.77163120  0.08173163  0.19150236  1
  O  O421  1  0.77191436  0.08526918  0.44150319  1
  O  O422  1  0.77130679  0.08350731  0.69353748  1
  O  O423  1  0.77131100  0.08327039  0.94370558  1
  O  O424  1  0.77259122  0.41711866  0.19052858  1
  O  O425  1  0.77100535  0.41711549  0.44317209  1
  O  O426  1  0.77211976  0.41920446  0.69202206  1
  O  O427  1  0.77172186  0.41546678  0.94209366  1
  O  O428  1  0.77199741  0.75080853  0.19175845  1
  O  O429  1  0.77268448  0.74759902  0.44170447  1
  O  O430  1  0.77225140  0.74803951  0.69193145  1
  O  O431  1  0.77219200  0.74769280  0.94196678  1
  O  O432  1  0.02202449  0.08548171  0.18234228  1
  O  O433  1  0.02196333  0.08344877  0.43163257  1
  O  O434  1  0.02190204  0.08229051  0.68382375  1
  O  O435  1  0.02248665  0.08407533  0.93413302  1
  O  O436  1  0.02197455  0.41643560  0.18095988  1
  O  O437  1  0.02108210  0.41681802  0.43167483  1
  O  O438  1  0.02280460  0.41736875  0.68509173  1
  O  O439  1  0.02313503  0.41758641  0.93405634  1
  O  O440  1  0.02197527  0.74998692  0.18083225  1
  O  O441  1  0.02237084  0.74783917  0.43313775  1
  O  O442  1  0.02237647  0.75164520  0.68406216  1
  O  O443  1  0.02295958  0.75118742  0.93386922  1
  O  O444  1  0.52140020  0.08339781  0.18354348  1
  O  O445  1  0.52244807  0.08152357  0.43295894  1
  O  O446  1  0.52167594  0.08196802  0.68173651  1
  O  O447  1  0.52102382  0.08227951  0.93225497  1
  O  O448  1  0.52311956  0.41764253  0.18448779  1
  O  O449  1  0.52190605  0.41872791  0.43266694  1
  O  O450  1  0.52187300  0.41959985  0.68279451  1
  O  O451  1  0.52177259  0.41800151  0.93208621  1
  O  O452  1  0.52250030  0.74971063  0.18503799  1
  O  O453  1  0.52324855  0.74997523  0.43468392  1
  O  O454  1  0.52286601  0.74954774  0.68417062  1
  O  O455  1  0.52273957  0.74947646  0.93455574  1
  O  O456  1  0.47768278  0.25041733  0.06860767  1
  O  O457  1  0.47661618  0.25001910  0.31614523  1
  O  O458  1  0.47839108  0.25053374  0.56779714  1
  O  O459  1  0.47846442  0.25046789  0.81793710  1
  O  O460  1  0.47774192  0.58595703  0.06723625  1
  O  O461  1  0.47729506  0.58419933  0.31567193  1
  O  O462  1  0.47664903  0.58317512  0.56531751  1
  O  O463  1  0.47706303  0.58339683  0.81565504  1
  O  O464  1  0.47737476  0.91402135  0.06747608  1
  O  O465  1  0.47801390  0.91417745  0.31745291  1
  O  O466  1  0.47769996  0.91511977  0.56540772  1
  O  O467  1  0.47795862  0.91332191  0.81669222  1
  O  O468  1  0.97710968  0.24948466  0.06514319  1
  O  O469  1  0.97778976  0.24831630  0.31627838  1
  O  O470  1  0.97803736  0.25021480  0.56888320  1
  O  O471  1  0.97779102  0.25136291  0.81734301  1
  O  O472  1  0.97755982  0.58275127  0.06493607  1
  O  O473  1  0.97849377  0.58319109  0.31802003  1
  O  O474  1  0.97799492  0.58514459  0.56749982  1
  O  O475  1  0.97804528  0.58192260  0.81723277  1
  O  O476  1  0.97722425  0.91616262  0.06531596  1
  O  O477  1  0.97878464  0.91688462  0.31764027  1
  O  O478  1  0.97892774  0.91636231  0.56841269  1
  O  O479  1  0.97745273  0.91624216  0.81595818  1
  O  O480  1  0.07148358  0.31388818  0.07295910  1
  O  O481  1  0.07301729  0.31244217  0.32373643  1
  O  O482  1  0.07342614  0.31387845  0.57545992  1
  O  O483  1  0.07272568  0.31498104  0.82496420  1
  O  O484  1  0.07204308  0.64722650  0.07213642  1
  O  O485  1  0.07403496  0.64665835  0.32443778  1
  O  O486  1  0.07312889  0.64812882  0.57501506  1
  O  O487  1  0.07320613  0.64584780  0.82571831  1
  O  O488  1  0.07146493  0.98108494  0.07264748  1
  O  O489  1  0.07444797  0.97978802  0.32460968  1
  O  O490  1  0.07418327  0.98018852  0.57565640  1
  O  O491  1  0.07201627  0.98063414  0.82435365  1
  O  O492  1  0.57318497  0.31357956  0.07660858  1
  O  O493  1  0.57163917  0.31375760  0.32312389  1
  O  O494  1  0.57364935  0.31432890  0.57492388  1
  O  O495  1  0.57401873  0.31366918  0.82501493  1
  O  O496  1  0.57321368  0.64838642  0.07445496  1
  O  O497  1  0.57263936  0.64713946  0.32410872  1
  O  O498  1  0.57122435  0.64723352  0.57310507  1
  O  O499  1  0.57186394  0.64746826  0.82260279  1
  O  O500  1  0.57227921  0.97832994  0.07536575  1
  O  O501  1  0.57331035  0.97791424  0.32516851  1
  O  O502  1  0.57221746  0.97936044  0.57320461  1
  O  O503  1  0.57287652  0.97767625  0.82511576  1
  O  O504  1  0.42571805  0.02013377  0.17594014  1
  O  O505  1  0.42763687  0.01794416  0.42529884  1
  O  O506  1  0.42594074  0.01890475  0.67418915  1
  O  O507  1  0.42558610  0.01898822  0.92495533  1
  O  O508  1  0.42824519  0.35393590  0.17755686  1
  O  O509  1  0.42670603  0.35473028  0.42483127  1
  O  O510  1  0.42705456  0.35513349  0.67462249  1
  O  O511  1  0.42659913  0.35433430  0.92470876  1
  O  O512  1  0.42719060  0.68652503  0.17707779  1
  O  O513  1  0.42878394  0.68571206  0.42679575  1
  O  O514  1  0.42775221  0.68626707  0.67647285  1
  O  O515  1  0.42803132  0.68564393  0.92690810  1
  O  O516  1  0.92714034  0.02108390  0.17392013  1
  O  O517  1  0.92661088  0.01989401  0.42397814  1
  O  O518  1  0.92695639  0.01858235  0.67680132  1
  O  O519  1  0.92793069  0.01957571  0.92715717  1
  O  O520  1  0.92628553  0.35355294  0.17349366  1
  O  O521  1  0.92584814  0.35287201  0.42480564  1
  O  O522  1  0.92776182  0.35371332  0.67736125  1
  O  O523  1  0.92876786  0.35307139  0.92659827  1
  O  O524  1  0.92653588  0.68655394  0.17329180  1
  O  O525  1  0.92706904  0.68507685  0.42657940  1
  O  O526  1  0.92717035  0.68751350  0.67631167  1
  O  O527  1  0.92885497  0.68624248  0.92592198  1
  O  O528  1  0.17648410  0.01970637  0.20087594  1
  O  O529  1  0.17884279  0.01960543  0.44932955  1
  O  O530  1  0.17670849  0.02147402  0.69967130  1
  O  O531  1  0.17616870  0.02043550  0.94958413  1
  O  O532  1  0.17781250  0.35295237  0.19760186  1
  O  O533  1  0.17571561  0.35282319  0.45015160  1
  O  O534  1  0.17719026  0.35269939  0.69945820  1
  O  O535  1  0.17799908  0.35315460  0.94849148  1
  O  O536  1  0.17592117  0.68666169  0.20059524  1
  O  O537  1  0.17837967  0.68613076  0.44921363  1
  O  O538  1  0.17713279  0.68748581  0.69957940  1
  O  O539  1  0.17722616  0.68467424  0.94900519  1
  O  O540  1  0.67664346  0.01836141  0.19944139  1
  O  O541  1  0.67687313  0.02073197  0.44902029  1
  O  O542  1  0.67579558  0.02006120  0.69998018  1
  O  O543  1  0.67582074  0.01940184  0.95028139  1
  O  O544  1  0.67774713  0.35307978  0.19861392  1
  O  O545  1  0.67538867  0.35416991  0.45009944  1
  O  O546  1  0.67686254  0.35491770  0.69932807  1
  O  O547  1  0.67653624  0.35229908  0.94938022  1
  O  O548  1  0.67653077  0.68710978  0.19939425  1
  O  O549  1  0.67756244  0.68427689  0.44848771  1
  O  O550  1  0.67682063  0.68500775  0.69829438  1
  O  O551  1  0.67715965  0.68452889  0.94947191  1
  O  O552  1  0.32348346  0.31514062  0.05192980  1
  O  O553  1  0.32251915  0.31310024  0.30106621  1
  O  O554  1  0.32211817  0.31396161  0.55110881  1
  O  O555  1  0.32375197  0.31501563  0.80035957  1
  O  O556  1  0.32300415  0.64536108  0.05043379  1
  O  O557  1  0.32316449  0.64751081  0.30087793  1
  O  O558  1  0.32393071  0.64713987  0.54996891  1
  O  O559  1  0.32257139  0.64715941  0.80169292  1
  O  O560  1  0.32385098  0.97976760  0.05054347  1
  O  O561  1  0.32181042  0.98031715  0.30320932  1
  O  O562  1  0.32317804  0.97911532  0.54921243  1
  O  O563  1  0.32349267  0.98060826  0.79863759  1
  O  O564  1  0.82264331  0.31505809  0.05137878  1
  O  O565  1  0.82269954  0.31273036  0.29963406  1
  O  O566  1  0.82413613  0.31374549  0.54934004  1
  O  O567  1  0.82319490  0.31573274  0.80149159  1
  O  O568  1  0.82329427  0.64527484  0.05000048  1
  O  O569  1  0.82328802  0.64771960  0.30004654  1
  O  O570  1  0.82227289  0.64688535  0.55195746  1
  O  O571  1  0.82318189  0.64805232  0.80118214  1
  O  O572  1  0.82170861  0.97968517  0.05141991  1
  O  O573  1  0.82416799  0.97985406  0.29865786  1
  O  O574  1  0.82382073  0.98014448  0.54952242  1
  O  O575  1  0.82392898  0.97960811  0.80029167  1
  O  O576  1  0.42662479  0.14738034  0.17686163  1
  O  O577  1  0.42691894  0.14523156  0.42527734  1
  O  O578  1  0.42660391  0.14586491  0.67366923  1
  O  O579  1  0.42573311  0.14611438  0.92485705  1
  O  O580  1  0.42805825  0.48139568  0.17688340  1
  O  O581  1  0.42664520  0.48172177  0.42490570  1
  O  O582  1  0.42633317  0.48225729  0.67571822  1
  O  O583  1  0.42625742  0.48118647  0.92525186  1
  O  O584  1  0.42761692  0.81357471  0.17769585  1
  O  O585  1  0.42779951  0.81276294  0.42672626  1
  O  O586  1  0.42800383  0.81333315  0.67637606  1
  O  O587  1  0.42748499  0.81269869  0.92666025  1
  O  O588  1  0.92667401  0.14817734  0.17478044  1
  O  O589  1  0.92638312  0.14675288  0.42500131  1
  O  O590  1  0.92630051  0.14573260  0.67633541  1
  O  O591  1  0.92701679  0.14694555  0.92570702  1
  O  O592  1  0.92674410  0.48027940  0.17371423  1
  O  O593  1  0.92542599  0.47981098  0.42498517  1
  O  O594  1  0.92798839  0.48125834  0.67713295  1
  O  O595  1  0.92745781  0.48022720  0.92579168  1
  O  O596  1  0.92660386  0.81331197  0.17379191  1
  O  O597  1  0.92728051  0.81229238  0.42563714  1
  O  O598  1  0.92722209  0.81455675  0.67586088  1
  O  O599  1  0.92703308  0.81365753  0.92645362  1
  O  O600  1  0.07278768  0.18660741  0.07262779  1
  O  O601  1  0.07303825  0.18530169  0.32318108  1
  O  O602  1  0.07344914  0.18697554  0.57638593  1
  O  O603  1  0.07330564  0.18798828  0.82559194  1
  O  O604  1  0.07311444  0.51975094  0.07246759  1
  O  O605  1  0.07391483  0.51985299  0.32510230  1
  O  O606  1  0.07328553  0.52095659  0.57503662  1
  O  O607  1  0.07322306  0.51890609  0.82472079  1
  O  O608  1  0.07305285  0.85363355  0.07293884  1
  O  O609  1  0.07376794  0.85273095  0.32451836  1
  O  O610  1  0.07452866  0.85346577  0.57597917  1
  O  O611  1  0.07279953  0.85330368  0.82422339  1
  O  O612  1  0.57300937  0.18675030  0.07616883  1
  O  O613  1  0.57154838  0.18612638  0.32329008  1
  O  O614  1  0.57399188  0.18729704  0.57472778  1
  O  O615  1  0.57369722  0.18653609  0.82525058  1
  O  O616  1  0.57255984  0.52152320  0.07499034  1
  O  O617  1  0.57189875  0.52004532  0.32289587  1
  O  O618  1  0.57192816  0.52017683  0.57315929  1
  O  O619  1  0.57226981  0.52022282  0.82331290  1
  O  O620  1  0.57280588  0.85121170  0.07460139  1
  O  O621  1  0.57325651  0.85101136  0.32521339  1
  O  O622  1  0.57315484  0.85198893  0.57356674  1
  O  O623  1  0.57347673  0.85064146  0.82403273  1
  O  O624  1  0.32309978  0.18802709  0.05045678  1
  O  O625  1  0.32319374  0.18603838  0.30095397  1
  O  O626  1  0.32263536  0.18653293  0.55199254  1
  O  O627  1  0.32318104  0.18808572  0.80022579  1
  O  O628  1  0.32344430  0.51849485  0.05060782  1
  O  O629  1  0.32277077  0.52032265  0.30062057  1
  O  O630  1  0.32382512  0.52032438  0.54924955  1
  O  O631  1  0.32174505  0.51962044  0.80178045  1
  O  O632  1  0.32380744  0.85270323  0.05050954  1
  O  O633  1  0.32297701  0.85285387  0.30233555  1
  O  O634  1  0.32317988  0.85199008  0.55031013  1
  O  O635  1  0.32446833  0.85363904  0.79966468  1
  O  O636  1  0.82279887  0.18797388  0.04953865  1
  O  O637  1  0.82221247  0.18544030  0.29955058  1
  O  O638  1  0.82399471  0.18693819  0.55048509  1
  O  O639  1  0.82330075  0.18839457  0.80122476  1
  O  O640  1  0.82267938  0.51819983  0.05021659  1
  O  O641  1  0.82326532  0.52061379  0.30021851  1
  O  O642  1  0.82242408  0.51961919  0.55139089  1
  O  O643  1  0.82312892  0.52123740  0.80045838  1
  O  O644  1  0.82151297  0.85205719  0.05145984  1
  O  O645  1  0.82432607  0.85313457  0.29893728  1
  O  O646  1  0.82438052  0.85296015  0.54955306  1
  O  O647  1  0.82412572  0.85268606  0.79985374  1
  O  O648  1  0.17588985  0.14641044  0.20081009  1
  O  O649  1  0.17730548  0.14711315  0.44884551  1
  O  O650  1  0.17670975  0.14873640  0.69915623  1
  O  O651  1  0.17598249  0.14751230  0.95021988  1
  O  O652  1  0.17755960  0.48044948  0.19767732  1
  O  O653  1  0.17557510  0.47966446  0.45071951  1
  O  O654  1  0.17750718  0.47974511  0.70044719  1
  O  O655  1  0.17883501  0.48024854  0.94772615  1
  O  O656  1  0.17650098  0.81335350  0.20063960  1
  O  O657  1  0.17749646  0.81347562  0.44870165  1
  O  O658  1  0.17725957  0.81458314  0.69979771  1
  O  O659  1  0.17715448  0.81189273  0.94959155  1
  O  O660  1  0.67618048  0.14548878  0.19913277  1
  O  O661  1  0.67654489  0.14806000  0.44809706  1
  O  O662  1  0.67587607  0.14717152  0.70028746  1
  O  O663  1  0.67580941  0.14642399  0.95140512  1
  O  O664  1  0.67765304  0.48069591  0.19830117  1
  O  O665  1  0.67563800  0.48091148  0.44931310  1
  O  O666  1  0.67690963  0.48204865  0.69939385  1
  O  O667  1  0.67640287  0.47917968  0.94998572  1
  O  O668  1  0.67712312  0.81414678  0.19915485  1
  O  O669  1  0.67745248  0.81141817  0.44990885  1
  O  O670  1  0.67710950  0.81197899  0.69952768  1
  O  O671  1  0.67686666  0.81167769  0.94934303  1
