# generated using pymatgen
data_Na2MnFe(PO4)2
_symmetry_space_group_name_H-M   'P 1'
_cell_length_a   22.34200104
_cell_length_b   20.09419581
_cell_length_c   19.45122941
_cell_angle_alpha   89.98621583
_cell_angle_beta   90.02804448
_cell_angle_gamma   89.98421364
_symmetry_Int_Tables_number   1
_chemical_formula_structural   Na2MnFe(PO4)2
_chemical_formula_sum   'Na96 Mn48 Fe48 P96 O384'
_cell_volume   8732.52167752
_cell_formula_units_Z   48
loop_
 _symmetry_equiv_pos_site_id
 _symmetry_equiv_pos_as_xyz
  1  'x, y, z'
loop_
 _atom_site_type_symbol
 _atom_site_label
 _atom_site_symmetry_multiplicity
 _atom_site_fract_x
 _atom_site_fract_y
 _atom_site_fract_z
 _atom_site_occupancy
  Na  Na0  1  0.14038214  0.25045047  0.24330469  1
  Na  Na1  1  0.14059891  0.25074124  0.49380269  1
  Na  Na2  1  0.14098171  0.25047578  0.74402930  1
  Na  Na3  1  0.14048825  0.25039482  0.99369903  1
  Na  Na4  1  0.13980137  0.58293135  0.24256284  1
  Na  Na5  1  0.14058178  0.58415006  0.49437036  1
  Na  Na6  1  0.14073988  0.58295194  0.74376089  1
  Na  Na7  1  0.14001152  0.58331908  0.99312595  1
  Na  Na8  1  0.14072800  0.91629329  0.24408626  1
  Na  Na9  1  0.14004597  0.91609984  0.49303721  1
  Na  Na10  1  0.14003216  0.91578031  0.74352855  1
  Na  Na11  1  0.14050421  0.91651693  0.99171142  1
  Na  Na12  1  0.64002449  0.24968431  0.24338890  1
  Na  Na13  1  0.64051928  0.24836434  0.49422442  1
  Na  Na14  1  0.64016738  0.25033039  0.74489456  1
  Na  Na15  1  0.63985405  0.24992655  0.99317507  1
  Na  Na16  1  0.64002110  0.58479187  0.24436282  1
  Na  Na17  1  0.63952279  0.58337032  0.49377868  1
  Na  Na18  1  0.64031375  0.58348676  0.74447919  1
  Na  Na19  1  0.64053432  0.58454974  0.99353083  1
  Na  Na20  1  0.64008359  0.91795307  0.24361801  1
  Na  Na21  1  0.63949420  0.91606799  0.49250228  1
  Na  Na22  1  0.64008883  0.91674002  0.74402393  1
  Na  Na23  1  0.64006784  0.91675493  0.99364756  1
  Na  Na24  1  0.35996729  0.08405196  0.00699995  1
  Na  Na25  1  0.35997226  0.08299596  0.25671982  1
  Na  Na26  1  0.35943627  0.08180859  0.50611060  1
  Na  Na27  1  0.35903733  0.08330004  0.75683244  1
  Na  Na28  1  0.35983988  0.41699944  0.00696489  1
  Na  Na29  1  0.35969959  0.41640008  0.25545987  1
  Na  Na30  1  0.35936354  0.41752596  0.50804386  1
  Na  Na31  1  0.35979872  0.41670341  0.75738959  1
  Na  Na32  1  0.35947957  0.74981825  0.00484851  1
  Na  Na33  1  0.35935166  0.75019793  0.25659301  1
  Na  Na34  1  0.35980035  0.74979922  0.50793272  1
  Na  Na35  1  0.35996096  0.74973121  0.75602860  1
  Na  Na36  1  0.85972184  0.08142333  0.00570223  1
  Na  Na37  1  0.85985083  0.08348728  0.25487212  1
  Na  Na38  1  0.85986599  0.08225164  0.50561116  1
  Na  Na39  1  0.85956244  0.08254317  0.75559592  1
  Na  Na40  1  0.86035513  0.41729938  0.00769098  1
  Na  Na41  1  0.86008583  0.41737025  0.25647889  1
  Na  Na42  1  0.85978145  0.41568694  0.50637091  1
  Na  Na43  1  0.86018723  0.41674874  0.75683177  1
  Na  Na44  1  0.85998967  0.74998060  0.00650071  1
  Na  Na45  1  0.85993067  0.75066199  0.25516082  1
  Na  Na46  1  0.86004278  0.75020828  0.50512117  1
  Na  Na47  1  0.85995933  0.75050497  0.75735845  1
  Na  Na48  1  0.11019475  0.08373548  0.11754451  1
  Na  Na49  1  0.10971472  0.08345454  0.36841218  1
  Na  Na50  1  0.10941541  0.08331676  0.61834550  1
  Na  Na51  1  0.11026902  0.08208538  0.86868497  1
  Na  Na52  1  0.10939873  0.41712050  0.11819956  1
  Na  Na53  1  0.10933701  0.41715889  0.36872399  1
  Na  Na54  1  0.11042453  0.41733067  0.61889535  1
  Na  Na55  1  0.11010789  0.41693562  0.86916979  1
  Na  Na56  1  0.10966457  0.74864098  0.11740486  1
  Na  Na57  1  0.11000260  0.74998887  0.36889997  1
  Na  Na58  1  0.10996456  0.75123924  0.61838987  1
  Na  Na59  1  0.10985133  0.74839751  0.86827999  1
  Na  Na60  1  0.60926256  0.08437199  0.11835999  1
  Na  Na61  1  0.60943643  0.08261050  0.36863494  1
  Na  Na62  1  0.60943769  0.08264669  0.61845785  1
  Na  Na63  1  0.60952892  0.08332791  0.86880426  1
  Na  Na64  1  0.60907018  0.41615332  0.11815989  1
  Na  Na65  1  0.60860435  0.41676118  0.36972764  1
  Na  Na66  1  0.60915640  0.41690194  0.61999130  1
  Na  Na67  1  0.60955114  0.41777178  0.86946185  1
  Na  Na68  1  0.60975746  0.75073963  0.11820736  1
  Na  Na69  1  0.60931701  0.75058851  0.36882707  1
  Na  Na70  1  0.60890544  0.74987091  0.61862012  1
  Na  Na71  1  0.60958186  0.75058168  0.86860901  1
  Na  Na72  1  0.39007137  0.24916902  0.13123718  1
  Na  Na73  1  0.39054258  0.24922941  0.38085754  1
  Na  Na74  1  0.39021727  0.25025484  0.63176218  1
  Na  Na75  1  0.39057979  0.25015957  0.88285605  1
  Na  Na76  1  0.39010840  0.58339755  0.13020875  1
  Na  Na77  1  0.39036270  0.58412989  0.38274196  1
  Na  Na78  1  0.39001732  0.58360530  0.63259612  1
  Na  Na79  1  0.38986212  0.58343921  0.88139433  1
  Na  Na80  1  0.39034108  0.91814640  0.13140867  1
  Na  Na81  1  0.38986747  0.91618552  0.38247927  1
  Na  Na82  1  0.39002646  0.91536570  0.63077488  1
  Na  Na83  1  0.39042279  0.91736947  0.88089853  1
  Na  Na84  1  0.89057090  0.25066554  0.13115477  1
  Na  Na85  1  0.89087941  0.24995026  0.38091183  1
  Na  Na86  1  0.89073067  0.25073478  0.63099478  1
  Na  Na87  1  0.89105122  0.24990248  0.88183352  1
  Na  Na88  1  0.89077935  0.58308277  0.13154825  1
  Na  Na89  1  0.89052131  0.58389997  0.38014305  1
  Na  Na90  1  0.89067014  0.58422967  0.63128490  1
  Na  Na91  1  0.89103171  0.58254879  0.88282044  1
  Na  Na92  1  0.89067941  0.91519504  0.12979164  1
  Na  Na93  1  0.89065617  0.91697278  0.38089131  1
  Na  Na94  1  0.89053751  0.91675404  0.63032242  1
  Na  Na95  1  0.89034840  0.91506176  0.88205717  1
  Mn  Mn96  1  0.00037884  0.16652278  -0.00021226  1
  Mn  Mn97  1  0.49923612  0.66665873  -0.00042447  1
  Mn  Mn98  1  0.00047155  0.66763726  0.50044544  1
  Mn  Mn99  1  0.25023755  0.50065161  0.12490907  1
  Mn  Mn100  1  0.75102109  0.33373791  0.87503237  1
  Mn  Mn101  1  0.25060056  0.16632416  0.37502090  1
  Mn  Mn102  1  0.75017382  0.66710206  0.87536410  1
  Mn  Mn103  1  0.75018586  0.66628656  0.62583184  1
  Mn  Mn104  1  0.25005071  0.50022953  0.37537622  1
  Mn  Mn105  1  0.00136055  0.83238771  0.24932059  1
  Mn  Mn106  1  -0.00032801  -0.00144141  0.74909099  1
  Mn  Mn107  1  0.49928932  0.83454743  0.24987442  1
  Mn  Mn108  1  0.25036693  0.00048181  0.12459371  1
  Mn  Mn109  1  0.50018655  0.33340903  0.50013406  1
  Mn  Mn110  1  0.74933804  0.50150470  0.12615524  1
  Mn  Mn111  1  0.75061006  0.16578585  0.87455113  1
  Mn  Mn112  1  0.74999430  0.83324559  0.62470815  1
  Mn  Mn113  1  0.24887682  -0.00094858  0.62542849  1
  Mn  Mn114  1  0.49920260  0.83442690  -0.00035525  1
  Mn  Mn115  1  0.74932205  0.50085620  0.37535473  1
  Mn  Mn116  1  0.24918443  0.16680996  0.62540952  1
  Mn  Mn117  1  0.00020670  0.50010910  0.49973211  1
  Mn  Mn118  1  0.00020242  0.16746546  0.49919575  1
  Mn  Mn119  1  0.75010005  0.83321213  0.37416146  1
  Mn  Mn120  1  0.00009953  0.66678939  0.75024277  1
  Mn  Mn121  1  0.74997811  0.33268089  0.37518036  1
  Mn  Mn122  1  0.25053452  0.33340037  0.87539830  1
  Mn  Mn123  1  0.49997445  0.16570955  0.50071991  1
  Mn  Mn124  1  0.25052272  0.83262370  0.12419695  1
  Mn  Mn125  1  0.49926018  -0.00070196  0.74962862  1
  Mn  Mn126  1  0.49938411  0.16733524  0.75012248  1
  Mn  Mn127  1  0.00044672  -0.00056279  0.24923421  1
  Mn  Mn128  1  0.25002012  0.33346071  0.37514051  1
  Mn  Mn129  1  0.75001957  -0.00012829  0.12437539  1
  Mn  Mn130  1  0.49965758  0.50015815  0.75046004  1
  Mn  Mn131  1  -0.00020071  0.16722121  0.24899007  1
  Mn  Mn132  1  0.49969775  0.49999582  0.25031268  1
  Mn  Mn133  1  0.75039751  0.49960662  0.62471628  1
  Mn  Mn134  1  0.24994003  0.83290459  0.87465734  1
  Mn  Mn135  1  0.74931624  0.33232901  0.62586564  1
  Mn  Mn136  1  0.00039230  0.16657934  0.74980381  1
  Mn  Mn137  1  0.00082883  0.33458410  0.75085476  1
  Mn  Mn138  1  0.25041924  0.66717629  0.37517937  1
  Mn  Mn139  1  0.75064728  0.16565999  0.37440534  1
  Mn  Mn140  1  0.75004373  -0.00001313  0.62477064  1
  Mn  Mn141  1  0.49989213  0.66700038  0.25032937  1
  Mn  Mn142  1  0.74952490  0.33321289  0.12509231  1
  Mn  Mn143  1  0.49914796  0.33250243  0.24957791  1
  Fe  Fe144  1  0.49983743  0.00056989  0.25053293  1
  Fe  Fe145  1  0.25053003  0.33348712  0.62558624  1
  Fe  Fe146  1  0.50037352  0.83326376  0.74956331  1
  Fe  Fe147  1  0.74954471  -0.00043192  0.87530115  1
  Fe  Fe148  1  0.00042292  -0.00096149  -0.00104925  1
  Fe  Fe149  1  0.50031232  0.16618550  0.24985218  1
  Fe  Fe150  1  0.25043253  0.00023744  0.87483022  1
  Fe  Fe151  1  0.24960198  -0.00042213  0.37513631  1
  Fe  Fe152  1  0.25017246  0.83312844  0.62504394  1
  Fe  Fe153  1  0.24965373  0.66645174  0.87423226  1
  Fe  Fe154  1  0.74995868  -0.00006043  0.37432730  1
  Fe  Fe155  1  0.24960249  0.33329504  0.12459695  1
  Fe  Fe156  1  0.00028705  0.00008199  0.49949009  1
  Fe  Fe157  1  0.25010238  0.50020677  0.87504738  1
  Fe  Fe158  1  0.24968143  0.16658026  0.12522961  1
  Fe  Fe159  1  0.49984907  0.66683183  0.50075376  1
  Fe  Fe160  1  0.25003175  0.50026774  0.62577996  1
  Fe  Fe161  1  -0.00036470  0.83365074  0.49937751  1
  Fe  Fe162  1  0.24963743  0.83302885  0.37513889  1
  Fe  Fe163  1  0.50026624  0.00079321  0.00045371  1
  Fe  Fe164  1  0.75005247  0.16591786  0.62504556  1
  Fe  Fe165  1  0.00027176  0.33376287  0.00055026  1
  Fe  Fe166  1  0.24997778  0.66675349  0.62535755  1
  Fe  Fe167  1  0.75045333  0.50053465  0.87580205  1
  Fe  Fe168  1  0.00024659  0.33389024  0.25005955  1
  Fe  Fe169  1  0.49907404  0.50020143  0.50088118  1
  Fe  Fe170  1  0.74998296  0.83370600  0.12504225  1
  Fe  Fe171  1  0.00008286  0.83290153  0.75044639  1
  Fe  Fe172  1  0.00027957  0.66558818  -0.00048688  1
  Fe  Fe173  1  0.75007124  0.66727608  0.37462081  1
  Fe  Fe174  1  0.49997042  0.33344015  0.00026878  1
  Fe  Fe175  1  0.50000826  0.83314906  0.50020840  1
  Fe  Fe176  1  0.49972820  0.16675596  0.00041786  1
  Fe  Fe177  1  -0.00005758  0.49994307  0.75086918  1
  Fe  Fe178  1  0.25024940  0.16695957  0.87504155  1
  Fe  Fe179  1  0.00054146  0.83204612  0.00006369  1
  Fe  Fe180  1  0.00003294  0.66632000  0.24914888  1
  Fe  Fe181  1  0.00010993  0.33409724  0.49991447  1
  Fe  Fe182  1  0.49945623  -0.00058136  0.49987678  1
  Fe  Fe183  1  0.49994561  0.33381200  0.75098918  1
  Fe  Fe184  1  0.50039190  0.50023516  -0.00030521  1
  Fe  Fe185  1  0.75011800  0.16629823  0.12446879  1
  Fe  Fe186  1  0.25017069  0.66651961  0.12475010  1
  Fe  Fe187  1  0.00012805  0.49951645  0.00090635  1
  Fe  Fe188  1  0.00002289  0.50001143  0.24954268  1
  Fe  Fe189  1  0.50020425  0.66672006  0.74994158  1
  Fe  Fe190  1  0.74993429  0.66790956  0.12437471  1
  Fe  Fe191  1  0.74933969  0.83344659  0.87562696  1
  P  P192  1  0.04221808  0.25169057  0.10273835  1
  P  P193  1  0.04235258  0.25163673  0.35227839  1
  P  P194  1  0.04252302  0.25191148  0.60225016  1
  P  P195  1  0.04320598  0.25013595  0.85378958  1
  P  P196  1  0.04127177  0.58318678  0.10210364  1
  P  P197  1  0.04151903  0.58367387  0.35106617  1
  P  P198  1  0.04285615  0.58356763  0.60356918  1
  P  P199  1  0.04220880  0.58191583  0.85327141  1
  P  P200  1  0.04221673  0.91612027  0.10062264  1
  P  P201  1  0.04275123  0.91638519  0.35343047  1
  P  P202  1  0.04140172  0.91623765  0.60131189  1
  P  P203  1  0.04208302  0.91462545  0.85302435  1
  P  P204  1  0.54118796  0.24976286  0.10183676  1
  P  P205  1  0.54215692  0.24841458  0.35224312  1
  P  P206  1  0.54277400  0.25020925  0.60387118  1
  P  P207  1  0.54167803  0.25162285  0.85374160  1
  P  P208  1  0.54235795  0.58245798  0.10215684  1
  P  P209  1  0.54205180  0.58362858  0.35452597  1
  P  P210  1  0.54103001  0.58357235  0.60243420  1
  P  P211  1  0.54201872  0.58441389  0.85273252  1
  P  P212  1  0.54194914  0.91880936  0.10278843  1
  P  P213  1  0.54169574  0.91789061  0.35316596  1
  P  P214  1  0.54109760  0.91625499  0.60169026  1
  P  P215  1  0.54193074  0.91594252  0.85253910  1
  P  P216  1  0.45861801  0.08355026  0.14800115  1
  P  P217  1  0.45769344  0.08167092  0.39711958  1
  P  P218  1  0.45656412  0.08279492  0.64680667  1
  P  P219  1  0.45856636  0.08347651  0.89874210  1
  P  P220  1  0.45734022  0.41654587  0.14585463  1
  P  P221  1  0.45680910  0.41776486  0.39814718  1
  P  P222  1  0.45755453  0.41588426  0.64802033  1
  P  P223  1  0.45849615  0.41663620  0.89858173  1
  P  P224  1  0.45679483  0.75055620  0.14691655  1
  P  P225  1  0.45837487  0.75007455  0.39906814  1
  P  P226  1  0.45883835  0.74970457  0.64786293  1
  P  P227  1  0.45721718  0.75038696  0.89560754  1
  P  P228  1  0.95786773  0.08259019  0.14547436  1
  P  P229  1  0.95802820  0.08242868  0.39702824  1
  P  P230  1  0.95756618  0.08317654  0.64586380  1
  P  P231  1  0.95800921  0.08154790  0.89715784  1
  P  P232  1  0.95882112  0.41661697  0.14788722  1
  P  P233  1  0.95784530  0.41579313  0.39674527  1
  P  P234  1  0.95804486  0.41830009  0.64775963  1
  P  P235  1  0.95876558  0.41684278  0.89894041  1
  P  P236  1  0.95857955  0.74823867  0.14615838  1
  P  P237  1  0.95817406  0.75075098  0.39678801  1
  P  P238  1  0.95776411  0.75198118  0.64756457  1
  P  P239  1  0.95898705  0.74918812  0.89828518  1
  P  P240  1  0.20783594  0.08389828  0.22768784  1
  P  P241  1  0.20745905  0.08200882  0.47729881  1
  P  P242  1  0.20686635  0.08307797  0.72916055  1
  P  P243  1  0.20903617  0.08409486  0.97668721  1
  P  P244  1  0.20779432  0.41587035  0.22688854  1
  P  P245  1  0.20749931  0.41700375  0.47928650  1
  P  P246  1  0.20921349  0.41682666  0.72725919  1
  P  P247  1  0.20845630  0.41780101  0.97775982  1
  P  P248  1  0.20771701  0.74897035  0.22725015  1
  P  P249  1  0.20819671  0.75109022  0.47832769  1
  P  P250  1  0.20868822  0.74964965  0.72672900  1
  P  P251  1  0.20785387  0.74813265  0.97715760  1
  P  P252  1  0.70765777  0.08419350  0.22708275  1
  P  P253  1  0.70767886  0.08181091  0.47734969  1
  P  P254  1  0.70730189  0.08392812  0.72764532  1
  P  P255  1  0.70779615  0.08206745  0.97758402  1
  P  P256  1  0.70657884  0.41704574  0.22842370  1
  P  P257  1  0.70678715  0.41612318  0.47837757  1
  P  P258  1  0.70740086  0.41719853  0.72915500  1
  P  P259  1  0.70829722  0.41812758  0.97773200  1
  P  P260  1  0.70827078  0.75053412  0.22658582  1
  P  P261  1  0.70752136  0.74890522  0.47704722  1
  P  P262  1  0.70716841  0.75050688  0.72882990  1
  P  P263  1  0.70757975  0.75143418  0.97828540  1
  P  P264  1  0.29104691  0.24945656  0.02334457  1
  P  P265  1  0.29256809  0.25000873  0.27096259  1
  P  P266  1  0.29247735  0.25087186  0.52310735  1
  P  P267  1  0.29257094  0.24935914  0.77273130  1
  P  P268  1  0.29196142  0.58486056  0.02138441  1
  P  P269  1  0.29287543  0.58355342  0.27178193  1
  P  P270  1  0.29134085  0.58372080  0.52422997  1
  P  P271  1  0.29121728  0.58312937  0.77269008  1
  P  P272  1  0.29271401  0.91702921  0.02113462  1
  P  P273  1  0.29141881  0.91626711  0.27360141  1
  P  P274  1  0.29141053  0.91515521  0.52190043  1
  P  P275  1  0.29193667  0.91722212  0.77237631  1
  P  P276  1  0.79236876  0.24857938  0.02245325  1
  P  P277  1  0.79303496  0.24957482  0.27106261  1
  P  P278  1  0.79238061  0.24805063  0.52277485  1
  P  P279  1  0.79341621  0.24939068  0.77150206  1
  P  P280  1  0.79224258  0.58478259  0.02274385  1
  P  P281  1  0.79194292  0.58563758  0.27211159  1
  P  P282  1  0.79298642  0.58388182  0.52146229  1
  P  P283  1  0.79288145  0.58236303  0.77330695  1
  P  P284  1  0.79192069  0.91491511  0.02167865  1
  P  P285  1  0.79238068  0.91796390  0.27172021  1
  P  P286  1  0.79255498  0.91655494  0.52100445  1
  P  P287  1  0.79136604  0.91663808  0.77387000  1
  O  O288  1  0.03671770  0.25176466  0.18264449  1
  O  O289  1  0.03699034  0.25166504  0.43222179  1
  O  O290  1  0.03751577  0.25142598  0.68223990  1
  O  O291  1  0.03784055  0.25030217  0.93372263  1
  O  O292  1  0.03623328  0.58331617  0.18196908  1
  O  O293  1  0.03678679  0.58356097  0.43103396  1
  O  O294  1  0.03769983  0.58335476  0.68346373  1
  O  O295  1  0.03695362  0.58225836  0.93313470  1
  O  O296  1  0.03764975  0.91584610  0.18063135  1
  O  O297  1  0.03702596  0.91663454  0.43326583  1
  O  O298  1  0.03660533  0.91590375  0.68130956  1
  O  O299  1  0.03690072  0.91502907  0.93288675  1
  O  O300  1  0.53640709  0.24899517  0.18178405  1
  O  O301  1  0.53718467  0.24859430  0.43218075  1
  O  O302  1  0.53743847  0.25076252  0.68380653  1
  O  O303  1  0.53622271  0.25135494  0.93363393  1
  O  O304  1  0.53727672  0.58275813  0.18213093  1
  O  O305  1  0.53645720  0.58353729  0.43442830  1
  O  O306  1  0.53603362  0.58407785  0.68242566  1
  O  O307  1  0.53679073  0.58357179  0.93262746  1
  O  O308  1  0.53658328  0.91897944  0.18270343  1
  O  O309  1  0.53667941  0.91737735  0.43305036  1
  O  O310  1  0.53619469  0.91550809  0.68163642  1
  O  O311  1  0.53677091  0.91681951  0.93242115  1
  O  O312  1  0.46379935  0.08361396  0.06810351  1
  O  O313  1  0.46324471  0.08197816  0.31724671  1
  O  O314  1  0.46168205  0.08212849  0.56688870  1
  O  O315  1  0.46295631  0.08389064  0.81878167  1
  O  O316  1  0.46314201  0.41672079  0.06599521  1
  O  O317  1  0.46189033  0.41743032  0.31815654  1
  O  O318  1  0.46282456  0.41664372  0.56811803  1
  O  O319  1  0.46350304  0.41620902  0.81859978  1
  O  O320  1  0.46173260  0.75055057  0.06696748  1
  O  O321  1  0.46281957  0.75052809  0.31906270  1
  O  O322  1  0.46425494  0.74942844  0.56797581  1
  O  O323  1  0.46292818  0.75028354  0.81574545  1
  O  O324  1  0.96343369  0.08204867  0.06556961  1
  O  O325  1  0.96288868  0.08268173  0.31702571  1
  O  O326  1  0.96305290  0.08302125  0.56593483  1
  O  O327  1  0.96309950  0.08182666  0.81716676  1
  O  O328  1  0.96378094  0.41661243  0.06798056  1
  O  O329  1  0.96319639  0.41572985  0.31687280  1
  O  O330  1  0.96299688  0.41760507  0.56783961  1
  O  O331  1  0.96346781  0.41762455  0.81899299  1
  O  O332  1  0.96392500  0.74820304  0.06630375  1
  O  O333  1  0.96357039  0.74976981  0.31690005  1
  O  O334  1  0.96284508  0.75218480  0.56762527  1
  O  O335  1  0.96369084  0.74989779  0.81832694  1
  O  O336  1  0.21388630  0.08433042  0.05670193  1
  O  O337  1  0.21309190  0.08296436  0.30761731  1
  O  O338  1  0.21194274  0.08212581  0.55730489  1
  O  O339  1  0.21254719  0.08311886  0.80903443  1
  O  O340  1  0.21365597  0.41712119  0.05764538  1
  O  O341  1  0.21238803  0.41605647  0.30687412  1
  O  O342  1  0.21292168  0.41691347  0.55918604  1
  O  O343  1  0.21421008  0.41745246  0.80722677  1
  O  O344  1  0.21314452  0.74812270  0.05707096  1
  O  O345  1  0.21284225  0.74979444  0.30722274  1
  O  O346  1  0.21341421  0.75097142  0.55818641  1
  O  O347  1  0.21368192  0.74916265  0.80669045  1
  O  O348  1  0.71316133  0.08284683  0.05748144  1
  O  O349  1  0.71298550  0.08329738  0.30698943  1
  O  O350  1  0.71283053  0.08267607  0.55729678  1
  O  O351  1  0.71243463  0.08299228  0.80756859  1
  O  O352  1  0.71294883  0.41784112  0.05772878  1
  O  O353  1  0.71161177  0.41688125  0.30838361  1
  O  O354  1  0.71193839  0.41593289  0.55837990  1
  O  O355  1  0.71306870  0.41799819  0.80909037  1
  O  O356  1  0.71282462  0.75127997  0.05817721  1
  O  O357  1  0.71351910  0.74998917  0.30654058  1
  O  O358  1  0.71238781  0.74928724  0.55702328  1
  O  O359  1  0.71225078  0.75107304  0.80879622  1
  O  O360  1  0.28693746  0.24996600  0.19107492  1
  O  O361  1  0.28741629  0.25060701  0.44312560  1
  O  O362  1  0.28708517  0.25001419  0.69285947  1
  O  O363  1  0.28638994  0.24930495  0.94333434  1
  O  O364  1  0.28793220  0.58409419  0.19180261  1
  O  O365  1  0.28704004  0.58361585  0.44421309  1
  O  O366  1  0.28596229  0.58305045  0.69281640  1
  O  O367  1  0.28637348  0.58456737  0.94151050  1
  O  O368  1  0.28693399  0.91635825  0.19355201  1
  O  O369  1  0.28594432  0.91540018  0.44202095  1
  O  O370  1  0.28661812  0.91662431  0.69245397  1
  O  O371  1  0.28740618  0.91756805  0.94124067  1
  O  O372  1  0.78772919  0.24926135  0.19110904  1
  O  O373  1  0.78734295  0.24842847  0.44276084  1
  O  O374  1  0.78794162  0.24885228  0.69158463  1
  O  O375  1  0.78748504  0.24905427  0.94246081  1
  O  O376  1  0.78652831  0.58604291  0.19219268  1
  O  O377  1  0.78777060  0.58452975  0.44150633  1
  O  O378  1  0.78802435  0.58247752  0.69331007  1
  O  O379  1  0.78717383  0.58374756  0.94277707  1
  O  O380  1  0.78711018  0.91737004  0.19179038  1
  O  O381  1  0.78746373  0.91709158  0.44107521  1
  O  O382  1  0.78637963  0.91671043  0.69385721  1
  O  O383  1  0.78634236  0.91497739  0.94184195  1
  O  O384  1  0.22689876  0.24905365  0.05919557  1
  O  O385  1  0.22840926  0.24974551  0.30685465  1
  O  O386  1  0.22811125  0.25189817  0.55856310  1
  O  O387  1  0.22837056  0.24889981  0.80865760  1
  O  O388  1  0.22789902  0.58514465  0.05778014  1
  O  O389  1  0.22840272  0.58369076  0.30676338  1
  O  O390  1  0.22706586  0.58389737  0.55951750  1
  O  O391  1  0.22722079  0.58254368  0.80915972  1
  O  O392  1  0.22845138  0.91668302  0.05655769  1
  O  O393  1  0.22714194  0.91598434  0.30908902  1
  O  O394  1  0.22730793  0.91438511  0.55814867  1
  O  O395  1  0.22779159  0.91757552  0.80821457  1
  O  O396  1  0.72794707  0.24821653  0.05771530  1
  O  O397  1  0.72866406  0.24926497  0.30628793  1
  O  O398  1  0.72800380  0.24765683  0.55822494  1
  O  O399  1  0.72911549  0.24984833  0.80684980  1
  O  O400  1  0.72788854  0.58547101  0.05817473  1
  O  O401  1  0.72772751  0.58572593  0.30798935  1
  O  O402  1  0.72856246  0.58343650  0.55663102  1
  O  O403  1  0.72842947  0.58254846  0.80840792  1
  O  O404  1  0.72785095  0.91492053  0.05794327  1
  O  O405  1  0.72812596  0.91823508  0.30750897  1
  O  O406  1  0.72817105  0.91657627  0.55620692  1
  O  O407  1  0.72707983  0.91686997  0.80955061  1
  O  O408  1  0.27211914  0.08475268  0.19199769  1
  O  O409  1  0.27191967  0.08176649  0.44226154  1
  O  O410  1  0.27098382  0.08298957  0.69327079  1
  O  O411  1  0.27319993  0.08437979  0.94073925  1
  O  O412  1  0.27215184  0.41623749  0.19175372  1
  O  O413  1  0.27180757  0.41701457  0.44370433  1
  O  O414  1  0.27327577  0.41609337  0.69120451  1
  O  O415  1  0.27261374  0.41830112  0.94180980  1
  O  O416  1  0.27208865  0.74831428  0.19167169  1
  O  O417  1  0.27237120  0.75140397  0.44229129  1
  O  O418  1  0.27282921  0.75005861  0.69075885  1
  O  O419  1  0.27199787  0.74826975  0.94125614  1
  O  O420  1  0.77192047  0.08464857  0.19131006  1
  O  O421  1  0.77202188  0.08101274  0.44172741  1
  O  O422  1  0.77167875  0.08441775  0.69211883  1
  O  O423  1  0.77205587  0.08118005  0.94187562  1
  O  O424  1  0.77106139  0.41709904  0.19355309  1
  O  O425  1  0.77122565  0.41657278  0.44337409  1
  O  O426  1  0.77166027  0.41632253  0.69364583  1
  O  O427  1  0.77276759  0.41818510  0.94267650  1
  O  O428  1  0.77242547  0.75073024  0.19046358  1
  O  O429  1  0.77192528  0.74888104  0.44170937  1
  O  O430  1  0.77163705  0.75023979  0.69381284  1
  O  O431  1  0.77177051  0.75167251  0.94230829  1
  O  O432  1  0.02210711  0.08320995  0.18107954  1
  O  O433  1  0.02231733  0.08263390  0.43253534  1
  O  O434  1  0.02181013  0.08269692  0.68151499  1
  O  O435  1  0.02234883  0.08157209  0.93266114  1
  O  O436  1  0.02285915  0.41649314  0.18418306  1
  O  O437  1  0.02204525  0.41544487  0.43289719  1
  O  O438  1  0.02242359  0.41898183  0.68341713  1
  O  O439  1  0.02303348  0.41601715  0.93461803  1
  O  O440  1  0.02275877  0.74764102  0.18228445  1
  O  O441  1  0.02232943  0.75186320  0.43288289  1
  O  O442  1  0.02212457  0.75164251  0.68316296  1
  O  O443  1  0.02317976  0.74818132  0.93404656  1
  O  O444  1  0.52266744  0.08324399  0.18444474  1
  O  O445  1  0.52179768  0.08116768  0.43347625  1
  O  O446  1  0.52094055  0.08317419  0.68202697  1
  O  O447  1  0.52283600  0.08302366  0.93433045  1
  O  O448  1  0.52140004  0.41616715  0.18205583  1
  O  O449  1  0.52119207  0.41851968  0.43361572  1
  O  O450  1  0.52174759  0.41544930  0.68404591  1
  O  O451  1  0.52267373  0.41653909  0.93460732  1
  O  O452  1  0.52125775  0.75087890  0.18191597  1
  O  O453  1  0.52268049  0.74926365  0.43449665  1
  O  O454  1  0.52280228  0.74971719  0.68456435  1
  O  O455  1  0.52128360  0.75051883  0.93172709  1
  O  O456  1  0.47700946  0.25064804  0.06596536  1
  O  O457  1  0.47781265  0.24791795  0.31671056  1
  O  O458  1  0.47844412  0.24988305  0.56845427  1
  O  O459  1  0.47757050  0.25193691  0.81739701  1
  O  O460  1  0.47798708  0.58184391  0.06669384  1
  O  O461  1  0.47785523  0.58372463  0.31860486  1
  O  O462  1  0.47687201  0.58353266  0.56633817  1
  O  O463  1  0.47779484  0.58494759  0.81688501  1
  O  O464  1  0.47768355  0.91919662  0.06696913  1
  O  O465  1  0.47740501  0.91833744  0.31734900  1
  O  O466  1  0.47693985  0.91699565  0.56574133  1
  O  O467  1  0.47767846  0.91487210  0.81674158  1
  O  O468  1  0.97806989  0.25149804  0.06668213  1
  O  O469  1  0.97811909  0.25177712  0.31636665  1
  O  O470  1  0.97822067  0.25193007  0.56663122  1
  O  O471  1  0.97892271  0.25050480  0.81830228  1
  O  O472  1  0.97727535  0.58366726  0.06566982  1
  O  O473  1  0.97736044  0.58405962  0.31513013  1
  O  O474  1  0.97856204  0.58381687  0.56811395  1
  O  O475  1  0.97802417  0.58196305  0.81718393  1
  O  O476  1  0.97791400  0.91667649  0.06517918  1
  O  O477  1  0.97867892  0.91580953  0.31730407  1
  O  O478  1  0.97726353  0.91627635  0.56526524  1
  O  O479  1  0.97785151  0.91426386  0.81698546  1
  O  O480  1  0.07305115  0.31509646  0.07413381  1
  O  O481  1  0.07354135  0.31484119  0.32372907  1
  O  O482  1  0.07297055  0.31567630  0.57406707  1
  O  O483  1  0.07474096  0.31338675  0.82569873  1
  O  O484  1  0.07286187  0.64616673  0.07335316  1
  O  O485  1  0.07276630  0.64711558  0.32311142  1
  O  O486  1  0.07375409  0.64728007  0.57548659  1
  O  O487  1  0.07346125  0.64533489  0.82494361  1
  O  O488  1  0.07351519  0.97950343  0.07251739  1
  O  O489  1  0.07375878  0.97984049  0.32492124  1
  O  O490  1  0.07187758  0.98030224  0.57327246  1
  O  O491  1  0.07311080  0.97808989  0.82456999  1
  O  O492  1  0.57266066  0.31320219  0.07406496  1
  O  O493  1  0.57278520  0.31232042  0.32443295  1
  O  O494  1  0.57395468  0.31339964  0.57524448  1
  O  O495  1  0.57267729  0.31504611  0.82520510  1
  O  O496  1  0.57296431  0.64636189  0.07436229  1
  O  O497  1  0.57319208  0.64709355  0.32606270  1
  O  O498  1  0.57216638  0.64695060  0.57401854  1
  O  O499  1  0.57297304  0.64796132  0.82457803  1
  O  O500  1  0.57317518  0.98192212  0.07400386  1
  O  O501  1  0.57275717  0.98111971  0.32429642  1
  O  O502  1  0.57227914  0.97985226  0.57394727  1
  O  O503  1  0.57249755  0.97969471  0.82415631  1
  O  O504  1  0.42730255  0.02019770  0.17643597  1
  O  O505  1  0.42657714  0.01837429  0.42579999  1
  O  O506  1  0.42548226  0.01949907  0.67546535  1
  O  O507  1  0.42752104  0.01990353  0.92664697  1
  O  O508  1  0.42594662  0.35314210  0.17397389  1
  O  O509  1  0.42630040  0.35373052  0.42578410  1
  O  O510  1  0.42676971  0.35237238  0.67639880  1
  O  O511  1  0.42713923  0.35345338  0.92711469  1
  O  O512  1  0.42610368  0.68696185  0.17518682  1
  O  O513  1  0.42687733  0.68684840  0.42719066  1
  O  O514  1  0.42775408  0.68620562  0.67630790  1
  O  O515  1  0.42597507  0.68695744  0.92388140  1
  O  O516  1  0.92675736  0.01926204  0.17392806  1
  O  O517  1  0.92766895  0.01872471  0.42562958  1
  O  O518  1  0.92592188  0.02001197  0.67402685  1
  O  O519  1  0.92746215  0.01782217  0.92535359  1
  O  O520  1  0.92749510  0.35332674  0.17627004  1
  O  O521  1  0.92686361  0.35259033  0.42593007  1
  O  O522  1  0.92719470  0.35472945  0.67614072  1
  O  O523  1  0.92755022  0.35321763  0.92671085  1
  O  O524  1  0.92729368  0.68522517  0.17519522  1
  O  O525  1  0.92756111  0.68713700  0.42540224  1
  O  O526  1  0.92670277  0.68825559  0.67537650  1
  O  O527  1  0.92753644  0.68569380  0.92593929  1
  O  O528  1  0.17700120  0.02035496  0.19912417  1
  O  O529  1  0.17686803  0.01848620  0.44859019  1
  O  O530  1  0.17543818  0.01980322  0.70079140  1
  O  O531  1  0.17886365  0.01988682  0.94859562  1
  O  O532  1  0.17771315  0.35206415  0.19801570  1
  O  O533  1  0.17631797  0.35378195  0.45057019  1
  O  O534  1  0.17803591  0.35316658  0.69954686  1
  O  O535  1  0.17744845  0.35425738  0.94962882  1
  O  O536  1  0.17691820  0.68538801  0.19898597  1
  O  O537  1  0.17716514  0.68735956  0.45032306  1
  O  O538  1  0.17787348  0.68605113  0.69832924  1
  O  O539  1  0.17687832  0.68496834  0.94819435  1
  O  O540  1  0.67646530  0.02082826  0.19884719  1
  O  O541  1  0.67688874  0.01824289  0.44895144  1
  O  O542  1  0.67619095  0.02050872  0.69923008  1
  O  O543  1  0.67693022  0.01843685  0.94942546  1
  O  O544  1  0.67559688  0.35363272  0.20000118  1
  O  O545  1  0.67602462  0.35245937  0.45033150  1
  O  O546  1  0.67594280  0.35363381  0.70171907  1
  O  O547  1  0.67736010  0.35444346  0.94988930  1
  O  O548  1  0.67720082  0.68721351  0.19795494  1
  O  O549  1  0.67694146  0.68532364  0.44864867  1
  O  O550  1  0.67634291  0.68669627  0.70102790  1
  O  O551  1  0.67656688  0.68778084  0.95017201  1
  O  O552  1  0.32100015  0.31383439  0.05133407  1
  O  O553  1  0.32369791  0.31343910  0.29933029  1
  O  O554  1  0.32376713  0.31404259  0.55155488  1
  O  O555  1  0.32359791  0.31282381  0.80107342  1
  O  O556  1  0.32309351  0.64812253  0.05009615  1
  O  O557  1  0.32424444  0.64657509  0.30063754  1
  O  O558  1  0.32218369  0.64740996  0.55235848  1
  O  O559  1  0.32167173  0.64714490  0.80075899  1
  O  O560  1  0.32384605  0.98020509  0.04996622  1
  O  O561  1  0.32169196  0.98023154  0.30192229  1
  O  O562  1  0.32218695  0.97887822  0.55005287  1
  O  O563  1  0.32267788  0.98090698  0.80073819  1
  O  O564  1  0.82315584  0.31234253  0.05036527  1
  O  O565  1  0.82364343  0.31334399  0.29931067  1
  O  O566  1  0.82319594  0.31179283  0.55065234  1
  O  O567  1  0.82460183  0.31292669  0.79952669  1
  O  O568  1  0.82290941  0.64858953  0.05068977  1
  O  O569  1  0.82306549  0.64883568  0.30079364  1
  O  O570  1  0.82402397  0.64707569  0.55043369  1
  O  O571  1  0.82396029  0.64606008  0.80097750  1
  O  O572  1  0.82324145  0.97846804  0.04945208  1
  O  O573  1  0.82305791  0.98160899  0.30003148  1
  O  O574  1  0.82394439  0.97949687  0.54990775  1
  O  O575  1  0.82218220  0.98039044  0.80181702  1
  O  O576  1  0.42805938  0.14736531  0.17651059  1
  O  O577  1  0.42665738  0.14536589  0.42509604  1
  O  O578  1  0.42548749  0.14634274  0.67484595  1
  O  O579  1  0.42829051  0.14737348  0.92740500  1
  O  O580  1  0.42609156  0.47990075  0.17418281  1
  O  O581  1  0.42575602  0.48106596  0.42671448  1
  O  O582  1  0.42653099  0.47948066  0.67615490  1
  O  O583  1  0.42811798  0.48087254  0.92614836  1
  O  O584  1  0.42559459  0.81400847  0.17496567  1
  O  O585  1  0.42842876  0.81418521  0.42765291  1
  O  O586  1  0.42798273  0.81352498  0.67583052  1
  O  O587  1  0.42574029  0.81363726  0.92391195  1
  O  O588  1  0.92659249  0.14617846  0.17316231  1
  O  O589  1  0.92669390  0.14600453  0.42456754  1
  O  O590  1  0.92696457  0.14694465  0.67405066  1
  O  O591  1  0.92678886  0.14510834  0.92487294  1
  O  O592  1  0.92833310  0.48057460  0.17638146  1
  O  O593  1  0.92691535  0.47965802  0.42445334  1
  O  O594  1  0.92720084  0.48185024  0.67618410  1
  O  O595  1  0.92844898  0.48048947  0.92811767  1
  O  O596  1  0.92792661  0.81219281  0.17406130  1
  O  O597  1  0.92683078  0.81420569  0.42462069  1
  O  O598  1  0.92699649  0.81524462  0.67667867  1
  O  O599  1  0.92883781  0.81300377  0.92729610  1
  O  O600  1  0.07346615  0.18799172  0.07525406  1
  O  O601  1  0.07310715  0.18767165  0.32455342  1
  O  O602  1  0.07374352  0.18838213  0.57433521  1
  O  O603  1  0.07389312  0.18642431  0.82560048  1
  O  O604  1  0.07157294  0.51906012  0.07378294  1
  O  O605  1  0.07171857  0.51962086  0.32272487  1
  O  O606  1  0.07408700  0.52045275  0.57491801  1
  O  O607  1  0.07291046  0.51836185  0.82459569  1
  O  O608  1  0.07229565  0.85192571  0.07241821  1
  O  O609  1  0.07436818  0.85315888  0.32518536  1
  O  O610  1  0.07245353  0.85285882  0.57285442  1
  O  O611  1  0.07303489  0.85112165  0.82443600  1
  O  O612  1  0.57141698  0.18596768  0.07281304  1
  O  O613  1  0.57310410  0.18501708  0.32375361  1
  O  O614  1  0.57377160  0.18651789  0.57599618  1
  O  O615  1  0.57273789  0.18790359  0.82580513  1
  O  O616  1  0.57340281  0.51907832  0.07376945  1
  O  O617  1  0.57332646  0.52034824  0.32604972  1
  O  O618  1  0.57153038  0.51948797  0.57471343  1
  O  O619  1  0.57306228  0.52090930  0.82448281  1
  O  O620  1  0.57261830  0.85482511  0.07514229  1
  O  O621  1  0.57265031  0.85424358  0.32478703  1
  O  O622  1  0.57152075  0.85247119  0.57289696  1
  O  O623  1  0.57316277  0.85262269  0.82424348  1
  O  O624  1  0.32246726  0.18628999  0.05184159  1
  O  O625  1  0.32395497  0.18672313  0.29947970  1
  O  O626  1  0.32277010  0.18670050  0.55078334  1
  O  O627  1  0.32346306  0.18576781  0.80099477  1
  O  O628  1  0.32308704  0.52121339  0.04937304  1
  O  O629  1  0.32354386  0.51973582  0.29986114  1
  O  O630  1  0.32181688  0.51999290  0.55288723  1
  O  O631  1  0.32264727  0.51985188  0.80128223  1
  O  O632  1  0.32385938  0.85336610  0.04887894  1
  O  O633  1  0.32236407  0.85263785  0.30179008  1
  O  O634  1  0.32278193  0.85199864  0.55073294  1
  O  O635  1  0.32331025  0.85377382  0.80019339  1
  O  O636  1  0.82312389  0.18486205  0.05041623  1
  O  O637  1  0.82471043  0.18650717  0.29938650  1
  O  O638  1  0.82310870  0.18436846  0.55089173  1
  O  O639  1  0.82467393  0.18614325  0.79995769  1
  O  O640  1  0.82333316  0.52144063  0.05135585  1
  O  O641  1  0.82274501  0.52158483  0.29947508  1
  O  O642  1  0.82413392  0.52019866  0.54921532  1
  O  O643  1  0.82340485  0.51882197  0.80213425  1
  O  O644  1  0.82288120  0.85162597  0.05071803  1
  O  O645  1  0.82360393  0.85441666  0.29962531  1
  O  O646  1  0.82331693  0.85273453  0.54901151  1
  O  O647  1  0.82202605  0.85287278  0.80205447  1
  O  O648  1  0.17669476  0.14738623  0.19951952  1
  O  O649  1  0.17665588  0.14583542  0.44948869  1
  O  O650  1  0.17564465  0.14649640  0.70071210  1
  O  O651  1  0.17760131  0.14734098  0.94837704  1
  O  O652  1  0.17627049  0.47922849  0.19899011  1
  O  O653  1  0.17640837  0.48051544  0.45073609  1
  O  O654  1  0.17872888  0.48060794  0.69858773  1
  O  O655  1  0.17757213  0.48136714  0.94945569  1
  O  O656  1  0.17684420  0.81254920  0.19879585  1
  O  O657  1  0.17711092  0.81422402  0.44914446  1
  O  O658  1  0.17779743  0.81345904  0.69886047  1
  O  O659  1  0.17684931  0.81199422  0.94955821  1
  O  O660  1  0.67699002  0.14792547  0.19881646  1
  O  O661  1  0.67669241  0.14532727  0.44903109  1
  O  O662  1  0.67666189  0.14767378  0.69941890  1
  O  O663  1  0.67684277  0.14558982  0.94934489  1
  O  O664  1  0.67552323  0.48063198  0.20053083  1
  O  O665  1  0.67557172  0.47959460  0.45046248  1
  O  O666  1  0.67635179  0.48047322  0.70039221  1
  O  O667  1  0.67773102  0.48185523  0.94936081  1
  O  O668  1  0.67757827  0.81462246  0.19900216  1
  O  O669  1  0.67649892  0.81246961  0.44887778  1
  O  O670  1  0.67600520  0.81362959  0.69992061  1
  O  O671  1  0.67645951  0.81468539  0.94944981  1
