# generated using pymatgen
data_Na2MnFe(PO4)2
_symmetry_space_group_name_H-M   'P 1'
_cell_length_a   22.34327151
_cell_length_b   20.09254861
_cell_length_c   19.45082463
_cell_angle_alpha   89.99760321
_cell_angle_beta   89.99007339
_cell_angle_gamma   89.92831871
_symmetry_Int_Tables_number   1
_chemical_formula_structural   Na2MnFe(PO4)2
_chemical_formula_sum   'Na96 Mn48 Fe48 P96 O384'
_cell_volume   8732.11531446
_cell_formula_units_Z   48
loop_
 _symmetry_equiv_pos_site_id
 _symmetry_equiv_pos_as_xyz
  1  'x, y, z'
loop_
 _atom_site_type_symbol
 _atom_site_label
 _atom_site_symmetry_multiplicity
 _atom_site_fract_x
 _atom_site_fract_y
 _atom_site_fract_z
 _atom_site_occupancy
  Na  Na0  1  0.13981354  0.24949497  0.24286171  1
  Na  Na1  1  0.14051377  0.25179464  0.49366226  1
  Na  Na2  1  0.13987431  0.24934520  0.74367347  1
  Na  Na3  1  0.13924840  0.25130674  0.99295715  1
  Na  Na4  1  0.14020707  0.58391594  0.24360799  1
  Na  Na5  1  0.13961646  0.58462159  0.49318703  1
  Na  Na6  1  0.13952885  0.58357933  0.74251342  1
  Na  Na7  1  0.14010057  0.58458180  0.99271297  1
  Na  Na8  1  0.14060083  0.91631177  0.24310406  1
  Na  Na9  1  0.14004203  0.91725794  0.49316614  1
  Na  Na10  1  0.14019726  0.91617306  0.74190020  1
  Na  Na11  1  0.14039161  0.91621362  0.99377637  1
  Na  Na12  1  0.64059576  0.24945803  0.24321201  1
  Na  Na13  1  0.64082490  0.24912182  0.49517542  1
  Na  Na14  1  0.64043961  0.24840850  0.74550174  1
  Na  Na15  1  0.64016220  0.24820768  0.99335826  1
  Na  Na16  1  0.64118196  0.58353429  0.24374406  1
  Na  Na17  1  0.64049752  0.58334183  0.49450581  1
  Na  Na18  1  0.64055616  0.58339450  0.74561549  1
  Na  Na19  1  0.64088943  0.58255460  0.99471778  1
  Na  Na20  1  0.64074474  0.91612295  0.24323948  1
  Na  Na21  1  0.64068263  0.91795588  0.49368822  1
  Na  Na22  1  0.64068339  0.91770166  0.74369041  1
  Na  Na23  1  0.64097458  0.91642017  0.99339405  1
  Na  Na24  1  0.35984581  0.08357196  0.00688041  1
  Na  Na25  1  0.35928007  0.08304163  0.25505594  1
  Na  Na26  1  0.35942919  0.08390962  0.50648413  1
  Na  Na27  1  0.35992598  0.08328987  0.75577505  1
  Na  Na28  1  0.35881678  0.41793528  0.00653307  1
  Na  Na29  1  0.35896062  0.41596590  0.25610452  1
  Na  Na30  1  0.35876622  0.41826660  0.50535638  1
  Na  Na31  1  0.35874776  0.41745302  0.75648226  1
  Na  Na32  1  0.35888920  0.75040563  0.00632267  1
  Na  Na33  1  0.35933312  0.75014101  0.25548972  1
  Na  Na34  1  0.35921260  0.75080289  0.50652931  1
  Na  Na35  1  0.35904832  0.74997941  0.75550210  1
  Na  Na36  1  0.86030944  0.08277532  0.00681507  1
  Na  Na37  1  0.86017480  0.08278902  0.25553872  1
  Na  Na38  1  0.86013303  0.08312487  0.50666917  1
  Na  Na39  1  0.86048187  0.08401603  0.75780108  1
  Na  Na40  1  0.85950772  0.41464276  0.00717935  1
  Na  Na41  1  0.85986108  0.41524308  0.25670920  1
  Na  Na42  1  0.85972281  0.41643106  0.50654583  1
  Na  Na43  1  0.85968053  0.41664179  0.75775978  1
  Na  Na44  1  0.85998791  0.74876625  0.00613217  1
  Na  Na45  1  0.86036997  0.74937857  0.25593119  1
  Na  Na46  1  0.86019790  0.75003448  0.50670187  1
  Na  Na47  1  0.86003855  0.75029996  0.75612705  1
  Na  Na48  1  0.10915283  0.08324486  0.11805559  1
  Na  Na49  1  0.10983978  0.08408774  0.36858074  1
  Na  Na50  1  0.10955250  0.08237138  0.61828394  1
  Na  Na51  1  0.10949366  0.08276849  0.86919187  1
  Na  Na52  1  0.10927807  0.41582374  0.11803341  1
  Na  Na53  1  0.10906780  0.41870072  0.36829178  1
  Na  Na54  1  0.10916844  0.41791491  0.61847527  1
  Na  Na55  1  0.10879472  0.41664804  0.86793597  1
  Na  Na56  1  0.11036687  0.74974727  0.11763606  1
  Na  Na57  1  0.10993090  0.75057641  0.36866659  1
  Na  Na58  1  0.10936519  0.74942525  0.61699432  1
  Na  Na59  1  0.10982410  0.74875198  0.86756448  1
  Na  Na60  1  0.60975026  0.08437825  0.11775981  1
  Na  Na61  1  0.61013185  0.08339661  0.36915468  1
  Na  Na62  1  0.61076042  0.08417280  0.61920991  1
  Na  Na63  1  0.61035274  0.08243437  0.86864849  1
  Na  Na64  1  0.60974094  0.41474748  0.11909396  1
  Na  Na65  1  0.60969734  0.41629487  0.36903726  1
  Na  Na66  1  0.60956031  0.41656911  0.62071034  1
  Na  Na67  1  0.60955843  0.41417781  0.87031940  1
  Na  Na68  1  0.61046533  0.75102293  0.11867034  1
  Na  Na69  1  0.61028889  0.74998569  0.36811524  1
  Na  Na70  1  0.60974243  0.75154783  0.61935223  1
  Na  Na71  1  0.61003166  0.74978936  0.86966827  1
  Na  Na72  1  0.38979502  0.25023176  0.13051532  1
  Na  Na73  1  0.38996838  0.24965152  0.38054676  1
  Na  Na74  1  0.38994429  0.25057809  0.63059862  1
  Na  Na75  1  0.39034001  0.24868592  0.88162272  1
  Na  Na76  1  0.38978525  0.58372325  0.13189375  1
  Na  Na77  1  0.38969816  0.58394997  0.38124984  1
  Na  Na78  1  0.38979896  0.58492648  0.63160675  1
  Na  Na79  1  0.38925492  0.58316823  0.88188586  1
  Na  Na80  1  0.39011146  0.91744462  0.13071499  1
  Na  Na81  1  0.39041056  0.91653507  0.37992268  1
  Na  Na82  1  0.39003365  0.91836180  0.63098289  1
  Na  Na83  1  0.39027713  0.91704022  0.88056854  1
  Na  Na84  1  0.88969785  0.24849326  0.13151969  1
  Na  Na85  1  0.89043921  0.24983680  0.38131343  1
  Na  Na86  1  0.89057645  0.24927277  0.63273504  1
  Na  Na87  1  0.89039378  0.24815229  0.88310535  1
  Na  Na88  1  0.89066529  0.58311076  0.13137472  1
  Na  Na89  1  0.89046519  0.58495594  0.38140184  1
  Na  Na90  1  0.89076753  0.58368636  0.63111326  1
  Na  Na91  1  0.89057870  0.58254213  0.88180029  1
  Na  Na92  1  0.89078666  0.91565275  0.13093546  1
  Na  Na93  1  0.89135971  0.91656959  0.38117762  1
  Na  Na94  1  0.89076807  0.91727233  0.63155448  1
  Na  Na95  1  0.89095330  0.91707331  0.88115343  1
  Mn  Mn96  1  0.74978634  0.83457520  0.62563265  1
  Mn  Mn97  1  0.25009752  0.83269557  0.87398148  1
  Mn  Mn98  1  0.49952634  0.49977203  0.75090214  1
  Mn  Mn99  1  0.50043957  0.66763971  0.75074204  1
  Mn  Mn100  1  0.49932758  0.16702596  0.24923159  1
  Mn  Mn101  1  -0.00013851  0.50050351  0.24914941  1
  Mn  Mn102  1  0.75098089  0.83285266  0.37465694  1
  Mn  Mn103  1  0.00071008  0.83343303  0.25001272  1
  Mn  Mn104  1  0.75021674  -0.00039111  0.12479478  1
  Mn  Mn105  1  0.75032023  0.49986126  0.62624517  1
  Mn  Mn106  1  0.75021202  0.83341671  0.87494922  1
  Mn  Mn107  1  0.25004599  0.16742510  0.62487444  1
  Mn  Mn108  1  -0.00043336  0.33285091  0.74997196  1
  Mn  Mn109  1  0.00013489  0.33471896  0.50105544  1
  Mn  Mn110  1  0.24925901  0.16698111  0.12464113  1
  Mn  Mn111  1  0.50000603  -0.00020831  0.24904972  1
  Mn  Mn112  1  0.00063154  0.16649391  0.50004166  1
  Mn  Mn113  1  0.74988787  0.49963175  0.87651147  1
  Mn  Mn114  1  0.49972677  0.66702207  0.00043828  1
  Mn  Mn115  1  0.74999516  0.33155820  0.37633293  1
  Mn  Mn116  1  -0.00020227  0.16636033  0.25015812  1
  Mn  Mn117  1  0.24961435  0.16692561  0.87470980  1
  Mn  Mn118  1  0.50006256  0.66771831  0.50047613  1
  Mn  Mn119  1  0.75047444  0.49916447  0.12537066  1
  Mn  Mn120  1  0.75002206  0.49982669  0.37532347  1
  Mn  Mn121  1  0.49902318  0.33198327  0.75002277  1
  Mn  Mn122  1  0.24927313  0.50076357  0.12498992  1
  Mn  Mn123  1  0.50000434  0.83486103  0.49953838  1
  Mn  Mn124  1  0.25035133  0.00067342  0.37451883  1
  Mn  Mn125  1  0.00006528  0.49929836  -0.00020066  1
  Mn  Mn126  1  0.25045173  0.83299252  0.37450284  1
  Mn  Mn127  1  0.50014456  0.49874040  0.00119834  1
  Mn  Mn128  1  0.49940590  0.83451832  -0.00029766  1
  Mn  Mn129  1  0.49975218  0.50032035  0.50003464  1
  Mn  Mn130  1  0.50058410  0.66745617  0.25047920  1
  Mn  Mn131  1  0.24964973  0.50102239  0.62474248  1
  Mn  Mn132  1  0.50077864  0.16617979  0.49942969  1
  Mn  Mn133  1  0.74984307  0.33205265  0.62607680  1
  Mn  Mn134  1  0.50005659  0.49921828  0.25036867  1
  Mn  Mn135  1  0.25019815  -0.00054460  0.87494803  1
  Mn  Mn136  1  0.75069627  0.00087499  0.37386452  1
  Mn  Mn137  1  0.00026148  0.83284149  -0.00030004  1
  Mn  Mn138  1  0.75002219  0.66695260  0.62541529  1
  Mn  Mn139  1  0.49966340  0.33321181  0.50045777  1
  Mn  Mn140  1  0.50018990  0.00055858  0.75016593  1
  Mn  Mn141  1  0.24928895  0.33384771  0.37458886  1
  Mn  Mn142  1  0.00040217  0.83280996  0.74975062  1
  Mn  Mn143  1  0.24996234  0.33481128  0.87440769  1
  Fe  Fe144  1  0.75090429  0.83256238  0.12431142  1
  Fe  Fe145  1  0.75009417  0.66676908  0.87573643  1
  Fe  Fe146  1  0.25011177  0.66639106  0.12491082  1
  Fe  Fe147  1  0.24964187  0.16722415  0.37489623  1
  Fe  Fe148  1  0.24922281  0.66700256  0.87465206  1
  Fe  Fe149  1  0.75082278  0.00097700  0.62475616  1
  Fe  Fe150  1  0.00024088  0.83382663  0.49986651  1
  Fe  Fe151  1  0.00058687  -0.00027899  0.24997025  1
  Fe  Fe152  1  0.49974718  0.33283981  0.24970005  1
  Fe  Fe153  1  -0.00061802  0.33222753  -0.00049313  1
  Fe  Fe154  1  0.74975884  0.16605092  0.12470597  1
  Fe  Fe155  1  -0.00024052  0.33340220  0.24981584  1
  Fe  Fe156  1  -0.00003982  0.00007388  0.50042709  1
  Fe  Fe157  1  0.24973828  0.33427076  0.62446663  1
  Fe  Fe158  1  -0.00062462  0.50007225  0.74956452  1
  Fe  Fe159  1  0.00053419  -0.00031979  0.75048493  1
  Fe  Fe160  1  0.49908105  0.33228144  -0.00021969  1
  Fe  Fe161  1  -0.00030815  0.66607370  0.74875419  1
  Fe  Fe162  1  0.25007019  0.66673873  0.62454671  1
  Fe  Fe163  1  0.24956912  0.66712921  0.37469109  1
  Fe  Fe164  1  -0.00069793  0.50106721  0.49935096  1
  Fe  Fe165  1  0.00026740  0.66737421  0.25043284  1
  Fe  Fe166  1  0.50039866  0.83403636  0.24992599  1
  Fe  Fe167  1  0.24917800  0.33384210  0.12503477  1
  Fe  Fe168  1  -0.00015333  0.66704262  0.49983707  1
  Fe  Fe169  1  0.24958170  0.83288526  0.12460699  1
  Fe  Fe170  1  -0.00000381  0.16583135  0.00073462  1
  Fe  Fe171  1  0.24949077  0.83317766  0.62436021  1
  Fe  Fe172  1  0.49996843  0.16588754  0.75059725  1
  Fe  Fe173  1  0.75001446  0.33177585  0.12571568  1
  Fe  Fe174  1  0.75066923  0.66650336  0.12504707  1
  Fe  Fe175  1  0.75043961  0.66680140  0.37477744  1
  Fe  Fe176  1  0.75037669  0.16623913  0.37519466  1
  Fe  Fe177  1  0.24944086  0.00052329  0.62426856  1
  Fe  Fe178  1  0.00025040  0.66601497  -0.00060703  1
  Fe  Fe179  1  0.49999024  0.00045938  0.49997723  1
  Fe  Fe180  1  0.00068189  0.16589411  0.75111952  1
  Fe  Fe181  1  0.24929682  0.50078760  0.37493623  1
  Fe  Fe182  1  0.75137558  0.16622568  0.62623769  1
  Fe  Fe183  1  0.49980974  0.16648282  -0.00023490  1
  Fe  Fe184  1  0.49995136  0.83429786  0.75012876  1
  Fe  Fe185  1  0.75026887  0.16602159  0.87533716  1
  Fe  Fe186  1  0.00051962  -0.00032775  -0.00006894  1
  Fe  Fe187  1  0.24881256  0.50098391  0.87470801  1
  Fe  Fe188  1  0.50078841  0.00025201  -0.00040898  1
  Fe  Fe189  1  0.75024657  0.33232629  0.87623308  1
  Fe  Fe190  1  0.24924827  -0.00016697  0.12518464  1
  Fe  Fe191  1  0.75093556  0.00018681  0.87484854  1
  P  P192  1  0.04071669  0.24990850  0.10187399  1
  P  P193  1  0.04209229  0.25158478  0.35224990  1
  P  P194  1  0.04275822  0.24976098  0.60379474  1
  P  P195  1  0.04188171  0.24848386  0.85342307  1
  P  P196  1  0.04217677  0.58417100  0.10224166  1
  P  P197  1  0.04166671  0.58506840  0.35270890  1
  P  P198  1  0.04107043  0.58350828  0.60163120  1
  P  P199  1  0.04084680  0.58325796  0.85106779  1
  P  P200  1  0.04232872  0.91758622  0.10249579  1
  P  P201  1  0.04280476  0.91813734  0.35305014  1
  P  P202  1  0.04140356  0.91680650  0.60192309  1
  P  P203  1  0.04262331  0.91745852  0.85251198  1
  P  P204  1  0.54108493  0.24998476  0.10152051  1
  P  P205  1  0.54256119  0.25065568  0.35201188  1
  P  P206  1  0.54278076  0.24925328  0.60383039  1
  P  P207  1  0.54169257  0.24773995  0.85355631  1
  P  P208  1  0.54288966  0.58323815  0.10375710  1
  P  P209  1  0.54323154  0.58328179  0.35334495  1
  P  P210  1  0.54283191  0.58386899  0.60374153  1
  P  P211  1  0.54260880  0.58293837  0.85414507  1
  P  P212  1  0.54286765  0.91813085  0.10236829  1
  P  P213  1  0.54290482  0.91629945  0.35239512  1
  P  P214  1  0.54257088  0.91867948  0.60274276  1
  P  P215  1  0.54260684  0.91620932  0.85268430  1
  P  P216  1  0.45719750  0.08354271  0.14534650  1
  P  P217  1  0.45733304  0.08193955  0.39712984  1
  P  P218  1  0.45791627  0.08455705  0.64718909  1
  P  P219  1  0.45849796  0.08314803  0.89818215  1
  P  P220  1  0.45737817  0.41464672  0.14735712  1
  P  P221  1  0.45689254  0.41615785  0.39641840  1
  P  P222  1  0.45633829  0.41678423  0.64724697  1
  P  P223  1  0.45698366  0.41478875  0.89808206  1
  P  P224  1  0.45797580  0.75204575  0.14773364  1
  P  P225  1  0.45722993  0.75106019  0.39642563  1
  P  P226  1  0.45782252  0.75246449  0.64777529  1
  P  P227  1  0.45693609  0.75078887  0.89654991  1
  P  P228  1  0.95826271  0.08150220  0.14703684  1
  P  P229  1  0.95827841  0.08186466  0.39753467  1
  P  P230  1  0.95928989  0.08307660  0.64899220  1
  P  P231  1  0.95920736  0.08290010  0.89841872  1
  P  P232  1  0.95767479  0.41475948  0.14692523  1
  P  P233  1  0.95765334  0.41833266  0.39723784  1
  P  P234  1  0.95741299  0.41831108  0.64745969  1
  P  P235  1  0.95733620  0.41494352  0.89738951  1
  P  P236  1  0.95879674  0.74853353  0.14712418  1
  P  P237  1  0.95907039  0.75056989  0.39821079  1
  P  P238  1  0.95806929  0.74884529  0.64642499  1
  P  P239  1  0.95833656  0.74827126  0.89682753  1
  P  P240  1  0.20722033  0.08259104  0.22739205  1
  P  P241  1  0.20795037  0.08489174  0.47754887  1
  P  P242  1  0.20757853  0.08232321  0.72696652  1
  P  P243  1  0.20749399  0.08310371  0.97856276  1
  P  P244  1  0.20702255  0.41607591  0.22749568  1
  P  P245  1  0.20706782  0.41873193  0.47735760  1
  P  P246  1  0.20726442  0.41645846  0.72716183  1
  P  P247  1  0.20689814  0.41891451  0.97727285  1
  P  P248  1  0.20849549  0.74924421  0.22644686  1
  P  P249  1  0.20805526  0.74928085  0.47781834  1
  P  P250  1  0.20808235  0.74938676  0.72602013  1
  P  P251  1  0.20772205  0.74918880  0.97757778  1
  P  P252  1  0.70779262  0.08448152  0.22731906  1
  P  P253  1  0.70856800  0.08436676  0.47823207  1
  P  P254  1  0.70942127  0.08317778  0.72767035  1
  P  P255  1  0.70920942  0.08274654  0.97684580  1
  P  P256  1  0.70821307  0.41474969  0.22778658  1
  P  P257  1  0.70719112  0.41596639  0.47891499  1
  P  P258  1  0.70754299  0.41571430  0.72987533  1
  P  P259  1  0.70806551  0.41400319  0.97890869  1
  P  P260  1  0.70924167  0.74977223  0.22659111  1
  P  P261  1  0.70797892  0.74920514  0.47723399  1
  P  P262  1  0.70729362  0.75044714  0.72898324  1
  P  P263  1  0.70831072  0.74870115  0.97847104  1
  P  P264  1  0.29132309  0.25207754  0.02242666  1
  P  P265  1  0.29159180  0.24897614  0.27202710  1
  P  P266  1  0.29183494  0.25191957  0.52180712  1
  P  P267  1  0.29261794  0.25062933  0.77130822  1
  P  P268  1  0.29191288  0.58497039  0.02189672  1
  P  P269  1  0.29108679  0.58378514  0.27310101  1
  P  P270  1  0.29188424  0.58516720  0.52157402  1
  P  P271  1  0.29077929  0.58402591  0.77300766  1
  P  P272  1  0.29113438  0.91652791  0.02349693  1
  P  P273  1  0.29223938  0.91654873  0.27063890  1
  P  P274  1  0.29093413  0.91706059  0.52315355  1
  P  P275  1  0.29216417  0.91645380  0.77031244  1
  P  P276  1  0.79109588  0.24883193  0.02304462  1
  P  P277  1  0.79232694  0.24802214  0.27212511  1
  P  P278  1  0.79297531  0.24770899  0.52317582  1
  P  P279  1  0.79189469  0.24939128  0.77430075  1
  P  P280  1  0.79236554  0.58396091  0.02271756  1
  P  P281  1  0.79233967  0.58450154  0.27226758  1
  P  P282  1  0.79292802  0.58335404  0.52191147  1
  P  P283  1  0.79241451  0.58446803  0.77368833  1
  P  P284  1  0.79265555  0.91526357  0.02199823  1
  P  P285  1  0.79341700  0.91609870  0.27088542  1
  P  P286  1  0.79269198  0.91816838  0.52257942  1
  P  P287  1  0.79274385  0.91858093  0.77220500  1
  O  O288  1  0.03603646  0.25026437  0.18185274  1
  O  O289  1  0.03712624  0.25146314  0.43220513  1
  O  O290  1  0.03750106  0.24908641  0.68372995  1
  O  O291  1  0.03635966  0.24898183  0.93330556  1
  O  O292  1  0.03697291  0.58423479  0.18213529  1
  O  O293  1  0.03609368  0.58471890  0.43253623  1
  O  O294  1  0.03578598  0.58343744  0.68151593  1
  O  O295  1  0.03619153  0.58327022  0.93105642  1
  O  O296  1  0.03723341  0.91753575  0.18243682  1
  O  O297  1  0.03714754  0.91786107  0.43290330  1
  O  O298  1  0.03679655  0.91651815  0.68190879  1
  O  O299  1  0.03736793  0.91746087  0.93242732  1
  O  O300  1  0.53614815  0.25042120  0.18147136  1
  O  O301  1  0.53766766  0.25021609  0.43198255  1
  O  O302  1  0.53737802  0.24842611  0.68375721  1
  O  O303  1  0.53604030  0.24788539  0.93343966  1
  O  O304  1  0.53789306  0.58331065  0.18373871  1
  O  O305  1  0.53819778  0.58354200  0.43333925  1
  O  O306  1  0.53771130  0.58393843  0.68376286  1
  O  O307  1  0.53749500  0.58287046  0.93413401  1
  O  O308  1  0.53791615  0.91728288  0.18231000  1
  O  O309  1  0.53771385  0.91726290  0.43233314  1
  O  O310  1  0.53752719  0.91798926  0.68269418  1
  O  O311  1  0.53740859  0.91710377  0.93260292  1
  O  O312  1  0.46262121  0.08347055  0.06545696  1
  O  O313  1  0.46200986  0.08224701  0.31712591  1
  O  O314  1  0.46312021  0.08364442  0.56726619  1
  O  O315  1  0.46348795  0.08375948  0.81818372  1
  O  O316  1  0.46251699  0.41451587  0.06739944  1
  O  O317  1  0.46218654  0.41545195  0.31644036  1
  O  O318  1  0.46152849  0.41705550  0.56728672  1
  O  O319  1  0.46202226  0.41514502  0.81814222  1
  O  O320  1  0.46276222  0.75171321  0.06774976  1
  O  O321  1  0.46249264  0.75148626  0.31648982  1
  O  O322  1  0.46285373  0.75217616  0.56778491  1
  O  O323  1  0.46234480  0.75139626  0.81662420  1
  O  O324  1  0.96382642  0.08179710  0.06720567  1
  O  O325  1  0.96357599  0.08180781  0.31762688  1
  O  O326  1  0.96423355  0.08270793  0.56905207  1
  O  O327  1  0.96421775  0.08339770  0.81855163  1
  O  O328  1  0.96297952  0.41453241  0.06698843  1
  O  O329  1  0.96307753  0.41763119  0.31731054  1
  O  O330  1  0.96256293  0.41883226  0.56751859  1
  O  O331  1  0.96222634  0.41556436  0.81749303  1
  O  O332  1  0.96402635  0.74829744  0.06719964  1
  O  O333  1  0.96399076  0.75080864  0.31822505  1
  O  O334  1  0.96345116  0.74924913  0.56655670  1
  O  O335  1  0.96356659  0.74831175  0.81687771  1
  O  O336  1  0.21265069  0.08261995  0.05851009  1
  O  O337  1  0.21243235  0.08340232  0.30732109  1
  O  O338  1  0.21336046  0.08413141  0.55747735  1
  O  O339  1  0.21272277  0.08252190  0.80693580  1
  O  O340  1  0.21182283  0.41850136  0.05720111  1
  O  O341  1  0.21217366  0.41663225  0.30735812  1
  O  O342  1  0.21236380  0.41815839  0.55725315  1
  O  O343  1  0.21242828  0.41739487  0.80707837  1
  O  O344  1  0.21305322  0.74929138  0.05742391  1
  O  O345  1  0.21339932  0.74923842  0.30640496  1
  O  O346  1  0.21334396  0.74937736  0.55766424  1
  O  O347  1  0.21275005  0.74943667  0.80602468  1
  O  O348  1  0.71377422  0.08325182  0.05678605  1
  O  O349  1  0.71312724  0.08480759  0.30723683  1
  O  O350  1  0.71420465  0.08398111  0.55810104  1
  O  O351  1  0.71458303  0.08265043  0.80756136  1
  O  O352  1  0.71362720  0.41385272  0.05882553  1
  O  O353  1  0.71302112  0.41487724  0.30776512  1
  O  O354  1  0.71225296  0.41606054  0.55891751  1
  O  O355  1  0.71288056  0.41534776  0.80984484  1
  O  O356  1  0.71422834  0.74902923  0.05831880  1
  O  O357  1  0.71429267  0.74945567  0.30657213  1
  O  O358  1  0.71283148  0.74993147  0.55721600  1
  O  O359  1  0.71258622  0.75020400  0.80891820  1
  O  O360  1  0.28630637  0.24958837  0.19211665  1
  O  O361  1  0.28629613  0.25114084  0.44189712  1
  O  O362  1  0.28742342  0.25097314  0.69136561  1
  O  O363  1  0.28650240  0.25187695  0.94248282  1
  O  O364  1  0.28605743  0.58392254  0.19312533  1
  O  O365  1  0.28646791  0.58493613  0.44173689  1
  O  O366  1  0.28597317  0.58428774  0.69302214  1
  O  O367  1  0.28652453  0.58482112  0.94206445  1
  O  O368  1  0.28651603  0.91659539  0.19082158  1
  O  O369  1  0.28648297  0.91676322  0.44313497  1
  O  O370  1  0.28662736  0.91698636  0.69048098  1
  O  O371  1  0.28658105  0.91616453  0.94344380  1
  O  O372  1  0.78676038  0.24842079  0.19223973  1
  O  O373  1  0.78777361  0.24751867  0.44322224  1
  O  O374  1  0.78735351  0.24863556  0.69432915  1
  O  O375  1  0.78628928  0.24935753  0.94316132  1
  O  O376  1  0.78694791  0.58457056  0.19231195  1
  O  O377  1  0.78782369  0.58364991  0.44192445  1
  O  O378  1  0.78723197  0.58402268  0.69373075  1
  O  O379  1  0.78681207  0.58403570  0.94283155  1
  O  O380  1  0.78808754  0.91537103  0.19095858  1
  O  O381  1  0.78791204  0.91781440  0.44258231  1
  O  O382  1  0.78729018  0.91898396  0.69227491  1
  O  O383  1  0.78736211  0.91595622  0.94207918  1
  O  O384  1  0.22696437  0.25199521  0.05783666  1
  O  O385  1  0.22733011  0.24872539  0.30782142  1
  O  O386  1  0.22770578  0.25207033  0.55790071  1
  O  O387  1  0.22821047  0.25061403  0.80652587  1
  O  O388  1  0.22766550  0.58539285  0.05786987  1
  O  O389  1  0.22694251  0.58386698  0.30921861  1
  O  O390  1  0.22768605  0.58558383  0.55766250  1
  O  O391  1  0.22653673  0.58378930  0.80893256  1
  O  O392  1  0.22690137  0.91647830  0.05908425  1
  O  O393  1  0.22822763  0.91672157  0.30684734  1
  O  O394  1  0.22667091  0.91743691  0.55867804  1
  O  O395  1  0.22799340  0.91635676  0.80622118  1
  O  O396  1  0.72701025  0.24840936  0.05927570  1
  O  O397  1  0.72817980  0.24747983  0.30837235  1
  O  O398  1  0.72871667  0.24724954  0.55896005  1
  O  O399  1  0.72764592  0.24997520  0.80999007  1
  O  O400  1  0.72827272  0.58381635  0.05877796  1
  O  O401  1  0.72819297  0.58473694  0.30832277  1
  O  O402  1  0.72855191  0.58318014  0.55719841  1
  O  O403  1  0.72813098  0.58460547  0.80934806  1
  O  O404  1  0.72849022  0.91474856  0.05796175  1
  O  O405  1  0.72917112  0.91640337  0.30640763  1
  O  O406  1  0.72831768  0.91874093  0.55795131  1
  O  O407  1  0.72855151  0.91865402  0.80810997  1
  O  O408  1  0.27143407  0.08247436  0.19166084  1
  O  O409  1  0.27215581  0.08548060  0.44162113  1
  O  O410  1  0.27189830  0.08218989  0.69149461  1
  O  O411  1  0.27181883  0.08345115  0.94317021  1
  O  O412  1  0.27127564  0.41588477  0.19168387  1
  O  O413  1  0.27122299  0.41872523  0.44135229  1
  O  O414  1  0.27150882  0.41606846  0.69134090  1
  O  O415  1  0.27125729  0.41962725  0.94178284  1
  O  O416  1  0.27259407  0.74911385  0.19035856  1
  O  O417  1  0.27217727  0.74850653  0.44163567  1
  O  O418  1  0.27229178  0.74930257  0.69023582  1
  O  O419  1  0.27186225  0.74857453  0.94142379  1
  O  O420  1  0.77203959  0.08450566  0.19154303  1
  O  O421  1  0.77268756  0.08481126  0.44184962  1
  O  O422  1  0.77355682  0.08324929  0.69134958  1
  O  O423  1  0.77344288  0.08234782  0.94110940  1
  O  O424  1  0.77252124  0.41489209  0.19239489  1
  O  O425  1  0.77158834  0.41587354  0.44378261  1
  O  O426  1  0.77184179  0.41563419  0.69436402  1
  O  O427  1  0.77220608  0.41445521  0.94287532  1
  O  O428  1  0.77341200  0.74997615  0.19056200  1
  O  O429  1  0.77248423  0.74850786  0.44202946  1
  O  O430  1  0.77160335  0.75075380  0.69357846  1
  O  O431  1  0.77232459  0.74843825  0.94194811  1
  O  O432  1  0.02226629  0.08150151  0.18352637  1
  O  O433  1  0.02250458  0.08146191  0.43338561  1
  O  O434  1  0.02342937  0.08379228  0.68501603  1
  O  O435  1  0.02322078  0.08256866  0.93467874  1
  O  O436  1  0.02187760  0.41508099  0.18278777  1
  O  O437  1  0.02182827  0.41897736  0.43326679  1
  O  O438  1  0.02167595  0.41759611  0.68307218  1
  O  O439  1  0.02166885  0.41459892  0.93290056  1
  O  O440  1  0.02298455  0.74862799  0.18304725  1
  O  O441  1  0.02313713  0.75010446  0.43421067  1
  O  O442  1  0.02219748  0.74848842  0.68259481  1
  O  O443  1  0.02255232  0.74835022  0.93263864  1
  O  O444  1  0.52140095  0.08372451  0.18108171  1
  O  O445  1  0.52188731  0.08139081  0.43216009  1
  O  O446  1  0.52219150  0.08504321  0.68296945  1
  O  O447  1  0.52274824  0.08309053  0.93400171  1
  O  O448  1  0.52174216  0.41455847  0.18287722  1
  O  O449  1  0.52126090  0.41635506  0.43169899  1
  O  O450  1  0.52074418  0.41627347  0.68236315  1
  O  O451  1  0.52137619  0.41413249  0.93347246  1
  O  O452  1  0.52238950  0.75214951  0.18302487  1
  O  O453  1  0.52163665  0.75105228  0.43156884  1
  O  O454  1  0.52215332  0.75251182  0.68325561  1
  O  O455  1  0.52126694  0.75069807  0.93186108  1
  O  O456  1  0.47687901  0.24981959  0.06560280  1
  O  O457  1  0.47804396  0.25133541  0.31683095  1
  O  O458  1  0.47850409  0.24923081  0.56832572  1
  O  O459  1  0.47759639  0.24725780  0.81726032  1
  O  O460  1  0.47838215  0.58300962  0.06894488  1
  O  O461  1  0.47873458  0.58349102  0.31847467  1
  O  O462  1  0.47833315  0.58407650  0.56879682  1
  O  O463  1  0.47817673  0.58353336  0.81915505  1
  O  O464  1  0.47844858  0.91939519  0.06702558  1
  O  O465  1  0.47854012  0.91550802  0.31682742  1
  O  O466  1  0.47819093  0.91919225  0.56719637  1
  O  O467  1  0.47830006  0.91594619  0.81706157  1
  O  O468  1  0.97657284  0.24994318  0.06599490  1
  O  O469  1  0.97776657  0.25140128  0.31677827  1
  O  O470  1  0.97844921  0.25009324  0.56844764  1
  O  O471  1  0.97780691  0.24794464  0.81712801  1
  O  O472  1  0.97794443  0.58412494  0.06642528  1
  O  O473  1  0.97764481  0.58518516  0.31628443  1
  O  O474  1  0.97710967  0.58358927  0.56503038  1
  O  O475  1  0.97665322  0.58377012  0.81530152  1
  O  O476  1  0.97815213  0.91754466  0.06658571  1
  O  O477  1  0.97871589  0.91819031  0.31667174  1
  O  O478  1  0.97726038  0.91736899  0.56600879  1
  O  O479  1  0.97838801  0.91719727  0.81678663  1
  O  O480  1  0.07197764  0.31302339  0.07310498  1
  O  O481  1  0.07258335  0.31517808  0.32370090  1
  O  O482  1  0.07367829  0.31353982  0.57610601  1
  O  O483  1  0.07284692  0.31204424  0.82508097  1
  O  O484  1  0.07311168  0.64735251  0.07329877  1
  O  O485  1  0.07255939  0.64862093  0.32430558  1
  O  O486  1  0.07197025  0.64714224  0.57330636  1
  O  O487  1  0.07233575  0.64630514  0.82251205  1
  O  O488  1  0.07326066  0.98081740  0.07379210  1
  O  O489  1  0.07379042  0.98142208  0.32436096  1
  O  O490  1  0.07271904  0.98009852  0.57373858  1
  O  O491  1  0.07327573  0.98088978  0.82368436  1
  O  O492  1  0.57200350  0.31333003  0.07284423  1
  O  O493  1  0.57351457  0.31396719  0.32353697  1
  O  O494  1  0.57356905  0.31315863  0.57634266  1
  O  O495  1  0.57257156  0.31147349  0.82565244  1
  O  O496  1  0.57365223  0.64681394  0.07561707  1
  O  O497  1  0.57441573  0.64659223  0.32508542  1
  O  O498  1  0.57382392  0.64741132  0.57566966  1
  O  O499  1  0.57397026  0.64622446  0.82611159  1
  O  O500  1  0.57400352  0.98150327  0.07400112  1
  O  O501  1  0.57385636  0.97970663  0.32393904  1
  O  O502  1  0.57307449  0.98238628  0.57431796  1
  O  O503  1  0.57375838  0.97960861  0.82440247  1
  O  O504  1  0.42607304  0.02026434  0.17389208  1
  O  O505  1  0.42662238  0.01851456  0.42579389  1
  O  O506  1  0.42692435  0.02112937  0.67568798  1
  O  O507  1  0.42801374  0.01906670  0.92582330  1
  O  O508  1  0.42649305  0.35141193  0.17619247  1
  O  O509  1  0.42563816  0.35304296  0.42508461  1
  O  O510  1  0.42521588  0.35329609  0.67507929  1
  O  O511  1  0.42600977  0.35127862  0.92615608  1
  O  O512  1  0.42696413  0.68839091  0.17549770  1
  O  O513  1  0.42642896  0.68740898  0.42459167  1
  O  O514  1  0.42675054  0.68883725  0.67553938  1
  O  O515  1  0.42606123  0.68715147  0.92460783  1
  O  O516  1  0.92731019  0.01811129  0.17550501  1
  O  O517  1  0.92693492  0.01889334  0.42634743  1
  O  O518  1  0.92917753  0.01908917  0.67761236  1
  O  O519  1  0.92798259  0.01937416  0.92646605  1
  O  O520  1  0.92691953  0.35148200  0.17591114  1
  O  O521  1  0.92674718  0.35476631  0.42550765  1
  O  O522  1  0.92600190  0.35470522  0.67489555  1
  O  O523  1  0.92663010  0.35132009  0.92577523  1
  O  O524  1  0.92786284  0.68536611  0.17612166  1
  O  O525  1  0.92752128  0.68736403  0.42618752  1
  O  O526  1  0.92697107  0.68554306  0.67504411  1
  O  O527  1  0.92745146  0.68503942  0.92569989  1
  O  O528  1  0.17677234  0.01876482  0.19917214  1
  O  O529  1  0.17698984  0.02136981  0.44942464  1
  O  O530  1  0.17682524  0.01884777  0.69846252  1
  O  O531  1  0.17644611  0.01982338  0.95006121  1
  O  O532  1  0.17663835  0.35228025  0.19898989  1
  O  O533  1  0.17559002  0.35546039  0.44937359  1
  O  O534  1  0.17670439  0.35268396  0.69905138  1
  O  O535  1  0.17612259  0.35530769  0.94905176  1
  O  O536  1  0.17735167  0.68589826  0.19818106  1
  O  O537  1  0.17659369  0.68636092  0.44884531  1
  O  O538  1  0.17700839  0.68598797  0.69780267  1
  O  O539  1  0.17647864  0.68611475  0.94851814  1
  O  O540  1  0.67701774  0.02051186  0.19986554  1
  O  O541  1  0.67764834  0.02080016  0.44980747  1
  O  O542  1  0.67838355  0.01991626  0.69869086  1
  O  O543  1  0.67831733  0.01911003  0.94878135  1
  O  O544  1  0.67781025  0.35106929  0.19918100  1
  O  O545  1  0.67633721  0.35225733  0.45112734  1
  O  O546  1  0.67622436  0.35253372  0.70142623  1
  O  O547  1  0.67737022  0.35065080  0.95007575  1
  O  O548  1  0.67828188  0.68625197  0.19832168  1
  O  O549  1  0.67716046  0.68574650  0.44889518  1
  O  O550  1  0.67606071  0.68721366  0.70073591  1
  O  O551  1  0.67720841  0.68528826  0.95016305  1
  O  O552  1  0.32158060  0.31580225  0.05108374  1
  O  O553  1  0.32278030  0.31236180  0.30012448  1
  O  O554  1  0.32216502  0.31585456  0.54988236  1
  O  O555  1  0.32386598  0.31375527  0.79984378  1
  O  O556  1  0.32315316  0.64803884  0.05092508  1
  O  O557  1  0.32221271  0.64723502  0.30116693  1
  O  O558  1  0.32304972  0.64831290  0.55050490  1
  O  O559  1  0.32158245  0.64756018  0.80140693  1
  O  O560  1  0.32170701  0.98041452  0.05134609  1
  O  O561  1  0.32371526  0.97978136  0.29896873  1
  O  O562  1  0.32194566  0.98072916  0.55087770  1
  O  O563  1  0.32357440  0.97953955  0.79918717  1
  O  O564  1  0.82153873  0.31245161  0.05216321  1
  O  O565  1  0.82313436  0.31169186  0.30048025  1
  O  O566  1  0.82340751  0.31184419  0.55079445  1
  O  O567  1  0.82296824  0.31293473  0.80227719  1
  O  O568  1  0.82341743  0.64718424  0.05134245  1
  O  O569  1  0.82331754  0.64779324  0.30092790  1
  O  O570  1  0.82400464  0.64668257  0.55033090  1
  O  O571  1  0.82304726  0.64818770  0.80166231  1
  O  O572  1  0.82360453  0.97877875  0.05016670  1
  O  O573  1  0.82428087  0.97991157  0.29847513  1
  O  O574  1  0.82364822  0.98153758  0.55102813  1
  O  O575  1  0.82390708  0.98160346  0.80121109  1
  O  O576  1  0.42584330  0.14692309  0.17374065  1
  O  O577  1  0.42672781  0.14582332  0.42508840  1
  O  O578  1  0.42689176  0.14804014  0.67548061  1
  O  O579  1  0.42726730  0.14640810  0.92686413  1
  O  O580  1  0.42643507  0.47859778  0.17497596  1
  O  O581  1  0.42595252  0.48002106  0.42409661  1
  O  O582  1  0.42545794  0.48036444  0.67555621  1
  O  O583  1  0.42633118  0.47863805  0.92610274  1
  O  O584  1  0.42747315  0.81582094  0.17598536  1
  O  O585  1  0.42573594  0.81422924  0.42490284  1
  O  O586  1  0.42725631  0.81625136  0.67591440  1
  O  O587  1  0.42549319  0.81401549  0.92497983  1
  O  O588  1  0.92704734  0.14514976  0.17510170  1
  O  O589  1  0.92776244  0.14601797  0.42525262  1
  O  O590  1  0.92795050  0.14648224  0.67723209  1
  O  O591  1  0.92855270  0.14652035  0.92760205  1
  O  O592  1  0.92653324  0.47862672  0.17437488  1
  O  O593  1  0.92663120  0.48196828  0.42526646  1
  O  O594  1  0.92694353  0.48179914  0.67668571  1
  O  O595  1  0.92632372  0.47845036  0.92583554  1
  O  O596  1  0.92780823  0.81241729  0.17472534  1
  O  O597  1  0.92885093  0.81469218  0.42666832  1
  O  O598  1  0.92697933  0.81245332  0.67471285  1
  O  O599  1  0.92732319  0.81217717  0.92447650  1
  O  O600  1  0.07109715  0.18567843  0.07395853  1
  O  O601  1  0.07318748  0.18787949  0.32446280  1
  O  O602  1  0.07403638  0.18666674  0.57491188  1
  O  O603  1  0.07322959  0.18508112  0.82518358  1
  O  O604  1  0.07304686  0.52022104  0.07452039  1
  O  O605  1  0.07299234  0.52168439  0.32432235  1
  O  O606  1  0.07204257  0.51991541  0.57317744  1
  O  O607  1  0.07076962  0.51891334  0.82270109  1
  O  O608  1  0.07322096  0.85368986  0.07472613  1
  O  O609  1  0.07403902  0.85448283  0.32491858  1
  O  O610  1  0.07153608  0.85270114  0.57337072  1
  O  O611  1  0.07384019  0.85379745  0.82464328  1
  O  O612  1  0.57180526  0.18604215  0.07353550  1
  O  O613  1  0.57301709  0.18669680  0.32391058  1
  O  O614  1  0.57432618  0.18632135  0.57489821  1
  O  O615  1  0.57299672  0.18443564  0.82501956  1
  O  O616  1  0.57403945  0.51962253  0.07594410  1
  O  O617  1  0.57407605  0.51960651  0.32532834  1
  O  O618  1  0.57373798  0.52022735  0.57571814  1
  O  O619  1  0.57336566  0.51910885  0.82634478  1
  O  O620  1  0.57342492  0.85440102  0.07396683  1
  O  O621  1  0.57369295  0.85257095  0.32415285  1
  O  O622  1  0.57376278  0.85526128  0.57440912  1
  O  O623  1  0.57328132  0.85249572  0.82444195  1
  O  O624  1  0.32262014  0.18848371  0.05001724  1
  O  O625  1  0.32230285  0.18523523  0.30035772  1
  O  O626  1  0.32345249  0.18862861  0.54981329  1
  O  O627  1  0.32341158  0.18682278  0.79945144  1
  O  O628  1  0.32282102  0.52129636  0.05032208  1
  O  O629  1  0.32148893  0.51967560  0.30113338  1
  O  O630  1  0.32288560  0.52151225  0.54985875  1
  O  O631  1  0.32147203  0.52014417  0.80112100  1
  O  O632  1  0.32188774  0.85277303  0.05177546  1
  O  O633  1  0.32339602  0.85306713  0.29900931  1
  O  O634  1  0.32118431  0.85306643  0.55160736  1
  O  O635  1  0.32324107  0.85288305  0.79857332  1
  O  O636  1  0.82233322  0.18521234  0.05111025  1
  O  O637  1  0.82366736  0.18473538  0.30057939  1
  O  O638  1  0.82445773  0.18479708  0.55215317  1
  O  O639  1  0.82228801  0.18560513  0.80326597  1
  O  O640  1  0.82355406  0.52008016  0.05010965  1
  O  O641  1  0.82323957  0.52047929  0.29963584  1
  O  O642  1  0.82386905  0.51975954  0.55026253  1
  O  O643  1  0.82347373  0.52082690  0.80159930  1
  O  O644  1  0.82367482  0.85160020  0.04997554  1
  O  O645  1  0.82486433  0.85305287  0.29968962  1
  O  O646  1  0.82335428  0.85430950  0.55058075  1
  O  O647  1  0.82372320  0.85461095  0.79955771  1
  O  O648  1  0.17563405  0.14585224  0.19918628  1
  O  O649  1  0.17703191  0.14861214  0.44949562  1
  O  O650  1  0.17645596  0.14599172  0.69930701  1
  O  O651  1  0.17646710  0.14685285  0.95074745  1
  O  O652  1  0.17565020  0.47947357  0.19943246  1
  O  O653  1  0.17662653  0.48259613  0.44899756  1
  O  O654  1  0.17605974  0.47992999  0.69892623  1
  O  O655  1  0.17596284  0.48239723  0.94861942  1
  O  O656  1  0.17805967  0.81329007  0.19816126  1
  O  O657  1  0.17745350  0.81327106  0.44975147  1
  O  O658  1  0.17769908  0.81337300  0.69745746  1
  O  O659  1  0.17686862  0.81296393  0.94935754  1
  O  O660  1  0.67654794  0.14751099  0.19829309  1
  O  O661  1  0.67727653  0.14766128  0.44968350  1
  O  O662  1  0.67860967  0.14706690  0.69973309  1
  O  O663  1  0.67860309  0.14639945  0.94800771  1
  O  O664  1  0.67688794  0.47833653  0.20011234  1
  O  O665  1  0.67611322  0.47931947  0.45048109  1
  O  O666  1  0.67664888  0.47952561  0.70201102  1
  O  O667  1  0.67667233  0.47780054  0.95171286  1
  O  O668  1  0.67848816  0.81362915  0.19845757  1
  O  O669  1  0.67730853  0.81303485  0.44907340  1
  O  O670  1  0.67633641  0.81415995  0.70089458  1
  O  O671  1  0.67703742  0.81230701  0.95051367  1
