# generated using pymatgen
data_Na2MnFe(PO4)2
_symmetry_space_group_name_H-M   'P 1'
_cell_length_a   22.34479662
_cell_length_b   20.09902131
_cell_length_c   19.44865114
_cell_angle_alpha   90.03005233
_cell_angle_beta   89.93446803
_cell_angle_gamma   90.02785739
_symmetry_Int_Tables_number   1
_chemical_formula_structural   Na2MnFe(PO4)2
_chemical_formula_sum   'Na96 Mn48 Fe48 P96 O384'
_cell_volume   8734.54744201
_cell_formula_units_Z   48
loop_
 _symmetry_equiv_pos_site_id
 _symmetry_equiv_pos_as_xyz
  1  'x, y, z'
loop_
 _atom_site_type_symbol
 _atom_site_label
 _atom_site_symmetry_multiplicity
 _atom_site_fract_x
 _atom_site_fract_y
 _atom_site_fract_z
 _atom_site_occupancy
  Na  Na0  1  0.14026427  0.25039657  0.24415063  1
  Na  Na1  1  0.13999939  0.25066849  0.49424247  1
  Na  Na2  1  0.13946361  0.25055078  0.74423491  1
  Na  Na3  1  0.13936201  0.25102199  0.99337495  1
  Na  Na4  1  0.14079597  0.58338789  0.24437419  1
  Na  Na5  1  0.14028274  0.58360753  0.49398528  1
  Na  Na6  1  0.14051869  0.58418552  0.74454679  1
  Na  Na7  1  0.14106651  0.58265202  0.99306746  1
  Na  Na8  1  0.14021127  0.91801016  0.24386963  1
  Na  Na9  1  0.14047292  0.91832330  0.49504757  1
  Na  Na10  1  0.14030694  0.91715190  0.74441236  1
  Na  Na11  1  0.13996758  0.91578600  0.99414791  1
  Na  Na12  1  0.64058605  0.24878603  0.24290833  1
  Na  Na13  1  0.64047571  0.24882262  0.49221336  1
  Na  Na14  1  0.64026629  0.24913914  0.74218628  1
  Na  Na15  1  0.64027165  0.24880601  0.99334313  1
  Na  Na16  1  0.64119342  0.58315053  0.24509326  1
  Na  Na17  1  0.64094736  0.58300495  0.49245625  1
  Na  Na18  1  0.64110790  0.58413776  0.74278725  1
  Na  Na19  1  0.64146867  0.58411745  0.99294160  1
  Na  Na20  1  0.64101906  0.91650274  0.24348683  1
  Na  Na21  1  0.64118567  0.91521107  0.49386465  1
  Na  Na22  1  0.64135677  0.91574554  0.74345413  1
  Na  Na23  1  0.64073300  0.91530659  0.99335500  1
  Na  Na24  1  0.35958595  0.08450145  0.00680610  1
  Na  Na25  1  0.35947065  0.08536124  0.25567927  1
  Na  Na26  1  0.35967835  0.08419504  0.50598745  1
  Na  Na27  1  0.35989396  0.08444914  0.75560648  1
  Na  Na28  1  0.35928526  0.41596933  0.00507057  1
  Na  Na29  1  0.35934078  0.41547872  0.25585195  1
  Na  Na30  1  0.36032198  0.41633560  0.50547917  1
  Na  Na31  1  0.35978683  0.41785271  0.75588105  1
  Na  Na32  1  0.36012188  0.75020205  0.00570219  1
  Na  Na33  1  0.36010436  0.75111010  0.25559299  1
  Na  Na34  1  0.36000677  0.75098491  0.50652790  1
  Na  Na35  1  0.35968569  0.75090115  0.75593893  1
  Na  Na36  1  0.85900580  0.08246985  0.00799362  1
  Na  Na37  1  0.85894410  0.08262245  0.25603198  1
  Na  Na38  1  0.85903982  0.08150153  0.50777749  1
  Na  Na39  1  0.85952574  0.08264630  0.75672605  1
  Na  Na40  1  0.85929111  0.41587638  0.00554467  1
  Na  Na41  1  0.85884177  0.41634990  0.25689170  1
  Na  Na42  1  0.85907996  0.41603226  0.50751602  1
  Na  Na43  1  0.85941075  0.41750946  0.75665275  1
  Na  Na44  1  0.85927168  0.75070828  0.00642126  1
  Na  Na45  1  0.85912182  0.75043238  0.25754004  1
  Na  Na46  1  0.85904469  0.74890727  0.50744725  1
  Na  Na47  1  0.85888543  0.74994916  0.75679240  1
  Na  Na48  1  0.10885104  0.08404465  0.11796263  1
  Na  Na49  1  0.10956878  0.08344690  0.36990055  1
  Na  Na50  1  0.10948222  0.08532327  0.61904806  1
  Na  Na51  1  0.10900045  0.08418579  0.87019094  1
  Na  Na52  1  0.10964267  0.41532598  0.11819235  1
  Na  Na53  1  0.10944675  0.41572219  0.36932067  1
  Na  Na54  1  0.10930636  0.41789247  0.62044409  1
  Na  Na55  1  0.10939222  0.41554204  0.86814221  1
  Na  Na56  1  0.10972819  0.75093628  0.11827663  1
  Na  Na57  1  0.10950069  0.74994695  0.37003010  1
  Na  Na58  1  0.10947910  0.75125579  0.61908824  1
  Na  Na59  1  0.10956531  0.74990368  0.86916719  1
  Na  Na60  1  0.61019613  0.08243488  0.11776450  1
  Na  Na61  1  0.61017395  0.08227319  0.36829053  1
  Na  Na62  1  0.61043113  0.08398875  0.61781854  1
  Na  Na63  1  0.60993897  0.08229371  0.86845340  1
  Na  Na64  1  0.61013053  0.41521257  0.11858577  1
  Na  Na65  1  0.61046939  0.41514749  0.36820594  1
  Na  Na66  1  0.60975623  0.41709111  0.61611935  1
  Na  Na67  1  0.60999063  0.41625847  0.86778799  1
  Na  Na68  1  0.61061705  0.75090838  0.11872269  1
  Na  Na69  1  0.61073661  0.74939028  0.36858163  1
  Na  Na70  1  0.61071911  0.74999026  0.61798673  1
  Na  Na71  1  0.61094141  0.75061098  0.86782892  1
  Na  Na72  1  0.38942802  0.24970651  0.13122874  1
  Na  Na73  1  0.39024571  0.25014257  0.38114422  1
  Na  Na74  1  0.39065025  0.25072471  0.62953972  1
  Na  Na75  1  0.39029433  0.24993314  0.88096495  1
  Na  Na76  1  0.39098467  0.58434589  0.12993349  1
  Na  Na77  1  0.39106752  0.58269505  0.38147045  1
  Na  Na78  1  0.39120778  0.58418600  0.63050662  1
  Na  Na79  1  0.39035548  0.58435976  0.88133931  1
  Na  Na80  1  0.39059708  0.91681785  0.13104278  1
  Na  Na81  1  0.39075655  0.91652092  0.38121106  1
  Na  Na82  1  0.39024682  0.91785813  0.63180024  1
  Na  Na83  1  0.39070494  0.91714963  0.88039623  1
  Na  Na84  1  0.88888889  0.24976343  0.13098475  1
  Na  Na85  1  0.88951053  0.24910448  0.38196135  1
  Na  Na86  1  0.89032027  0.25071792  0.63176641  1
  Na  Na87  1  0.88998817  0.24915224  0.88125417  1
  Na  Na88  1  0.89027548  0.58317156  0.13078440  1
  Na  Na89  1  0.88990749  0.58205561  0.38323384  1
  Na  Na90  1  0.88951404  0.58313748  0.63220484  1
  Na  Na91  1  0.88960552  0.58228929  0.88141918  1
  Na  Na92  1  0.88926869  0.91649501  0.13169585  1
  Na  Na93  1  0.88954851  0.91540903  0.38291886  1
  Na  Na94  1  0.88955321  0.91786113  0.63246024  1
  Na  Na95  1  0.88949655  0.91734143  0.88317306  1
  Mn  Mn96  1  0.50000177  0.33256918  0.74864485  1
  Mn  Mn97  1  0.25064584  0.49918292  0.12394882  1
  Mn  Mn98  1  0.50003885  -0.00008128  -0.00058059  1
  Mn  Mn99  1  -0.00033603  0.49922216  0.25072273  1
  Mn  Mn100  1  0.74985117  0.33351381  0.87405192  1
  Mn  Mn101  1  -0.00066194  -0.00035353  0.24994374  1
  Mn  Mn102  1  0.25014277  0.50054568  0.62530495  1
  Mn  Mn103  1  0.74996064  0.16550442  0.37449050  1
  Mn  Mn104  1  -0.00087377  0.66646883  0.75067332  1
  Mn  Mn105  1  0.24901407  0.16770462  0.87528213  1
  Mn  Mn106  1  0.50072730  0.49984664  -0.00045160  1
  Mn  Mn107  1  0.25006427  0.83479011  0.37538941  1
  Mn  Mn108  1  0.49984508  0.33182215  -0.00119766  1
  Mn  Mn109  1  0.50070399  0.83296017  0.50018703  1
  Mn  Mn110  1  0.00033253  0.66670412  0.00041990  1
  Mn  Mn111  1  0.24977357  0.33386956  0.62502084  1
  Mn  Mn112  1  0.50009242  -0.00013558  0.24949954  1
  Mn  Mn113  1  0.50077035  0.66788725  0.74999715  1
  Mn  Mn114  1  0.50107536  0.66710232  0.25009945  1
  Mn  Mn115  1  0.50020838  0.00074677  0.74997369  1
  Mn  Mn116  1  0.75086046  0.66726559  0.12497923  1
  Mn  Mn117  1  -0.00012134  0.83319638  0.25078018  1
  Mn  Mn118  1  -0.00019300  0.49978032  0.50087049  1
  Mn  Mn119  1  0.25097464  0.00182724  0.37424504  1
  Mn  Mn120  1  0.25010268  0.00021736  0.87583011  1
  Mn  Mn121  1  0.00024148  0.00163162  0.75192953  1
  Mn  Mn122  1  -0.00030837  0.83379255  0.50084940  1
  Mn  Mn123  1  0.25054012  0.66750689  0.62466984  1
  Mn  Mn124  1  -0.00070726  0.33251896  0.24991890  1
  Mn  Mn125  1  0.50060138  0.50047396  0.74857435  1
  Mn  Mn126  1  0.25059537  0.83307835  0.87421165  1
  Mn  Mn127  1  -0.00016430  0.66626756  0.25001365  1
  Mn  Mn128  1  0.74942523  0.33307100  0.62455910  1
  Mn  Mn129  1  0.24981539  0.00059196  0.12531972  1
  Mn  Mn130  1  -0.00031571  0.83426903  0.75027286  1
  Mn  Mn131  1  0.50070717  0.00073086  0.50009639  1
  Mn  Mn132  1  0.25077665  0.66723005  0.12441819  1
  Mn  Mn133  1  0.74988461  0.16529680  0.87472542  1
  Mn  Mn134  1  0.25073453  0.49925540  0.37385199  1
  Mn  Mn135  1  -0.00074071  0.16622255  0.25028378  1
  Mn  Mn136  1  0.00025430  0.49858562  0.00037185  1
  Mn  Mn137  1  -0.00024541  0.16724286  0.50076994  1
  Mn  Mn138  1  0.25063494  0.16686617  0.62526060  1
  Mn  Mn139  1  0.25038418  0.66760515  0.37453054  1
  Mn  Mn140  1  0.75051111  0.49937960  0.12517369  1
  Mn  Mn141  1  0.50052136  0.49938728  0.25005153  1
  Mn  Mn142  1  0.49973889  0.33175935  0.24931603  1
  Mn  Mn143  1  0.50143157  0.66819688  0.00028761  1
  Fe  Fe144  1  0.24960788  0.66714042  0.87480152  1
  Fe  Fe145  1  0.74978304  -0.00075479  0.87541316  1
  Fe  Fe146  1  -0.00002783  0.49989563  0.75026910  1
  Fe  Fe147  1  -0.00049030  0.00026056  0.00007727  1
  Fe  Fe148  1  0.50052501  0.50000222  0.49934932  1
  Fe  Fe149  1  0.75037946  0.83323185  0.37575356  1
  Fe  Fe150  1  0.74975859  0.83346647  0.12533608  1
  Fe  Fe151  1  0.50091954  0.33269676  0.49909207  1
  Fe  Fe152  1  0.74993095  -0.00107977  0.37563845  1
  Fe  Fe153  1  0.50013803  0.16670220  0.49912751  1
  Fe  Fe154  1  0.24936215  0.16787468  0.12545119  1
  Fe  Fe155  1  -0.00055230  0.33344835  0.75075435  1
  Fe  Fe156  1  0.74978100  0.66604357  0.62478930  1
  Fe  Fe157  1  0.50040839  0.83325458  0.25025183  1
  Fe  Fe158  1  0.75008597  0.16552081  0.62431015  1
  Fe  Fe159  1  0.25007641  0.83361709  0.12462165  1
  Fe  Fe160  1  0.50023780  0.16611883  0.24972007  1
  Fe  Fe161  1  0.75006324  -0.00150296  0.62549769  1
  Fe  Fe162  1  0.75035026  0.83319444  0.87482072  1
  Fe  Fe163  1  0.24998199  0.83421087  0.62539061  1
  Fe  Fe164  1  0.24942432  0.00078170  0.62521781  1
  Fe  Fe165  1  -0.00110645  0.16700856  -0.00036710  1
  Fe  Fe166  1  0.24938204  0.16752411  0.37516889  1
  Fe  Fe167  1  0.75069902  0.66652178  0.37562599  1
  Fe  Fe168  1  0.49986080  0.66695125  0.49937559  1
  Fe  Fe169  1  -0.00016262  0.00052431  0.50094264  1
  Fe  Fe170  1  0.75039829  0.33243216  0.37476728  1
  Fe  Fe171  1  -0.00013909  0.66636716  0.50085955  1
  Fe  Fe172  1  -0.00132787  0.33251410  -0.00089096  1
  Fe  Fe173  1  0.24972485  0.33312114  0.37498944  1
  Fe  Fe174  1  -0.00085603  0.16736228  0.75040281  1
  Fe  Fe175  1  0.74961759  0.49992259  0.62480140  1
  Fe  Fe176  1  0.75047165  0.66694413  0.87432778  1
  Fe  Fe177  1  0.50002148  0.16621780  -0.00057301  1
  Fe  Fe178  1  0.74927268  0.50039555  0.87493950  1
  Fe  Fe179  1  0.74922711  0.33301504  0.12493067  1
  Fe  Fe180  1  -0.00018514  0.33383490  0.50143684  1
  Fe  Fe181  1  0.24924208  0.33335712  0.12479687  1
  Fe  Fe182  1  0.25024284  0.33348522  0.87512592  1
  Fe  Fe183  1  0.75031919  0.49935156  0.37510001  1
  Fe  Fe184  1  0.75053433  0.83250459  0.62528517  1
  Fe  Fe185  1  0.25000862  0.50021673  0.87509188  1
  Fe  Fe186  1  0.75001572  -0.00111313  0.12562317  1
  Fe  Fe187  1  0.50040239  0.16689683  0.74901704  1
  Fe  Fe188  1  0.74958746  0.16609241  0.12501226  1
  Fe  Fe189  1  0.50030142  0.83386554  -0.00014568  1
  Fe  Fe190  1  0.50031327  0.83370502  0.74951711  1
  Fe  Fe191  1  -0.00109769  0.83363123  0.00027057  1
  P  P192  1  0.04031276  0.25009299  0.10102450  1
  P  P193  1  0.04219492  0.24981775  0.35390270  1
  P  P194  1  0.04177852  0.25211589  0.60399147  1
  P  P195  1  0.04064760  0.24973562  0.85245254  1
  P  P196  1  0.04336081  0.58284155  0.10323323  1
  P  P197  1  0.04258005  0.58319322  0.35414318  1
  P  P198  1  0.04200739  0.58427395  0.60342989  1
  P  P199  1  0.04191247  0.58169227  0.85274967  1
  P  P200  1  0.04089069  0.91687096  0.10156187  1
  P  P201  1  0.04243831  0.91707724  0.35419684  1
  P  P202  1  0.04204586  0.91897852  0.60335944  1
  P  P203  1  0.04220768  0.91712879  0.85488138  1
  P  P204  1  0.54206512  0.24776362  0.10214147  1
  P  P205  1  0.54239808  0.24786717  0.35261920  1
  P  P206  1  0.54194776  0.24945178  0.60088233  1
  P  P207  1  0.54255729  0.24799751  0.85175181  1
  P  P208  1  0.54399690  0.58353354  0.10291792  1
  P  P209  1  0.54297255  0.58297869  0.35405580  1
  P  P210  1  0.54199392  0.58404450  0.60055393  1
  P  P211  1  0.54344884  0.58380030  0.85247047  1
  P  P212  1  0.54237493  0.91560787  0.10248562  1
  P  P213  1  0.54265871  0.91556913  0.35227197  1
  P  P214  1  0.54295564  0.91694549  0.60350869  1
  P  P215  1  0.54250750  0.91555225  0.85228336  1
  P  P216  1  0.45800299  0.08461174  0.14686747  1
  P  P217  1  0.45805863  0.08437840  0.39681205  1
  P  P218  1  0.45820487  0.08540740  0.64665600  1
  P  P219  1  0.45761473  0.08460241  0.89691068  1
  P  P220  1  0.45737921  0.41603518  0.14645679  1
  P  P221  1  0.45941773  0.41605947  0.39811649  1
  P  P222  1  0.45799978  0.41674625  0.64493502  1
  P  P223  1  0.45753446  0.41628372  0.89595129  1
  P  P224  1  0.45851995  0.75190328  0.14729110  1
  P  P225  1  0.45799505  0.74922545  0.39714704  1
  P  P226  1  0.45823814  0.75120542  0.64701607  1
  P  P227  1  0.45857341  0.75228291  0.89705225  1
  P  P228  1  0.95686051  0.08316826  0.14591581  1
  P  P229  1  0.95694357  0.08203080  0.39861307  1
  P  P230  1  0.95774087  0.08488065  0.64808844  1
  P  P231  1  0.95767801  0.08379998  0.89880332  1
  P  P232  1  0.95649009  0.41590902  0.14663972  1
  P  P233  1  0.95716105  0.41492296  0.39862289  1
  P  P234  1  0.95811390  0.41672580  0.64894835  1
  P  P235  1  0.95759638  0.41477531  0.89656699  1
  P  P236  1  0.95687872  0.75045696  0.14679508  1
  P  P237  1  0.95740804  0.74839582  0.39861850  1
  P  P238  1  0.95698972  0.75000514  0.64701406  1
  P  P239  1  0.95740016  0.75084679  0.89804141  1
  P  P240  1  0.20728384  0.08584745  0.22773671  1
  P  P241  1  0.20788808  0.08472245  0.47792920  1
  P  P242  1  0.20733805  0.08287095  0.72785082  1
  P  P243  1  0.20715689  0.08426240  0.97922125  1
  P  P244  1  0.20773693  0.41517895  0.22739657  1
  P  P245  1  0.20769561  0.41586405  0.47718455  1
  P  P246  1  0.20748086  0.41729402  0.72942229  1
  P  P247  1  0.20817296  0.41625584  0.97645660  1
  P  P248  1  0.20761649  0.75175756  0.22714997  1
  P  P249  1  0.20753231  0.75119886  0.47879544  1
  P  P250  1  0.20771719  0.75125628  0.72764512  1
  P  P251  1  0.20785774  0.74936539  0.97745919  1
  P  P252  1  0.70857196  0.08246871  0.22656825  1
  P  P253  1  0.70823436  0.08117033  0.47800928  1
  P  P254  1  0.70909698  0.08214713  0.72649229  1
  P  P255  1  0.70803778  0.08127230  0.97833121  1
  P  P256  1  0.70805031  0.41498720  0.22823925  1
  P  P257  1  0.70907275  0.41596068  0.47650591  1
  P  P258  1  0.70734202  0.41823400  0.72707688  1
  P  P259  1  0.70768862  0.41725844  0.97729368  1
  P  P260  1  0.70859410  0.75135253  0.22837826  1
  P  P261  1  0.70924809  0.74956690  0.47737674  1
  P  P262  1  0.70933667  0.74958220  0.72693922  1
  P  P263  1  0.70914465  0.75002457  0.97635847  1
  P  P264  1  0.29089506  0.25089173  0.02311344  1
  P  P265  1  0.29110477  0.25014549  0.27284564  1
  P  P266  1  0.29244246  0.25036047  0.52096295  1
  P  P267  1  0.29236494  0.25144702  0.77269436  1
  P  P268  1  0.29303567  0.58318439  0.02037126  1
  P  P269  1  0.29369756  0.58363080  0.27125963  1
  P  P270  1  0.29330547  0.58336284  0.52154515  1
  P  P271  1  0.29166536  0.58401046  0.77357240  1
  P  P272  1  0.29242041  0.91584015  0.02258789  1
  P  P273  1  0.29313425  0.91744346  0.27124669  1
  P  P274  1  0.29167695  0.91789201  0.52378468  1
  P  P275  1  0.29280599  0.91762138  0.77095590  1
  P  P276  1  0.79033173  0.24977946  0.02323582  1
  P  P277  1  0.79180111  0.25049135  0.27167518  1
  P  P278  1  0.79175539  0.24818856  0.52217690  1
  P  P279  1  0.79207148  0.24913128  0.77103615  1
  P  P280  1  0.79261444  0.58327938  0.02115727  1
  P  P281  1  0.79180809  0.58320145  0.27404272  1
  P  P282  1  0.79106082  0.58264437  0.52300659  1
  P  P283  1  0.79108847  0.58334635  0.77265259  1
  P  P284  1  0.79100361  0.91620715  0.02312127  1
  P  P285  1  0.79140554  0.91653223  0.27351776  1
  P  P286  1  0.79127703  0.91528265  0.52343471  1
  P  P287  1  0.79150299  0.91649134  0.77326116  1
  O  O288  1  0.03588298  0.24965158  0.18103051  1
  O  O289  1  0.03746194  0.25041422  0.43387104  1
  O  O290  1  0.03613034  0.25187626  0.68385405  1
  O  O291  1  0.03518306  0.24967257  0.93233481  1
  O  O292  1  0.03819169  0.58284271  0.18323759  1
  O  O293  1  0.03733501  0.58371675  0.43415882  1
  O  O294  1  0.03662870  0.58350782  0.68336215  1
  O  O295  1  0.03704267  0.58177790  0.93270956  1
  O  O296  1  0.03615828  0.91667133  0.18163284  1
  O  O297  1  0.03736738  0.91763742  0.43418301  1
  O  O298  1  0.03697716  0.91881610  0.68335157  1
  O  O299  1  0.03661974  0.91670260  0.93478189  1
  O  O300  1  0.53692462  0.24780694  0.18211913  1
  O  O301  1  0.53710116  0.24816818  0.43253779  1
  O  O302  1  0.53733800  0.24965784  0.68089838  1
  O  O303  1  0.53728169  0.24781224  0.93171255  1
  O  O304  1  0.53881340  0.58355765  0.18292349  1
  O  O305  1  0.53721457  0.58312631  0.43396568  1
  O  O306  1  0.53710788  0.58413089  0.68059066  1
  O  O307  1  0.53876732  0.58391956  0.93245097  1
  O  O308  1  0.53726461  0.91556012  0.18244316  1
  O  O309  1  0.53762112  0.91616754  0.43223486  1
  O  O310  1  0.53754299  0.91663691  0.68343904  1
  O  O311  1  0.53722727  0.91548719  0.93226775  1
  O  O312  1  0.46329864  0.08457880  0.06690871  1
  O  O313  1  0.46319729  0.08414595  0.31684152  1
  O  O314  1  0.46362137  0.08535505  0.56672240  1
  O  O315  1  0.46276915  0.08460788  0.81694066  1
  O  O316  1  0.46252895  0.41587517  0.06648652  1
  O  O317  1  0.46392851  0.41558593  0.31810379  1
  O  O318  1  0.46366821  0.41680439  0.56502820  1
  O  O319  1  0.46260837  0.41623076  0.81594044  1
  O  O320  1  0.46382740  0.75214791  0.06730898  1
  O  O321  1  0.46324332  0.74990892  0.31720686  1
  O  O322  1  0.46327093  0.75000564  0.56705494  1
  O  O323  1  0.46369967  0.75249839  0.81705343  1
  O  O324  1  0.96215944  0.08309740  0.06602683  1
  O  O325  1  0.96181215  0.08213640  0.31857838  1
  O  O326  1  0.96308166  0.08393687  0.56818666  1
  O  O327  1  0.96250850  0.08450967  0.81882337  1
  O  O328  1  0.96145284  0.41550764  0.06662999  1
  O  O329  1  0.96197212  0.41527081  0.31862721  1
  O  O330  1  0.96330033  0.41652912  0.56897735  1
  O  O331  1  0.96333500  0.41505788  0.81668966  1
  O  O332  1  0.96201198  0.75114852  0.06680119  1
  O  O333  1  0.96241702  0.74884984  0.31860625  1
  O  O334  1  0.96239633  0.74940614  0.56708136  1
  O  O335  1  0.96226989  0.75073551  0.81803434  1
  O  O336  1  0.21239137  0.08494825  0.05914780  1
  O  O337  1  0.21255896  0.08606723  0.30771731  1
  O  O338  1  0.21316495  0.08370463  0.55788494  1
  O  O339  1  0.21224560  0.08319413  0.80785107  1
  O  O340  1  0.21326882  0.41586330  0.05644285  1
  O  O341  1  0.21316434  0.41502071  0.30730604  1
  O  O342  1  0.21263881  0.41640141  0.55717451  1
  O  O343  1  0.21290846  0.41731318  0.80930438  1
  O  O344  1  0.21302295  0.75011095  0.05739036  1
  O  O345  1  0.21271279  0.75159473  0.30715599  1
  O  O346  1  0.21289073  0.75163859  0.55875480  1
  O  O347  1  0.21289958  0.75029238  0.80761609  1
  O  O348  1  0.71346004  0.08169720  0.05816114  1
  O  O349  1  0.71313191  0.08272913  0.30648920  1
  O  O350  1  0.71367209  0.08169913  0.55782481  1
  O  O351  1  0.71370418  0.08184006  0.80649588  1
  O  O352  1  0.71294925  0.41656504  0.05724099  1
  O  O353  1  0.71376253  0.41481121  0.30807960  1
  O  O354  1  0.71379891  0.41663651  0.55649537  1
  O  O355  1  0.71240335  0.41825377  0.80702495  1
  O  O356  1  0.71386617  0.75066145  0.05630900  1
  O  O357  1  0.71419255  0.75135339  0.30817187  1
  O  O358  1  0.71402183  0.74915816  0.55725230  1
  O  O359  1  0.71433637  0.74918190  0.80678809  1
  O  O360  1  0.28569219  0.25017048  0.19293473  1
  O  O361  1  0.28703412  0.25019632  0.44107399  1
  O  O362  1  0.28756388  0.25093896  0.69273687  1
  O  O363  1  0.28598840  0.25114999  0.94315047  1
  O  O364  1  0.28869132  0.58350156  0.19125931  1
  O  O365  1  0.28847515  0.58337739  0.44157095  1
  O  O366  1  0.28663637  0.58407665  0.69355316  1
  O  O367  1  0.28738310  0.58328196  0.94047796  1
  O  O368  1  0.28791910  0.91673928  0.19133368  1
  O  O369  1  0.28693079  0.91810791  0.44373405  1
  O  O370  1  0.28721845  0.91786445  0.69107242  1
  O  O371  1  0.28732050  0.91598096  0.94262427  1
  O  O372  1  0.78607246  0.25051583  0.19182364  1
  O  O373  1  0.78668991  0.24849940  0.44221060  1
  O  O374  1  0.78673444  0.24869435  0.69113111  1
  O  O375  1  0.78557847  0.24932495  0.94324222  1
  O  O376  1  0.78742845  0.58325997  0.19404731  1
  O  O377  1  0.78652663  0.58269903  0.44311174  1
  O  O378  1  0.78579448  0.58307212  0.69276572  1
  O  O379  1  0.78698502  0.58318121  0.94129409  1
  O  O380  1  0.78621201  0.91663913  0.19365065  1
  O  O381  1  0.78637285  0.91527669  0.44359791  1
  O  O382  1  0.78657215  0.91615723  0.69342130  1
  O  O383  1  0.78605442  0.91658727  0.94326842  1
  O  O384  1  0.22665717  0.25103759  0.05909425  1
  O  O385  1  0.22708557  0.25040665  0.30952806  1
  O  O386  1  0.22826852  0.25004510  0.55687334  1
  O  O387  1  0.22785121  0.25214594  0.80786610  1
  O  O388  1  0.22891345  0.58324021  0.05643145  1
  O  O389  1  0.22921326  0.58341644  0.30627794  1
  O  O390  1  0.22878605  0.58374496  0.55645584  1
  O  O391  1  0.22746754  0.58395069  0.80955343  1
  O  O392  1  0.22808457  0.91584184  0.05819582  1
  O  O393  1  0.22875744  0.91815060  0.30654395  1
  O  O394  1  0.22742369  0.91760628  0.55960554  1
  O  O395  1  0.22860259  0.91722347  0.80683009  1
  O  O396  1  0.72625804  0.25017273  0.05926118  1
  O  O397  1  0.72776811  0.25056371  0.30815737  1
  O  O398  1  0.72747746  0.24820246  0.55783831  1
  O  O399  1  0.72783412  0.24917219  0.80662573  1
  O  O400  1  0.72860520  0.58328024  0.05746388  1
  O  O401  1  0.72761259  0.58324728  0.30968954  1
  O  O402  1  0.72686878  0.58229891  0.55901117  1
  O  O403  1  0.72713458  0.58397785  0.80933671  1
  O  O404  1  0.72698903  0.91577995  0.05970453  1
  O  O405  1  0.72733761  0.91609915  0.30997062  1
  O  O406  1  0.72724230  0.91499712  0.55976206  1
  O  O407  1  0.72741694  0.91696797  0.80957968  1
  O  O408  1  0.27155610  0.08565652  0.19200731  1
  O  O409  1  0.27211014  0.08601692  0.44195406  1
  O  O410  1  0.27175957  0.08218726  0.69249803  1
  O  O411  1  0.27143979  0.08456451  0.94368618  1
  O  O412  1  0.27198376  0.41467348  0.19147021  1
  O  O413  1  0.27207554  0.41507792  0.44167905  1
  O  O414  1  0.27172301  0.41722982  0.69359721  1
  O  O415  1  0.27235272  0.41643383  0.94035622  1
  O  O416  1  0.27205452  0.75227316  0.19171624  1
  O  O417  1  0.27188366  0.75103931  0.44334865  1
  O  O418  1  0.27201442  0.75211791  0.69196097  1
  O  O419  1  0.27214273  0.74850517  0.94169639  1
  O  O420  1  0.77267414  0.08215525  0.19057663  1
  O  O421  1  0.77229856  0.08101822  0.44164153  1
  O  O422  1  0.77322736  0.08238916  0.69062813  1
  O  O423  1  0.77215183  0.08079500  0.94201346  1
  O  O424  1  0.77207955  0.41445472  0.19171205  1
  O  O425  1  0.77323625  0.41529807  0.44065242  1
  O  O426  1  0.77166415  0.41789159  0.69142995  1
  O  O427  1  0.77186003  0.41783999  0.94128227  1
  O  O428  1  0.77262762  0.75205359  0.19183161  1
  O  O429  1  0.77331237  0.75030007  0.44108867  1
  O  O430  1  0.77329717  0.74956411  0.69049721  1
  O  O431  1  0.77324745  0.74944097  0.94023340  1
  O  O432  1  0.02110353  0.08319428  0.18160534  1
  O  O433  1  0.02138679  0.08213830  0.43379114  1
  O  O434  1  0.02192059  0.08573239  0.68396273  1
  O  O435  1  0.02185209  0.08326844  0.93445845  1
  O  O436  1  0.02098962  0.41614943  0.18155224  1
  O  O437  1  0.02160191  0.41506871  0.43378643  1
  O  O438  1  0.02217518  0.41679801  0.68503473  1
  O  O439  1  0.02163245  0.41398086  0.93289545  1
  O  O440  1  0.02133791  0.75006569  0.18178585  1
  O  O441  1  0.02171773  0.74861350  0.43402010  1
  O  O442  1  0.02125920  0.75006876  0.68240465  1
  O  O443  1  0.02175227  0.75138909  0.93324963  1
  O  O444  1  0.52222775  0.08456667  0.18268021  1
  O  O445  1  0.52239673  0.08455957  0.43226917  1
  O  O446  1  0.52241633  0.08517520  0.68251866  1
  O  O447  1  0.52194450  0.08450005  0.93241404  1
  O  O448  1  0.52178280  0.41557444  0.18149952  1
  O  O449  1  0.52364395  0.41681578  0.43358766  1
  O  O450  1  0.52220319  0.41641624  0.68066844  1
  O  O451  1  0.52194302  0.41575478  0.93093881  1
  O  O452  1  0.52280601  0.75196795  0.18295453  1
  O  O453  1  0.52234883  0.74863387  0.43258391  1
  O  O454  1  0.52262661  0.75178325  0.68233418  1
  O  O455  1  0.52292627  0.75258854  0.93255961  1
  O  O456  1  0.47772927  0.24772451  0.06662656  1
  O  O457  1  0.47814977  0.24734990  0.31673766  1
  O  O458  1  0.47778319  0.24944181  0.56522819  1
  O  O459  1  0.47822450  0.24802232  0.81621573  1
  O  O460  1  0.47959937  0.58409528  0.06787566  1
  O  O461  1  0.47888622  0.58330923  0.31809212  1
  O  O462  1  0.47776501  0.58377253  0.56493664  1
  O  O463  1  0.47895411  0.58405431  0.81772447  1
  O  O464  1  0.47811115  0.91554984  0.06680096  1
  O  O465  1  0.47835366  0.91535001  0.31681259  1
  O  O466  1  0.47871411  0.91695432  0.56810332  1
  O  O467  1  0.47830410  0.91570731  0.81652030  1
  O  O468  1  0.97596952  0.25079349  0.06571566  1
  O  O469  1  0.97770458  0.24942414  0.31895659  1
  O  O470  1  0.97771575  0.25202917  0.56769600  1
  O  O471  1  0.97667137  0.24963497  0.81597881  1
  O  O472  1  0.97890323  0.58270765  0.06837136  1
  O  O473  1  0.97817226  0.58292054  0.31895360  1
  O  O474  1  0.97774469  0.58442247  0.56771921  1
  O  O475  1  0.97754133  0.58145277  0.81746796  1
  O  O476  1  0.97661891  0.91719321  0.06604558  1
  O  O477  1  0.97797114  0.91663191  0.31921069  1
  O  O478  1  0.97770176  0.91885567  0.56798598  1
  O  O479  1  0.97797756  0.91747514  0.81924175  1
  O  O480  1  0.07156001  0.31346676  0.07286811  1
  O  O481  1  0.07318617  0.31298970  0.32490176  1
  O  O482  1  0.07258156  0.31562373  0.57534938  1
  O  O483  1  0.07169010  0.31328172  0.82421360  1
  O  O484  1  0.07424609  0.64640883  0.07505970  1
  O  O485  1  0.07390848  0.64631757  0.32553599  1
  O  O486  1  0.07265515  0.64798313  0.57515169  1
  O  O487  1  0.07274796  0.64555344  0.82516346  1
  O  O488  1  0.07196326  0.98051459  0.07374517  1
  O  O489  1  0.07350568  0.98023093  0.32522203  1
  O  O490  1  0.07267122  0.98260046  0.57502027  1
  O  O491  1  0.07357857  0.98065658  0.82701434  1
  O  O492  1  0.57300180  0.31153424  0.07424900  1
  O  O493  1  0.57316201  0.31165105  0.32448188  1
  O  O494  1  0.57249044  0.31330948  0.57225175  1
  O  O495  1  0.57355089  0.31174810  0.82393097  1
  O  O496  1  0.57532836  0.64696749  0.07495440  1
  O  O497  1  0.57457063  0.64615516  0.32571626  1
  O  O498  1  0.57261740  0.64790830  0.57261012  1
  O  O499  1  0.57451810  0.64726367  0.82417484  1
  O  O500  1  0.57305009  0.97951901  0.07458107  1
  O  O501  1  0.57363610  0.97913039  0.32414316  1
  O  O502  1  0.57389000  0.98060916  0.57553515  1
  O  O503  1  0.57350337  0.97947160  0.82487494  1
  O  O504  1  0.42705418  0.02075258  0.17448674  1
  O  O505  1  0.42728116  0.02051210  0.42479783  1
  O  O506  1  0.42705013  0.02179844  0.67447589  1
  O  O507  1  0.42671220  0.02076175  0.92475267  1
  O  O508  1  0.42608347  0.35271312  0.17473881  1
  O  O509  1  0.42940180  0.35190482  0.42646511  1
  O  O510  1  0.42649203  0.35352119  0.67327848  1
  O  O511  1  0.42626700  0.35287244  0.92402067  1
  O  O512  1  0.42762889  0.68793696  0.17469931  1
  O  O513  1  0.42711495  0.68568075  0.42553959  1
  O  O514  1  0.42710782  0.68786959  0.67568313  1
  O  O515  1  0.42803689  0.68823471  0.92481602  1
  O  O516  1  0.92563969  0.01986655  0.17450521  1
  O  O517  1  0.92638792  0.01847575  0.42728995  1
  O  O518  1  0.92674221  0.02147235  0.67661392  1
  O  O519  1  0.92658966  0.02020183  0.92679264  1
  O  O520  1  0.92538212  0.35267816  0.17527814  1
  O  O521  1  0.92667367  0.35136816  0.42727047  1
  O  O522  1  0.92683771  0.35339924  0.67715550  1
  O  O523  1  0.92610958  0.35152603  0.92494019  1
  O  O524  1  0.92581840  0.68673588  0.17451704  1
  O  O525  1  0.92690410  0.68469420  0.42700013  1
  O  O526  1  0.92551316  0.68695528  0.67559886  1
  O  O527  1  0.92674981  0.68689093  0.92558979  1
  O  O528  1  0.17618183  0.02202215  0.20022540  1
  O  O529  1  0.17737056  0.02105418  0.44932215  1
  O  O530  1  0.17617369  0.01964457  0.69935555  1
  O  O531  1  0.17657532  0.02028004  0.95160056  1
  O  O532  1  0.17629902  0.35210589  0.19874254  1
  O  O533  1  0.17663384  0.35240332  0.44907956  1
  O  O534  1  0.17619353  0.35399019  0.70097591  1
  O  O535  1  0.17722773  0.35274982  0.94803553  1
  O  O536  1  0.17694768  0.68787431  0.19939100  1
  O  O537  1  0.17662086  0.68752726  0.45076352  1
  O  O538  1  0.17673797  0.68771861  0.69942388  1
  O  O539  1  0.17676831  0.68584614  0.94923613  1
  O  O540  1  0.67727441  0.01902234  0.19855293  1
  O  O541  1  0.67741439  0.01754311  0.44950754  1
  O  O542  1  0.67829284  0.01850249  0.69806930  1
  O  O543  1  0.67683467  0.01797665  0.94971947  1
  O  O544  1  0.67659897  0.35196345  0.19926159  1
  O  O545  1  0.67790797  0.35228715  0.44877026  1
  O  O546  1  0.67619775  0.35452885  0.69925626  1
  O  O547  1  0.67662942  0.35371214  0.94907143  1
  O  O548  1  0.67794501  0.68739930  0.20039684  1
  O  O549  1  0.67909197  0.68563942  0.44837387  1
  O  O550  1  0.67837676  0.68614897  0.69791221  1
  O  O551  1  0.67797064  0.68649755  0.94837919  1
  O  O552  1  0.32216078  0.31419076  0.05149500  1
  O  O553  1  0.32232045  0.31363319  0.30120047  1
  O  O554  1  0.32344811  0.31388607  0.54921632  1
  O  O555  1  0.32344490  0.31479134  0.80100244  1
  O  O556  1  0.32447080  0.64644817  0.04879441  1
  O  O557  1  0.32444379  0.64728747  0.29933613  1
  O  O558  1  0.32449127  0.64669773  0.54988550  1
  O  O559  1  0.32235798  0.64792280  0.80134662  1
  O  O560  1  0.32353345  0.97953771  0.05014362  1
  O  O561  1  0.32431720  0.98118491  0.29887001  1
  O  O562  1  0.32224646  0.98176367  0.55179987  1
  O  O563  1  0.32394452  0.98088090  0.79979381  1
  O  O564  1  0.82152417  0.31338751  0.05079937  1
  O  O565  1  0.82298439  0.31362112  0.30072259  1
  O  O566  1  0.82306675  0.31157806  0.55025633  1
  O  O567  1  0.82293133  0.31293572  0.79883363  1
  O  O568  1  0.82382282  0.64675594  0.04941330  1
  O  O569  1  0.82254543  0.64686944  0.30245637  1
  O  O570  1  0.82143861  0.64643267  0.55193579  1
  O  O571  1  0.82260480  0.64675730  0.80074531  1
  O  O572  1  0.82164021  0.97980263  0.05206864  1
  O  O573  1  0.82186703  0.98039860  0.30217393  1
  O  O574  1  0.82174130  0.97910468  0.55218972  1
  O  O575  1  0.82280686  0.97978514  0.80181345  1
  O  O576  1  0.42695294  0.14778611  0.17568522  1
  O  O577  1  0.42704646  0.14760643  0.42553654  1
  O  O578  1  0.42737439  0.14884921  0.67521149  1
  O  O579  1  0.42665422  0.14779548  0.92586496  1
  O  O580  1  0.42671179  0.47971712  0.17457094  1
  O  O581  1  0.42797306  0.47944403  0.42592585  1
  O  O582  1  0.42699333  0.48026985  0.67341892  1
  O  O583  1  0.42692436  0.47995069  0.92410268  1
  O  O584  1  0.42752023  0.81505060  0.17629934  1
  O  O585  1  0.42696981  0.81271206  0.42551262  1
  O  O586  1  0.42757647  0.81496857  0.67509592  1
  O  O587  1  0.42726161  0.81528924  0.92596357  1
  O  O588  1  0.92583386  0.14659437  0.17450062  1
  O  O589  1  0.92592236  0.14567013  0.42645526  1
  O  O590  1  0.92681817  0.14856466  0.67600939  1
  O  O591  1  0.92708794  0.14749586  0.92750483  1
  O  O592  1  0.92564560  0.47952185  0.17504191  1
  O  O593  1  0.92612048  0.47849734  0.42666751  1
  O  O594  1  0.92754422  0.48075676  0.67689802  1
  O  O595  1  0.92679726  0.47850261  0.92460809  1
  O  O596  1  0.92588533  0.81361178  0.17588057  1
  O  O597  1  0.92617390  0.81192562  0.42646585  1
  O  O598  1  0.92619726  0.81386080  0.67480189  1
  O  O599  1  0.92641141  0.81427670  0.92646940  1
  O  O600  1  0.07034211  0.18610015  0.07235469  1
  O  O601  1  0.07293597  0.18610889  0.32565756  1
  O  O602  1  0.07309692  0.18862821  0.57596019  1
  O  O603  1  0.07167249  0.18615500  0.82403646  1
  O  O604  1  0.07445259  0.51941905  0.07508092  1
  O  O605  1  0.07340961  0.51937590  0.32626246  1
  O  O606  1  0.07338201  0.52089769  0.57528943  1
  O  O607  1  0.07263864  0.51822513  0.82419108  1
  O  O608  1  0.07135368  0.85301131  0.07333779  1
  O  O609  1  0.07340421  0.85340362  0.32614633  1
  O  O610  1  0.07310229  0.85532333  0.57566497  1
  O  O611  1  0.07335830  0.85394429  0.82590937  1
  O  O612  1  0.57306097  0.18453158  0.07334956  1
  O  O613  1  0.57363018  0.18471003  0.32377361  1
  O  O614  1  0.57297549  0.18598890  0.57261890  1
  O  O615  1  0.57349797  0.18470928  0.82288026  1
  O  O616  1  0.57459901  0.51982078  0.07478675  1
  O  O617  1  0.57396824  0.51939133  0.32589416  1
  O  O618  1  0.57290455  0.52036676  0.57251723  1
  O  O619  1  0.57415037  0.52026967  0.82400449  1
  O  O620  1  0.57350067  0.85250362  0.07358036  1
  O  O621  1  0.57334145  0.85186470  0.32428711  1
  O  O622  1  0.57439329  0.85381909  0.57504737  1
  O  O623  1  0.57345171  0.85237042  0.82327521  1
  O  O624  1  0.32126862  0.18695820  0.05135941  1
  O  O625  1  0.32183732  0.18649346  0.30119658  1
  O  O626  1  0.32387797  0.18721804  0.54951711  1
  O  O627  1  0.32278873  0.18759158  0.80078301  1
  O  O628  1  0.32420761  0.51970064  0.04846308  1
  O  O629  1  0.32477256  0.52013790  0.29924753  1
  O  O630  1  0.32391459  0.51976240  0.54982897  1
  O  O631  1  0.32253442  0.52034300  0.80144649  1
  O  O632  1  0.32298424  0.85219999  0.05078048  1
  O  O633  1  0.32416211  0.85440774  0.30032502  1
  O  O634  1  0.32251508  0.85417187  0.55167775  1
  O  O635  1  0.32420093  0.85423065  0.79896737  1
  O  O636  1  0.82064811  0.18583129  0.05154918  1
  O  O637  1  0.82299342  0.18678534  0.29930335  1
  O  O638  1  0.82224545  0.18447731  0.55055918  1
  O  O639  1  0.82341744  0.18611237  0.79975787  1
  O  O640  1  0.82400474  0.52006311  0.04958132  1
  O  O641  1  0.82229509  0.51933275  0.30223818  1
  O  O642  1  0.82226098  0.51930628  0.55160322  1
  O  O643  1  0.82153183  0.51955659  0.80125914  1
  O  O644  1  0.82208606  0.85272280  0.05139001  1
  O  O645  1  0.82281610  0.85332536  0.30196898  1
  O  O646  1  0.82260454  0.85202485  0.55194674  1
  O  O647  1  0.82184632  0.85262614  0.80197840  1
  O  O648  1  0.17637216  0.14905834  0.19885412  1
  O  O649  1  0.17647752  0.14808442  0.45014129  1
  O  O650  1  0.17689395  0.14683202  0.70007276  1
  O  O651  1  0.17555013  0.14718457  0.95057922  1
  O  O652  1  0.17720103  0.47914913  0.19965202  1
  O  O653  1  0.17709199  0.47961326  0.44913542  1
  O  O654  1  0.17645749  0.48072296  0.70093491  1
  O  O655  1  0.17747596  0.48012528  0.94865633  1
  O  O656  1  0.17671905  0.81520078  0.19877558  1
  O  O657  1  0.17627187  0.81448459  0.45060103  1
  O  O658  1  0.17679801  0.81488205  0.69968019  1
  O  O659  1  0.17702290  0.81290909  0.94922691  1
  O  O660  1  0.67833060  0.14639024  0.19786954  1
  O  O661  1  0.67694263  0.14442735  0.44953617  1
  O  O662  1  0.67836906  0.14587200  0.69817709  1
  O  O663  1  0.67715852  0.14485401  0.94988390  1
  O  O664  1  0.67727914  0.47895334  0.20068842  1
  O  O665  1  0.67875895  0.47969889  0.44769678  1
  O  O666  1  0.67664605  0.48156672  0.69819853  1
  O  O667  1  0.67684655  0.48087713  0.94915337  1
  O  O668  1  0.67719032  0.81435281  0.19947310  1
  O  O669  1  0.67769622  0.81280442  0.44923612  1
  O  O670  1  0.67835693  0.81321666  0.69881974  1
  O  O671  1  0.67875671  0.81372457  0.94748729  1
