# generated using pymatgen
data_Na2MnFe(PO4)2
_symmetry_space_group_name_H-M   'P 1'
_cell_length_a   22.34672170
_cell_length_b   20.09712784
_cell_length_c   19.44717892
_cell_angle_alpha   90.02931057
_cell_angle_beta   89.95647382
_cell_angle_gamma   90.06936626
_symmetry_Int_Tables_number   1
_chemical_formula_structural   Na2MnFe(PO4)2
_chemical_formula_sum   'Na96 Mn48 Fe48 P96 O384'
_cell_volume   8733.81372671
_cell_formula_units_Z   48
loop_
 _symmetry_equiv_pos_site_id
 _symmetry_equiv_pos_as_xyz
  1  'x, y, z'
loop_
 _atom_site_type_symbol
 _atom_site_label
 _atom_site_symmetry_multiplicity
 _atom_site_fract_x
 _atom_site_fract_y
 _atom_site_fract_z
 _atom_site_occupancy
  Na  Na0  1  0.14061754  0.25050026  0.24488574  1
  Na  Na1  1  0.14055200  0.24987369  0.49439052  1
  Na  Na2  1  0.14053207  0.25116473  0.74370053  1
  Na  Na3  1  0.14039954  0.25115023  0.99418285  1
  Na  Na4  1  0.14010837  0.58192553  0.24234939  1
  Na  Na5  1  0.14006569  0.58214491  0.49258915  1
  Na  Na6  1  0.13981309  0.58145541  0.74291104  1
  Na  Na7  1  0.14037749  0.58247517  0.99385987  1
  Na  Na8  1  0.14038666  0.91509529  0.24530069  1
  Na  Na9  1  0.13999513  0.91709003  0.49288412  1
  Na  Na10  1  0.14027744  0.91668564  0.74382773  1
  Na  Na11  1  0.14014082  0.91632230  0.99484293  1
  Na  Na12  1  0.64111445  0.25062940  0.24373415  1
  Na  Na13  1  0.64039317  0.25048691  0.49447559  1
  Na  Na14  1  0.64086257  0.25018129  0.74136314  1
  Na  Na15  1  0.64091662  0.25113844  0.99292017  1
  Na  Na16  1  0.64115441  0.58276096  0.24252367  1
  Na  Na17  1  0.64026815  0.58311974  0.49301705  1
  Na  Na18  1  0.64000930  0.58277151  0.74263557  1
  Na  Na19  1  0.64042325  0.58514801  0.99338323  1
  Na  Na20  1  0.64058862  0.91495612  0.24343583  1
  Na  Na21  1  0.64065606  0.91703914  0.49387677  1
  Na  Na22  1  0.64074686  0.91748740  0.74517650  1
  Na  Na23  1  0.64078153  0.91651371  0.99482076  1
  Na  Na24  1  0.35932780  0.08431077  0.00568972  1
  Na  Na25  1  0.35933965  0.08346876  0.25723798  1
  Na  Na26  1  0.35971466  0.08481289  0.50675586  1
  Na  Na27  1  0.35921861  0.08450207  0.75614257  1
  Na  Na28  1  0.35976319  0.41753751  0.00495618  1
  Na  Na29  1  0.35973375  0.41619448  0.25499122  1
  Na  Na30  1  0.35949364  0.41529293  0.50633714  1
  Na  Na31  1  0.35988826  0.41646546  0.75550850  1
  Na  Na32  1  0.35968139  0.74962372  0.00624364  1
  Na  Na33  1  0.35996131  0.74916488  0.25571558  1
  Na  Na34  1  0.35984770  0.74868787  0.50597836  1
  Na  Na35  1  0.35914764  0.74815972  0.75669070  1
  Na  Na36  1  0.85917216  0.08365294  0.00713965  1
  Na  Na37  1  0.85891071  0.08278114  0.25691596  1
  Na  Na38  1  0.85952029  0.08426404  0.50789576  1
  Na  Na39  1  0.85971248  0.08312538  0.75552822  1
  Na  Na40  1  0.85928227  0.41883320  0.00651316  1
  Na  Na41  1  0.85989812  0.41731401  0.25590988  1
  Na  Na42  1  0.85940401  0.41694078  0.50602625  1
  Na  Na43  1  0.85975863  0.41725801  0.75536247  1
  Na  Na44  1  0.85903738  0.75060436  0.00797552  1
  Na  Na45  1  0.86012767  0.74913140  0.25734905  1
  Na  Na46  1  0.85994243  0.75050333  0.50658138  1
  Na  Na47  1  0.85914872  0.75038727  0.75616197  1
  Na  Na48  1  0.10929000  0.08343385  0.12047379  1
  Na  Na49  1  0.10952408  0.08315388  0.37012112  1
  Na  Na50  1  0.10948321  0.08303963  0.61770163  1
  Na  Na51  1  0.10914374  0.08398066  0.86968758  1
  Na  Na52  1  0.11037625  0.41650464  0.11788332  1
  Na  Na53  1  0.11004251  0.41716499  0.36825850  1
  Na  Na54  1  0.11009786  0.41732000  0.61794416  1
  Na  Na55  1  0.11034978  0.41702967  0.86858395  1
  Na  Na56  1  0.10955741  0.74848890  0.11954313  1
  Na  Na57  1  0.10949803  0.74925747  0.36855221  1
  Na  Na58  1  0.10887804  0.74976109  0.61768909  1
  Na  Na59  1  0.10927660  0.74936184  0.86887846  1
  Na  Na60  1  0.60948154  0.08215798  0.11877791  1
  Na  Na61  1  0.60959158  0.08275555  0.36973746  1
  Na  Na62  1  0.61016544  0.08377524  0.61911144  1
  Na  Na63  1  0.61000518  0.08340388  0.86811732  1
  Na  Na64  1  0.61090895  0.41846600  0.11790778  1
  Na  Na65  1  0.61079464  0.41650380  0.36789123  1
  Na  Na66  1  0.61032127  0.41657712  0.61770445  1
  Na  Na67  1  0.61008868  0.41762180  0.86642411  1
  Na  Na68  1  0.61043918  0.75070534  0.11849108  1
  Na  Na69  1  0.60985156  0.74906608  0.36823310  1
  Na  Na70  1  0.60949867  0.74945939  0.61948251  1
  Na  Na71  1  0.61002970  0.74985654  0.86978384  1
  Na  Na72  1  0.39031978  0.25131587  0.13131793  1
  Na  Na73  1  0.38993900  0.25014214  0.38173639  1
  Na  Na74  1  0.39006464  0.25028899  0.63201652  1
  Na  Na75  1  0.39040840  0.25098909  0.87945126  1
  Na  Na76  1  0.39016913  0.58445867  0.13071500  1
  Na  Na77  1  0.39057605  0.58228299  0.37960700  1
  Na  Na78  1  0.39059749  0.58208022  0.63142130  1
  Na  Na79  1  0.39011372  0.58314594  0.88087089  1
  Na  Na80  1  0.39032681  0.91584363  0.13098042  1
  Na  Na81  1  0.39075505  0.91527331  0.38162012  1
  Na  Na82  1  0.39045167  0.91628106  0.63116885  1
  Na  Na83  1  0.39005980  0.91554618  0.88160426  1
  Na  Na84  1  0.89012020  0.25090351  0.13122049  1
  Na  Na85  1  0.88999250  0.25095541  0.38231042  1
  Na  Na86  1  0.88987849  0.25045134  0.63133376  1
  Na  Na87  1  0.89008375  0.25126279  0.88105627  1
  Na  Na88  1  0.89034477  0.58346972  0.13231792  1
  Na  Na89  1  0.89058339  0.58383519  0.38088757  1
  Na  Na90  1  0.89003003  0.58322123  0.62984699  1
  Na  Na91  1  0.88978266  0.58263570  0.88082447  1
  Na  Na92  1  0.88966656  0.91565212  0.13288391  1
  Na  Na93  1  0.89048173  0.91578970  0.38251110  1
  Na  Na94  1  0.89027962  0.91691713  0.63090991  1
  Na  Na95  1  0.88964139  0.91753774  0.88269894  1
  Mn  Mn96  1  0.75009923  0.33474709  0.87387241  1
  Mn  Mn97  1  0.00041238  0.33465178  0.75045382  1
  Mn  Mn98  1  0.50007812  0.00035157  0.75052617  1
  Mn  Mn99  1  0.24934012  -0.00012271  0.87520241  1
  Mn  Mn100  1  0.50126609  0.33440369  0.25011086  1
  Mn  Mn101  1  0.24961693  0.83292597  0.62509068  1
  Mn  Mn102  1  0.50040338  0.16721569  -0.00066159  1
  Mn  Mn103  1  0.50055004  0.66660902  0.24952025  1
  Mn  Mn104  1  0.50016953  0.16669566  0.24989862  1
  Mn  Mn105  1  0.50022882  0.00020037  0.50069730  1
  Mn  Mn106  1  0.74940311  0.83436897  0.62622625  1
  Mn  Mn107  1  0.24893422  0.66512354  0.62521121  1
  Mn  Mn108  1  0.74929742  0.66610592  0.62533655  1
  Mn  Mn109  1  0.00069116  0.33432090  0.25049431  1
  Mn  Mn110  1  0.00001433  0.00065739  0.00163911  1
  Mn  Mn111  1  0.50076456  0.33399865  -0.00084353  1
  Mn  Mn112  1  0.74974936  0.16741019  0.37537521  1
  Mn  Mn113  1  -0.00071362  0.66545434  -0.00003591  1
  Mn  Mn114  1  0.75004990  0.66642723  0.37491971  1
  Mn  Mn115  1  0.49933836  -0.00123120  0.24975377  1
  Mn  Mn116  1  -0.00020090  0.00016677  0.75028363  1
  Mn  Mn117  1  -0.00023969  0.33424645  0.50026821  1
  Mn  Mn118  1  0.49998173  0.50113388  -0.00180082  1
  Mn  Mn119  1  0.74978838  -0.00060784  0.37556615  1
  Mn  Mn120  1  0.24970051  0.16794539  0.12569392  1
  Mn  Mn121  1  -0.00047489  0.83346889  0.74954596  1
  Mn  Mn122  1  0.49980856  0.83207678  0.75059978  1
  Mn  Mn123  1  0.75028133  0.66681946  0.87551037  1
  Mn  Mn124  1  0.74978105  0.16701997  0.12507023  1
  Mn  Mn125  1  -0.00039409  0.83282026  0.00066200  1
  Mn  Mn126  1  -0.00089925  -0.00075534  0.25060220  1
  Mn  Mn127  1  0.25061071  0.00074286  0.62475116  1
  Mn  Mn128  1  0.49978509  0.33285573  0.49951898  1
  Mn  Mn129  1  -0.00022525  0.16693122  0.75011732  1
  Mn  Mn130  1  0.24927670  0.16821713  0.87586637  1
  Mn  Mn131  1  -0.00027880  0.33390875  0.00020434  1
  Mn  Mn132  1  0.24940997  0.66571284  0.87467879  1
  Mn  Mn133  1  0.25047076  0.49842032  0.37383243  1
  Mn  Mn134  1  0.25071019  0.66596076  0.37459323  1
  Mn  Mn135  1  -0.00087624  0.66585072  0.74915249  1
  Mn  Mn136  1  0.49904599  -0.00054919  -0.00036286  1
  Mn  Mn137  1  0.25025219  -0.00005915  0.37554546  1
  Mn  Mn138  1  -0.00071438  0.16668471  0.25105565  1
  Mn  Mn139  1  0.50049799  0.83164878  0.50096341  1
  Mn  Mn140  1  0.50010291  0.50025582  0.50004177  1
  Mn  Mn141  1  0.25062714  0.83215444  0.12470614  1
  Mn  Mn142  1  0.75039232  0.16647851  0.87458288  1
  Mn  Mn143  1  0.25000050  -0.00028893  0.12583356  1
  Fe  Fe144  1  -0.00019023  0.16683637  0.50048979  1
  Fe  Fe145  1  0.50028086  0.66679763  -0.00009795  1
  Fe  Fe146  1  0.75069636  0.83362802  0.12542441  1
  Fe  Fe147  1  0.50029118  0.83271917  -0.00010796  1
  Fe  Fe148  1  0.25059004  0.33371155  0.12476177  1
  Fe  Fe149  1  0.25006627  0.49935426  0.12438581  1
  Fe  Fe150  1  0.24959185  0.16762948  0.62562014  1
  Fe  Fe151  1  0.75033175  0.66694786  0.12524060  1
  Fe  Fe152  1  0.75048709  0.00011970  0.62555676  1
  Fe  Fe153  1  0.75014830  0.83280652  0.37477677  1
  Fe  Fe154  1  0.75055975  0.33379571  0.37498093  1
  Fe  Fe155  1  0.75004860  0.49966127  0.62384854  1
  Fe  Fe156  1  0.74957357  0.50074630  0.87511001  1
  Fe  Fe157  1  0.25018425  0.33445628  0.87428106  1
  Fe  Fe158  1  0.00053507  0.66626649  0.25070334  1
  Fe  Fe159  1  0.24991959  0.33274780  0.37565809  1
  Fe  Fe160  1  0.50002670  0.16664513  0.50046058  1
  Fe  Fe161  1  0.75022079  0.49953304  0.37394489  1
  Fe  Fe162  1  -0.00007031  0.66629211  0.49932383  1
  Fe  Fe163  1  0.24999726  0.49951425  0.87482336  1
  Fe  Fe164  1  0.50038345  0.66574243  0.49958408  1
  Fe  Fe165  1  0.00006198  0.50072699  0.49914589  1
  Fe  Fe166  1  0.74987741  0.00026811  0.87575228  1
  Fe  Fe167  1  0.24947702  0.66601842  0.12437696  1
  Fe  Fe168  1  0.75006658  0.16699420  0.62494560  1
  Fe  Fe169  1  0.74988110  -0.00025283  0.12538781  1
  Fe  Fe170  1  -0.00041855  -0.00057554  0.49989148  1
  Fe  Fe171  1  -0.00047311  0.16723155  0.00053638  1
  Fe  Fe172  1  0.74999072  0.50026204  0.12479031  1
  Fe  Fe173  1  0.25025612  0.16732221  0.37573678  1
  Fe  Fe174  1  0.74994721  0.33408918  0.62430258  1
  Fe  Fe175  1  0.50087438  0.33333702  0.74915649  1
  Fe  Fe176  1  0.25014965  0.83252407  0.37490832  1
  Fe  Fe177  1  0.75033677  0.83416220  0.87633999  1
  Fe  Fe178  1  0.75012238  0.33407011  0.12469427  1
  Fe  Fe179  1  0.24957098  0.83267498  0.87506983  1
  Fe  Fe180  1  0.50046652  0.50052882  0.74930206  1
  Fe  Fe181  1  0.00010235  0.50002201  0.00008222  1
  Fe  Fe182  1  0.00005030  0.50050847  0.24983944  1
  Fe  Fe183  1  0.00024136  0.83247706  0.25147389  1
  Fe  Fe184  1  0.50006133  0.83248703  0.25008498  1
  Fe  Fe185  1  0.25003220  0.33328885  0.62502754  1
  Fe  Fe186  1  0.50046063  0.50054058  0.24942038  1
  Fe  Fe187  1  0.25010381  0.49871607  0.62429466  1
  Fe  Fe188  1  0.49976484  0.16696072  0.74966393  1
  Fe  Fe189  1  -0.00001253  0.50033023  0.74940108  1
  Fe  Fe190  1  0.49945278  0.66666976  0.75007657  1
  Fe  Fe191  1  -0.00002278  0.83284509  0.49973050  1
  P  P192  1  0.04223936  0.24927665  0.10284155  1
  P  P193  1  0.04224255  0.25011044  0.35435236  1
  P  P194  1  0.04204059  0.24961007  0.60254611  1
  P  P195  1  0.04258401  0.25045327  0.85379278  1
  P  P196  1  0.04199792  0.58181042  0.10313002  1
  P  P197  1  0.04163272  0.58305610  0.35208207  1
  P  P198  1  0.04128474  0.58312923  0.60113113  1
  P  P199  1  0.04203997  0.58173686  0.85230972  1
  P  P200  1  0.04246125  0.91571676  0.10464166  1
  P  P201  1  0.04162390  0.91521365  0.35393490  1
  P  P202  1  0.04138033  0.91625531  0.60119343  1
  P  P203  1  0.04242081  0.91668969  0.85355949  1
  P  P204  1  0.54341295  0.25069819  0.10271663  1
  P  P205  1  0.54322549  0.24973914  0.35353491  1
  P  P206  1  0.54181212  0.24897022  0.60316024  1
  P  P207  1  0.54252225  0.25036378  0.85056910  1
  P  P208  1  0.54229606  0.58470224  0.10204535  1
  P  P209  1  0.54315198  0.58224386  0.35216773  1
  P  P210  1  0.54234329  0.58456611  0.60309274  1
  P  P211  1  0.54141503  0.58429351  0.85128220  1
  P  P212  1  0.54171556  0.91491336  0.10261952  1
  P  P213  1  0.54244296  0.91469603  0.35254071  1
  P  P214  1  0.54311836  0.91630715  0.60365508  1
  P  P215  1  0.54238392  0.91580614  0.85384266  1
  P  P216  1  0.45662996  0.08304983  0.14683560  1
  P  P217  1  0.45765749  0.08428976  0.39793003  1
  P  P218  1  0.45782946  0.08468646  0.64740891  1
  P  P219  1  0.45707143  0.08405923  0.89609148  1
  P  P220  1  0.45850150  0.41874995  0.14690051  1
  P  P221  1  0.45760497  0.41718663  0.39625923  1
  P  P222  1  0.45919416  0.41653271  0.64814770  1
  P  P223  1  0.45812922  0.41670413  0.89473170  1
  P  P224  1  0.45820738  0.75105717  0.14674382  1
  P  P225  1  0.45794701  0.74794361  0.39736473  1
  P  P226  1  0.45730816  0.74777803  0.64732829  1
  P  P227  1  0.45832190  0.74909139  0.89825678  1
  P  P228  1  0.95650929  0.08369423  0.14737432  1
  P  P229  1  0.95802052  0.08328571  0.39922505  1
  P  P230  1  0.95763088  0.08324433  0.64587410  1
  P  P231  1  0.95720181  0.08480180  0.89840396  1
  P  P232  1  0.95828446  0.41830431  0.14732395  1
  P  P233  1  0.95787279  0.41887206  0.39705471  1
  P  P234  1  0.95806824  0.41854890  0.64679100  1
  P  P235  1  0.95774206  0.41857322  0.89730510  1
  P  P236  1  0.95882327  0.74939290  0.14952136  1
  P  P237  1  0.95888085  0.74959180  0.39791329  1
  P  P238  1  0.95686231  0.74983589  0.64560286  1
  P  P239  1  0.95631778  0.74927614  0.89717625  1
  P  P240  1  0.20744205  0.08385290  0.22942360  1
  P  P241  1  0.20824262  0.08533397  0.47823224  1
  P  P242  1  0.20732524  0.08477687  0.72746360  1
  P  P243  1  0.20672870  0.08384603  0.97869961  1
  P  P244  1  0.20841428  0.41586993  0.22648560  1
  P  P245  1  0.20786583  0.41488964  0.47781303  1
  P  P246  1  0.20846572  0.41645172  0.72681399  1
  P  P247  1  0.20881328  0.41680207  0.97703334  1
  P  P248  1  0.20796571  0.74817361  0.22760439  1
  P  P249  1  0.20770610  0.75023455  0.47715823  1
  P  P250  1  0.20635353  0.74935533  0.72846345  1
  P  P251  1  0.20754901  0.75005838  0.97763322  1
  P  P252  1  0.70760215  0.08195106  0.22754583  1
  P  P253  1  0.70774642  0.08376792  0.47926033  1
  P  P254  1  0.70893102  0.08309168  0.72697247  1
  P  P255  1  0.70773355  0.08225793  0.97802346  1
  P  P256  1  0.70909926  0.41672490  0.22681518  1
  P  P257  1  0.70876935  0.41692544  0.47658483  1
  P  P258  1  0.70862861  0.41740026  0.72597908  1
  P  P259  1  0.70761916  0.41878827  0.97746493  1
  P  P260  1  0.70913883  0.75005459  0.22689005  1
  P  P261  1  0.70783988  0.75121202  0.47746842  1
  P  P262  1  0.70714767  0.75019762  0.72920246  1
  P  P263  1  0.70872863  0.75173739  0.97882689  1
  P  P264  1  0.29241903  0.25229613  0.02214773  1
  P  P265  1  0.29162229  0.25075765  0.27344890  1
  P  P266  1  0.29154173  0.25015990  0.52323048  1
  P  P267  1  0.29166140  0.25185223  0.77183274  1
  P  P268  1  0.29136809  0.58271742  0.02268275  1
  P  P269  1  0.29251866  0.58239818  0.27018158  1
  P  P270  1  0.29229362  0.58124834  0.52227502  1
  P  P271  1  0.29170334  0.58086141  0.77185724  1
  P  P272  1  0.29259717  0.91627851  0.02148434  1
  P  P273  1  0.29254997  0.91489743  0.27297505  1
  P  P274  1  0.29274866  0.91631433  0.52144594  1
  P  P275  1  0.29214626  0.91521680  0.77269296  1
  P  P276  1  0.79214814  0.25194363  0.02238439  1
  P  P277  1  0.79233447  0.25188417  0.27232381  1
  P  P278  1  0.79127368  0.25090545  0.52315165  1
  P  P279  1  0.79252876  0.25028259  0.77065251  1
  P  P280  1  0.79110266  0.58393562  0.02343494  1
  P  P281  1  0.79202428  0.58212734  0.27166867  1
  P  P282  1  0.79165833  0.58201711  0.52163472  1
  P  P283  1  0.79162096  0.58190445  0.77202984  1
  P  P284  1  0.79171945  0.91708172  0.02341126  1
  P  P285  1  0.79224859  0.91486501  0.27234072  1
  P  P286  1  0.79214628  0.91781349  0.52287703  1
  P  P287  1  0.79155207  0.91754151  0.77407051  1
  O  O288  1  0.03704153  0.24984063  0.18283046  1
  O  O289  1  0.03671957  0.24986883  0.43428368  1
  O  O290  1  0.03700424  0.24999339  0.68253674  1
  O  O291  1  0.03717627  0.25017200  0.93374444  1
  O  O292  1  0.03695363  0.58207887  0.18302676  1
  O  O293  1  0.03682463  0.58323483  0.43199413  1
  O  O294  1  0.03639857  0.58293380  0.68110498  1
  O  O295  1  0.03686492  0.58161511  0.93227188  1
  O  O296  1  0.03715409  0.91512484  0.18462651  1
  O  O297  1  0.03605253  0.91547796  0.43384736  1
  O  O298  1  0.03669564  0.91663992  0.68125933  1
  O  O299  1  0.03754848  0.91681320  0.93356927  1
  O  O300  1  0.53845889  0.25080533  0.18270862  1
  O  O301  1  0.53778052  0.24924223  0.43352471  1
  O  O302  1  0.53636589  0.24948714  0.68306505  1
  O  O303  1  0.53779627  0.25051573  0.93063305  1
  O  O304  1  0.53724989  0.58367018  0.18198022  1
  O  O305  1  0.53805476  0.58296237  0.43213359  1
  O  O306  1  0.53674941  0.58445429  0.68295294  1
  O  O307  1  0.53672127  0.58443177  0.93129355  1
  O  O308  1  0.53643908  0.91457875  0.18260692  1
  O  O309  1  0.53730883  0.91503915  0.43251246  1
  O  O310  1  0.53787205  0.91637548  0.68360061  1
  O  O311  1  0.53694830  0.91554952  0.93378228  1
  O  O312  1  0.46166772  0.08305722  0.06682124  1
  O  O313  1  0.46261258  0.08369905  0.31793787  1
  O  O314  1  0.46321212  0.08484420  0.56744535  1
  O  O315  1  0.46236288  0.08451562  0.81610587  1
  O  O316  1  0.46344809  0.41852648  0.06687202  1
  O  O317  1  0.46293038  0.41771229  0.31631787  1
  O  O318  1  0.46356618  0.41679804  0.56810113  1
  O  O319  1  0.46369424  0.41640513  0.81486737  1
  O  O320  1  0.46347080  0.75095420  0.06686255  1
  O  O321  1  0.46327387  0.74877713  0.31741850  1
  O  O322  1  0.46277791  0.74742234  0.56739391  1
  O  O323  1  0.46304629  0.74862603  0.81825876  1
  O  O324  1  0.96189291  0.08436257  0.06744286  1
  O  O325  1  0.96238857  0.08290187  0.31917397  1
  O  O326  1  0.96298662  0.08322472  0.56595645  1
  O  O327  1  0.96239106  0.08413095  0.81837543  1
  O  O328  1  0.96332336  0.41822937  0.06733930  1
  O  O329  1  0.96328035  0.41873509  0.31711429  1
  O  O330  1  0.96332387  0.41850362  0.56684163  1
  O  O331  1  0.96297364  0.41867966  0.81731650  1
  O  O332  1  0.96310126  0.74907539  0.06949320  1
  O  O333  1  0.96405199  0.74947441  0.31802396  1
  O  O334  1  0.96227141  0.75006127  0.56570976  1
  O  O335  1  0.96112896  0.74930046  0.81715781  1
  O  O336  1  0.21197635  0.08380242  0.05867380  1
  O  O337  1  0.21300069  0.08442493  0.30938485  1
  O  O338  1  0.21356891  0.08558346  0.55819563  1
  O  O339  1  0.21210367  0.08444008  0.80747401  1
  O  O340  1  0.21421270  0.41693212  0.05689631  1
  O  O341  1  0.21332332  0.41547771  0.30643210  1
  O  O342  1  0.21323659  0.41552989  0.55767674  1
  O  O343  1  0.21369052  0.41671933  0.80670985  1
  O  O344  1  0.21315615  0.74911072  0.05755754  1
  O  O345  1  0.21332666  0.74887654  0.30753814  1
  O  O346  1  0.21230600  0.74974817  0.55716296  1
  O  O347  1  0.21157752  0.74966782  0.80844464  1
  O  O348  1  0.71302075  0.08232476  0.05796701  1
  O  O349  1  0.71280468  0.08225923  0.30749563  1
  O  O350  1  0.71334574  0.08375623  0.55913157  1
  O  O351  1  0.71374633  0.08304490  0.80697468  1
  O  O352  1  0.71274744  0.41836516  0.05732517  1
  O  O353  1  0.71417010  0.41690740  0.30670845  1
  O  O354  1  0.71402209  0.41720514  0.55648870  1
  O  O355  1  0.71309496  0.41757878  0.80592266  1
  O  O356  1  0.71439367  0.75156977  0.05869005  1
  O  O357  1  0.71383862  0.75000065  0.30690972  1
  O  O358  1  0.71270322  0.75093804  0.55743527  1
  O  O359  1  0.71271806  0.75030991  0.80910401  1
  O  O360  1  0.28664162  0.25114196  0.19347575  1
  O  O361  1  0.28647986  0.24976862  0.44329271  1
  O  O362  1  0.28610293  0.25126831  0.69195040  1
  O  O363  1  0.28702362  0.25247462  0.94223172  1
  O  O364  1  0.28695336  0.58276287  0.19030182  1
  O  O365  1  0.28745546  0.58154913  0.44225763  1
  O  O366  1  0.28641990  0.58086048  0.69192651  1
  O  O367  1  0.28619060  0.58231530  0.94269011  1
  O  O368  1  0.28742419  0.91512635  0.19299644  1
  O  O369  1  0.28744984  0.91577306  0.44148093  1
  O  O370  1  0.28697203  0.91576771  0.69267884  1
  O  O371  1  0.28709245  0.91573465  0.94155886  1
  O  O372  1  0.78695178  0.25183685  0.19240475  1
  O  O373  1  0.78662239  0.25118997  0.44316332  1
  O  O374  1  0.78717820  0.25012565  0.69076578  1
  O  O375  1  0.78697772  0.25150274  0.94241421  1
  O  O376  1  0.78662907  0.58272918  0.19182468  1
  O  O377  1  0.78640717  0.58202482  0.44169159  1
  O  O378  1  0.78618463  0.58172279  0.69209480  1
  O  O379  1  0.78650202  0.58375180  0.94344615  1
  O  O380  1  0.78698078  0.91515137  0.19244098  1
  O  O381  1  0.78714486  0.91695939  0.44298662  1
  O  O382  1  0.78635474  0.91788131  0.69411873  1
  O  O383  1  0.78653669  0.91724718  0.94350003  1
  O  O384  1  0.22816226  0.25239929  0.05804055  1
  O  O385  1  0.22748795  0.25074255  0.30962371  1
  O  O386  1  0.22744721  0.25065366  0.55953719  1
  O  O387  1  0.22762726  0.25244550  0.80822159  1
  O  O388  1  0.22730777  0.58267147  0.05899170  1
  O  O389  1  0.22843654  0.58242516  0.30625649  1
  O  O390  1  0.22782535  0.58052656  0.55751467  1
  O  O391  1  0.22749919  0.58093190  0.80774572  1
  O  O392  1  0.22839804  0.91611936  0.05719740  1
  O  O393  1  0.22823851  0.91501390  0.30854405  1
  O  O394  1  0.22838778  0.91699540  0.55672812  1
  O  O395  1  0.22780340  0.91452223  0.80826626  1
  O  O396  1  0.72790886  0.25208923  0.05817418  1
  O  O397  1  0.72812574  0.25221068  0.30827775  1
  O  O398  1  0.72719351  0.25106419  0.55913438  1
  O  O399  1  0.72836022  0.25021662  0.80654237  1
  O  O400  1  0.72695947  0.58438989  0.05919274  1
  O  O401  1  0.72795567  0.58197502  0.30798272  1
  O  O402  1  0.72747082  0.58177742  0.55757526  1
  O  O403  1  0.72747735  0.58235432  0.80813124  1
  O  O404  1  0.72770993  0.91652036  0.05994506  1
  O  O405  1  0.72802114  0.91461847  0.30831293  1
  O  O406  1  0.72786815  0.91876170  0.55864105  1
  O  O407  1  0.72746980  0.91748605  0.81039504  1
  O  O408  1  0.27164173  0.08394957  0.19369532  1
  O  O409  1  0.27237217  0.08492922  0.44223268  1
  O  O410  1  0.27179933  0.08511725  0.69228081  1
  O  O411  1  0.27103781  0.08397926  0.94332251  1
  O  O412  1  0.27259725  0.41612926  0.19037228  1
  O  O413  1  0.27208791  0.41436718  0.44176936  1
  O  O414  1  0.27254278  0.41629235  0.69027665  1
  O  O415  1  0.27276773  0.41684010  0.94026274  1
  O  O416  1  0.27214700  0.74716072  0.19165199  1
  O  O417  1  0.27218570  0.75051814  0.44204553  1
  O  O418  1  0.27076836  0.74893531  0.69329348  1
  O  O419  1  0.27166231  0.75066072  0.94137749  1
  O  O420  1  0.77187196  0.08218459  0.19188811  1
  O  O421  1  0.77184072  0.08359930  0.44315230  1
  O  O422  1  0.77299231  0.08280816  0.69080465  1
  O  O423  1  0.77198980  0.08204746  0.94216833  1
  O  O424  1  0.77305579  0.41609952  0.19029493  1
  O  O425  1  0.77280526  0.41679690  0.44004666  1
  O  O426  1  0.77286831  0.41750968  0.69020627  1
  O  O427  1  0.77189843  0.41918965  0.94155231  1
  O  O428  1  0.77335668  0.75034061  0.19113279  1
  O  O429  1  0.77220575  0.75109154  0.44197705  1
  O  O430  1  0.77129555  0.75005654  0.69336172  1
  O  O431  1  0.77266546  0.75164603  0.94224341  1
  O  O432  1  0.02082213  0.08322030  0.18270758  1
  O  O433  1  0.02231196  0.08385566  0.43453468  1
  O  O434  1  0.02178819  0.08332358  0.68169497  1
  O  O435  1  0.02152337  0.08528719  0.93392489  1
  O  O436  1  0.02256347  0.41866667  0.18293761  1
  O  O437  1  0.02210425  0.41853150  0.43277451  1
  O  O438  1  0.02232108  0.41886475  0.68254797  1
  O  O439  1  0.02202254  0.41839805  0.93294129  1
  O  O440  1  0.02310077  0.74990744  0.18490464  1
  O  O441  1  0.02287989  0.75014070  0.43420936  1
  O  O442  1  0.02105136  0.74973069  0.68139669  1
  O  O443  1  0.02083715  0.74913986  0.93193140  1
  O  O444  1  0.52111612  0.08265754  0.18168176  1
  O  O445  1  0.52200553  0.08485433  0.43334761  1
  O  O446  1  0.52206948  0.08475804  0.68308833  1
  O  O447  1  0.52141793  0.08327954  0.93128244  1
  O  O448  1  0.52287752  0.41910313  0.18228694  1
  O  O449  1  0.52189288  0.41676324  0.43159552  1
  O  O450  1  0.52346748  0.41609889  0.68347897  1
  O  O451  1  0.52231881  0.41724755  0.93050145  1
  O  O452  1  0.52238575  0.75153393  0.18282670  1
  O  O453  1  0.52226800  0.74738494  0.43301602  1
  O  O454  1  0.52158888  0.74779493  0.68301238  1
  O  O455  1  0.52257976  0.74891956  0.93404627  1
  O  O456  1  0.47890897  0.25069974  0.06789821  1
  O  O457  1  0.47891593  0.25051879  0.31823738  1
  O  O458  1  0.47771559  0.24841382  0.56695182  1
  O  O459  1  0.47814817  0.25101666  0.81522702  1
  O  O460  1  0.47802282  0.58520454  0.06637130  1
  O  O461  1  0.47885135  0.58183218  0.31656397  1
  O  O462  1  0.47820596  0.58484845  0.56688073  1
  O  O463  1  0.47718290  0.58422527  0.81565716  1
  O  O464  1  0.47756176  0.91464218  0.06677973  1
  O  O465  1  0.47806965  0.91415881  0.31708093  1
  O  O466  1  0.47877090  0.91602566  0.56852046  1
  O  O467  1  0.47814088  0.91612781  0.81835063  1
  O  O468  1  0.97791000  0.24916963  0.06732740  1
  O  O469  1  0.97800017  0.25091541  0.31890759  1
  O  O470  1  0.97772261  0.24959513  0.56716519  1
  O  O471  1  0.97832258  0.25087931  0.81835495  1
  O  O472  1  0.97769518  0.58118724  0.06736337  1
  O  O473  1  0.97753923  0.58272295  0.31601515  1
  O  O474  1  0.97712760  0.58292165  0.56526135  1
  O  O475  1  0.97770482  0.58138442  0.81670201  1
  O  O476  1  0.97812346  0.91631102  0.06933939  1
  O  O477  1  0.97754229  0.91456518  0.31777413  1
  O  O478  1  0.97714989  0.91541964  0.56565126  1
  O  O479  1  0.97790422  0.91674428  0.81872699  1
  O  O480  1  0.07333874  0.31289426  0.07493643  1
  O  O481  1  0.07374926  0.31346874  0.32628797  1
  O  O482  1  0.07322710  0.31324380  0.57492509  1
  O  O483  1  0.07375323  0.31404859  0.82573442  1
  O  O484  1  0.07261611  0.64565778  0.07479402  1
  O  O485  1  0.07201965  0.64698072  0.32334772  1
  O  O486  1  0.07163203  0.64711625  0.57266397  1
  O  O487  1  0.07267871  0.64567673  0.82440860  1
  O  O488  1  0.07373568  0.97937086  0.07700109  1
  O  O489  1  0.07253356  0.97903209  0.32603155  1
  O  O490  1  0.07153780  0.98033754  0.57279293  1
  O  O491  1  0.07344079  0.98021733  0.82531649  1
  O  O492  1  0.57437950  0.31417904  0.07437969  1
  O  O493  1  0.57467408  0.31322148  0.32569305  1
  O  O494  1  0.57278235  0.31267197  0.57494947  1
  O  O495  1  0.57387018  0.31367050  0.82223583  1
  O  O496  1  0.57301756  0.64858179  0.07416432  1
  O  O497  1  0.57431193  0.64568177  0.32382932  1
  O  O498  1  0.57352784  0.64772425  0.57415689  1
  O  O499  1  0.57265199  0.64765553  0.82309937  1
  O  O500  1  0.57252784  0.97895234  0.07522546  1
  O  O501  1  0.57317577  0.97858880  0.32472323  1
  O  O502  1  0.57397605  0.97986675  0.57540732  1
  O  O503  1  0.57363945  0.97934172  0.82592631  1
  O  O504  1  0.42542217  0.01965271  0.17506923  1
  O  O505  1  0.42693427  0.02042640  0.42583268  1
  O  O506  1  0.42678059  0.02078706  0.67483085  1
  O  O507  1  0.42553311  0.02067169  0.92389944  1
  O  O508  1  0.42767355  0.35499630  0.17484633  1
  O  O509  1  0.42637121  0.35365249  0.42429599  1
  O  O510  1  0.42786740  0.35309244  0.67594536  1
  O  O511  1  0.42713758  0.35339816  0.92364351  1
  O  O512  1  0.42739676  0.68722202  0.17479155  1
  O  O513  1  0.42711871  0.68414431  0.42523813  1
  O  O514  1  0.42612814  0.68471296  0.67632731  1
  O  O515  1  0.42712393  0.68575515  0.92682508  1
  O  O516  1  0.92543988  0.02005282  0.17532042  1
  O  O517  1  0.92787078  0.01915484  0.42751339  1
  O  O518  1  0.92653701  0.01976508  0.67439925  1
  O  O519  1  0.92630182  0.02118170  0.92655030  1
  O  O520  1  0.92759784  0.35433972  0.17511535  1
  O  O521  1  0.92650891  0.35535819  0.42495148  1
  O  O522  1  0.92737091  0.35464494  0.67471304  1
  O  O523  1  0.92657710  0.35479366  0.92487868  1
  O  O524  1  0.92868908  0.68532687  0.17801064  1
  O  O525  1  0.92854003  0.68549888  0.42632389  1
  O  O526  1  0.92561265  0.68634529  0.67379132  1
  O  O527  1  0.92537290  0.68572355  0.92545732  1
  O  O528  1  0.17655632  0.01990265  0.20191584  1
  O  O529  1  0.17686287  0.02159977  0.45085202  1
  O  O530  1  0.17652451  0.02101095  0.69933791  1
  O  O531  1  0.17564926  0.02036251  0.95054704  1
  O  O532  1  0.17742074  0.35239379  0.19807079  1
  O  O533  1  0.17673243  0.35148068  0.44942136  1
  O  O534  1  0.17736239  0.35290116  0.69853341  1
  O  O535  1  0.17777576  0.35326524  0.94861291  1
  O  O536  1  0.17674157  0.68476999  0.19927114  1
  O  O537  1  0.17683846  0.68652990  0.44909875  1
  O  O538  1  0.17532059  0.68567323  0.70036312  1
  O  O539  1  0.17635880  0.68647786  0.94965601  1
  O  O540  1  0.67708130  0.01814351  0.19933427  1
  O  O541  1  0.67619465  0.02051869  0.45092151  1
  O  O542  1  0.67749288  0.01974432  0.69888857  1
  O  O543  1  0.67658015  0.01899134  0.94942875  1
  O  O544  1  0.67746906  0.35351496  0.19847916  1
  O  O545  1  0.67784553  0.35312226  0.44856920  1
  O  O546  1  0.67831144  0.35337300  0.69745049  1
  O  O547  1  0.67664559  0.35525675  0.94885682  1
  O  O548  1  0.67875751  0.68596325  0.19865911  1
  O  O549  1  0.67666898  0.68763805  0.44955931  1
  O  O550  1  0.67606045  0.68668746  0.70092829  1
  O  O551  1  0.67722135  0.68824689  0.95100279  1
  O  O552  1  0.32359620  0.31553271  0.05084293  1
  O  O553  1  0.32277510  0.31416892  0.30186013  1
  O  O554  1  0.32282484  0.31370472  0.55137341  1
  O  O555  1  0.32293144  0.31527992  0.80003915  1
  O  O556  1  0.32190869  0.64679066  0.05045792  1
  O  O557  1  0.32409225  0.64548833  0.29889393  1
  O  O558  1  0.32275301  0.64511868  0.55040959  1
  O  O559  1  0.32270443  0.64464547  0.79974502  1
  O  O560  1  0.32343874  0.98006134  0.04943724  1
  O  O561  1  0.32386864  0.97845562  0.30063849  1
  O  O562  1  0.32405811  0.97993712  0.54923473  1
  O  O563  1  0.32287259  0.97918079  0.80028934  1
  O  O564  1  0.82301872  0.31560260  0.05038837  1
  O  O565  1  0.82366688  0.31500653  0.30099606  1
  O  O566  1  0.82258534  0.31433138  0.55141038  1
  O  O567  1  0.82365014  0.31388498  0.79885502  1
  O  O568  1  0.82231625  0.64747820  0.05170556  1
  O  O569  1  0.82330224  0.64559844  0.30001061  1
  O  O570  1  0.82243831  0.64590924  0.54948031  1
  O  O571  1  0.82309862  0.64551648  0.79955188  1
  O  O572  1  0.82209857  0.98097265  0.05211391  1
  O  O573  1  0.82343104  0.97845043  0.30046415  1
  O  O574  1  0.82326935  0.98130637  0.55108441  1
  O  O575  1  0.82276020  0.98093862  0.80241522  1
  O  O576  1  0.42595336  0.14671554  0.17500003  1
  O  O577  1  0.42677732  0.14778438  0.42618554  1
  O  O578  1  0.42683177  0.14793036  0.67621565  1
  O  O579  1  0.42636516  0.14763530  0.92453790  1
  O  O580  1  0.42774712  0.48227600  0.17522065  1
  O  O581  1  0.42650588  0.48038086  0.42494670  1
  O  O582  1  0.42914629  0.48061792  0.67655207  1
  O  O583  1  0.42671493  0.48008006  0.92282767  1
  O  O584  1  0.42696140  0.81406157  0.17586347  1
  O  O585  1  0.42697452  0.81129392  0.42594335  1
  O  O586  1  0.42651580  0.81172708  0.67491943  1
  O  O587  1  0.42812092  0.81317057  0.92630061  1
  O  O588  1  0.92536102  0.14691951  0.17596806  1
  O  O589  1  0.92692028  0.14685057  0.42720657  1
  O  O590  1  0.92634027  0.14654859  0.67424609  1
  O  O591  1  0.92644742  0.14854323  0.92626816  1
  O  O592  1  0.92714133  0.48141978  0.17607939  1
  O  O593  1  0.92719101  0.48232542  0.42565258  1
  O  O594  1  0.92694047  0.48173767  0.67536859  1
  O  O595  1  0.92686732  0.48175503  0.92633698  1
  O  O596  1  0.92773383  0.81280086  0.17775826  1
  O  O597  1  0.92724951  0.81268204  0.42628812  1
  O  O598  1  0.92568955  0.81311217  0.67434165  1
  O  O599  1  0.92553995  0.81269436  0.92574263  1
  O  O600  1  0.07281095  0.18561028  0.07469935  1
  O  O601  1  0.07302221  0.18659741  0.32606564  1
  O  O602  1  0.07256210  0.18594514  0.57418067  1
  O  O603  1  0.07370432  0.18720462  0.82532499  1
  O  O604  1  0.07325623  0.51875645  0.07416154  1
  O  O605  1  0.07296565  0.51980947  0.32355965  1
  O  O606  1  0.07261707  0.51988539  0.57277037  1
  O  O607  1  0.07318635  0.51865349  0.82339546  1
  O  O608  1  0.07340448  0.85245353  0.07585147  1
  O  O609  1  0.07289720  0.85197681  0.32535050  1
  O  O610  1  0.07278926  0.85292309  0.57329627  1
  O  O611  1  0.07312698  0.85314732  0.82517548  1
  O  O612  1  0.57424607  0.18709661  0.07459513  1
  O  O613  1  0.57417658  0.18638155  0.32504211  1
  O  O614  1  0.57297412  0.18564281  0.57478605  1
  O  O615  1  0.57260494  0.18621752  0.82255567  1
  O  O616  1  0.57339480  0.52156042  0.07321346  1
  O  O617  1  0.57377695  0.51866013  0.32366282  1
  O  O618  1  0.57329522  0.52081586  0.57512558  1
  O  O619  1  0.57172126  0.52032333  0.82269811  1
  O  O620  1  0.57293411  0.85185672  0.07369371  1
  O  O621  1  0.57331558  0.85127616  0.32411410  1
  O  O622  1  0.57428993  0.85285156  0.57572336  1
  O  O623  1  0.57341574  0.85241459  0.82559858  1
  O  O624  1  0.32317355  0.18849230  0.05000119  1
  O  O625  1  0.32211753  0.18683007  0.30150796  1
  O  O626  1  0.32208036  0.18660021  0.55214015  1
  O  O627  1  0.32258357  0.18833019  0.80016028  1
  O  O628  1  0.32255176  0.51937290  0.05091819  1
  O  O629  1  0.32358099  0.51886714  0.29824995  1
  O  O630  1  0.32332716  0.51784908  0.55044659  1
  O  O631  1  0.32271797  0.51770145  0.80053182  1
  O  O632  1  0.32409811  0.85314724  0.04975039  1
  O  O633  1  0.32293106  0.85112213  0.30122795  1
  O  O634  1  0.32375289  0.85306151  0.55003565  1
  O  O635  1  0.32309646  0.85171905  0.80073129  1
  O  O636  1  0.82300657  0.18832964  0.05035181  1
  O  O637  1  0.82287711  0.18791448  0.30021399  1
  O  O638  1  0.82158378  0.18695530  0.55140295  1
  O  O639  1  0.82387351  0.18712370  0.79924560  1
  O  O640  1  0.82153320  0.52021736  0.05202822  1
  O  O641  1  0.82292807  0.51868776  0.30007123  1
  O  O642  1  0.82276993  0.51879565  0.55008921  1
  O  O643  1  0.82216685  0.51851357  0.80096006  1
  O  O644  1  0.82318975  0.85377685  0.05156711  1
  O  O645  1  0.82299637  0.85144638  0.30119817  1
  O  O646  1  0.82275387  0.85420533  0.55132547  1
  O  O647  1  0.82196070  0.85350842  0.80202834  1
  O  O648  1  0.17593729  0.14691370  0.20101435  1
  O  O649  1  0.17753551  0.14867792  0.44949208  1
  O  O650  1  0.17663389  0.14832147  0.69911504  1
  O  O651  1  0.17575768  0.14739895  0.95085369  1
  O  O652  1  0.17785332  0.47967047  0.19827197  1
  O  O653  1  0.17701597  0.47833767  0.44911097  1
  O  O654  1  0.17768141  0.47995683  0.69811669  1
  O  O655  1  0.17786874  0.48035866  0.94863895  1
  O  O656  1  0.17719763  0.81183900  0.19962639  1
  O  O657  1  0.17723471  0.81389531  0.44880328  1
  O  O658  1  0.17524367  0.81257098  0.69998378  1
  O  O659  1  0.17662343  0.81366968  0.94981456  1
  O  O660  1  0.67636634  0.14546674  0.19984775  1
  O  O661  1  0.67674740  0.14724485  0.45093681  1
  O  O662  1  0.67876207  0.14715057  0.69865507  1
  O  O663  1  0.67704893  0.14609211  0.95005184  1
  O  O664  1  0.67884993  0.48068464  0.19817670  1
  O  O665  1  0.67781080  0.48033378  0.44792430  1
  O  O666  1  0.67745636  0.48059321  0.69742321  1
  O  O667  1  0.67678330  0.48223142  0.94868114  1
  O  O668  1  0.67782265  0.81321297  0.19856263  1
  O  O669  1  0.67746624  0.81485419  0.44898095  1
  O  O670  1  0.67589673  0.81354861  0.70122260  1
  O  O671  1  0.67795781  0.81519337  0.95019827  1
