# generated using pymatgen
data_Na2MnFe(PO4)2
_symmetry_space_group_name_H-M   'P 1'
_cell_length_a   22.34158611
_cell_length_b   20.09486218
_cell_length_c   19.45117498
_cell_angle_alpha   90.03757156
_cell_angle_beta   89.97498266
_cell_angle_gamma   89.98524957
_symmetry_Int_Tables_number   1
_chemical_formula_structural   Na2MnFe(PO4)2
_chemical_formula_sum   'Na96 Mn48 Fe48 P96 O384'
_cell_volume   8732.62328360
_cell_formula_units_Z   48
loop_
 _symmetry_equiv_pos_site_id
 _symmetry_equiv_pos_as_xyz
  1  'x, y, z'
loop_
 _atom_site_type_symbol
 _atom_site_label
 _atom_site_symmetry_multiplicity
 _atom_site_fract_x
 _atom_site_fract_y
 _atom_site_fract_z
 _atom_site_occupancy
  Na  Na0  1  0.13987627  0.24872225  0.24375265  1
  Na  Na1  1  0.14049098  0.25032757  0.49160267  1
  Na  Na2  1  0.14023037  0.25073480  0.74227812  1
  Na  Na3  1  0.13975036  0.25092491  0.99356498  1
  Na  Na4  1  0.13986486  0.58129795  0.24351447  1
  Na  Na5  1  0.14047076  0.58207885  0.49258946  1
  Na  Na6  1  0.14037325  0.58214064  0.74268822  1
  Na  Na7  1  0.14037342  0.58323626  0.99369692  1
  Na  Na8  1  0.13990301  0.91695762  0.24451916  1
  Na  Na9  1  0.14004436  0.91762904  0.49300693  1
  Na  Na10  1  0.13980131  0.91571507  0.74411232  1
  Na  Na11  1  0.13986283  0.91673568  0.99416012  1
  Na  Na12  1  0.64104129  0.24987125  0.24453258  1
  Na  Na13  1  0.64117846  0.25032223  0.49401294  1
  Na  Na14  1  0.64124467  0.24961879  0.74378599  1
  Na  Na15  1  0.64082226  0.24920389  0.99503931  1
  Na  Na16  1  0.64079356  0.58467157  0.24462154  1
  Na  Na17  1  0.64106005  0.58337378  0.49279086  1
  Na  Na18  1  0.64053721  0.58249684  0.74291501  1
  Na  Na19  1  0.64121289  0.58321212  0.99426389  1
  Na  Na20  1  0.64058187  0.91717018  0.24376256  1
  Na  Na21  1  0.64048177  0.91668141  0.49253638  1
  Na  Na22  1  0.64019326  0.91725288  0.74332244  1
  Na  Na23  1  0.64029951  0.91614557  0.99556143  1
  Na  Na24  1  0.35864630  0.08374345  0.00636495  1
  Na  Na25  1  0.35902874  0.08230466  0.25751084  1
  Na  Na26  1  0.35922617  0.08350012  0.50538221  1
  Na  Na27  1  0.35884296  0.08263806  0.75510948  1
  Na  Na28  1  0.35926198  0.41678021  0.00419066  1
  Na  Na29  1  0.35911566  0.41539639  0.25672517  1
  Na  Na30  1  0.35975275  0.41692995  0.50592297  1
  Na  Na31  1  0.35948866  0.41680089  0.75485564  1
  Na  Na32  1  0.35924795  0.75113846  0.00609132  1
  Na  Na33  1  0.35928908  0.74960011  0.25708779  1
  Na  Na34  1  0.35925562  0.75085160  0.50616455  1
  Na  Na35  1  0.35960845  0.74879207  0.75608042  1
  Na  Na36  1  0.85963319  0.08319907  0.00819191  1
  Na  Na37  1  0.85999028  0.08359934  0.25707237  1
  Na  Na38  1  0.85964669  0.08420606  0.50620865  1
  Na  Na39  1  0.85928518  0.08449046  0.75520595  1
  Na  Na40  1  0.85959569  0.41625509  0.00651036  1
  Na  Na41  1  0.86000741  0.41749002  0.25847493  1
  Na  Na42  1  0.86061109  0.41616378  0.50600178  1
  Na  Na43  1  0.86041122  0.41561759  0.75537003  1
  Na  Na44  1  0.85998084  0.75094442  0.00778891  1
  Na  Na45  1  0.85908305  0.75004618  0.25745522  1
  Na  Na46  1  0.85990819  0.75133572  0.50651397  1
  Na  Na47  1  0.86018905  0.75057909  0.75680683  1
  Na  Na48  1  0.10962342  0.08210261  0.11955087  1
  Na  Na49  1  0.10954986  0.08448554  0.36755203  1
  Na  Na50  1  0.10949378  0.08304712  0.61707649  1
  Na  Na51  1  0.10878627  0.08389028  0.86897299  1
  Na  Na52  1  0.10970052  0.41502811  0.11915871  1
  Na  Na53  1  0.10988414  0.41647037  0.36727007  1
  Na  Na54  1  0.11002382  0.41544171  0.61678722  1
  Na  Na55  1  0.10999918  0.41721964  0.86700061  1
  Na  Na56  1  0.10919743  0.74960455  0.11986220  1
  Na  Na57  1  0.10922914  0.75071357  0.36862508  1
  Na  Na58  1  0.10929544  0.74925237  0.61934903  1
  Na  Na59  1  0.10912910  0.75082251  0.86895317  1
  Na  Na60  1  0.61006406  0.08165811  0.11923539  1
  Na  Na61  1  0.61008431  0.08259717  0.36902282  1
  Na  Na62  1  0.60996993  0.08231683  0.61768653  1
  Na  Na63  1  0.60970098  0.08273824  0.86997440  1
  Na  Na64  1  0.60996877  0.41655982  0.12009647  1
  Na  Na65  1  0.61053500  0.41808517  0.36867924  1
  Na  Na66  1  0.61059038  0.41680916  0.61853130  1
  Na  Na67  1  0.61028963  0.41657592  0.86814010  1
  Na  Na68  1  0.61030090  0.74967132  0.11970452  1
  Na  Na69  1  0.61015649  0.75172675  0.36800405  1
  Na  Na70  1  0.60930205  0.74951323  0.61806580  1
  Na  Na71  1  0.60969603  0.74984029  0.87007870  1
  Na  Na72  1  0.38985419  0.24961130  0.13141448  1
  Na  Na73  1  0.38995880  0.25030059  0.38174089  1
  Na  Na74  1  0.39009541  0.25114409  0.63043572  1
  Na  Na75  1  0.38991600  0.25083746  0.88013132  1
  Na  Na76  1  0.39035537  0.58316192  0.13059915  1
  Na  Na77  1  0.39040531  0.58436370  0.38154407  1
  Na  Na78  1  0.39042326  0.58250326  0.63053370  1
  Na  Na79  1  0.39041424  0.58350034  0.87967027  1
  Na  Na80  1  0.38969786  0.91554021  0.13221150  1
  Na  Na81  1  0.38982808  0.91708171  0.38190326  1
  Na  Na82  1  0.38973354  0.91609092  0.63008735  1
  Na  Na83  1  0.38971326  0.91605601  0.88136848  1
  Na  Na84  1  0.89081066  0.24931979  0.13244087  1
  Na  Na85  1  0.89084669  0.25151802  0.38192892  1
  Na  Na86  1  0.89018418  0.25030784  0.63061053  1
  Na  Na87  1  0.89039753  0.25094196  0.88065922  1
  Na  Na88  1  0.89063657  0.58276043  0.13326126  1
  Na  Na89  1  0.89026719  0.58373177  0.38202072  1
  Na  Na90  1  0.89122709  0.58283200  0.63044062  1
  Na  Na91  1  0.89091523  0.58479021  0.88125840  1
  Na  Na92  1  0.89012968  0.91638289  0.13300399  1
  Na  Na93  1  0.88956042  0.91824513  0.38207636  1
  Na  Na94  1  0.89014093  0.91629424  0.63109742  1
  Na  Na95  1  0.89015698  0.91731577  0.88159834  1
  Mn  Mn96  1  0.74929996  0.83442382  0.62482718  1
  Mn  Mn97  1  0.24887211  -0.00049262  0.87540323  1
  Mn  Mn98  1  0.24899161  0.16753004  0.87477466  1
  Mn  Mn99  1  -0.00018330  0.16783439  0.74903055  1
  Mn  Mn100  1  0.49972045  0.50119947  0.24965818  1
  Mn  Mn101  1  0.74987794  0.33296954  0.12604477  1
  Mn  Mn102  1  0.24951379  0.66554056  0.62506861  1
  Mn  Mn103  1  -0.00062469  0.33281708  0.00021262  1
  Mn  Mn104  1  0.24988131  0.66630776  0.12525439  1
  Mn  Mn105  1  -0.00005277  0.49991834  0.74963703  1
  Mn  Mn106  1  0.50028388  0.33318783  -0.00025596  1
  Mn  Mn107  1  0.50030084  0.83240725  0.74980612  1
  Mn  Mn108  1  0.49983685  -0.00077466  0.74983283  1
  Mn  Mn109  1  0.75048186  0.66706338  0.62457120  1
  Mn  Mn110  1  0.74980527  0.50051350  0.12594731  1
  Mn  Mn111  1  0.75125388  0.49929619  0.62426190  1
  Mn  Mn112  1  0.50036909  0.16603247  0.50018622  1
  Mn  Mn113  1  0.25015145  0.49829002  0.12393707  1
  Mn  Mn114  1  0.50087029  0.33454735  0.50058772  1
  Mn  Mn115  1  0.24900031  0.83419366  0.12623340  1
  Mn  Mn116  1  0.49953897  0.16583973  0.00055725  1
  Mn  Mn117  1  0.49871534  -0.00144255  -0.00035165  1
  Mn  Mn118  1  0.75035714  0.16669027  0.37560144  1
  Mn  Mn119  1  0.24922693  0.83376166  0.62511264  1
  Mn  Mn120  1  0.49972594  0.83330766  0.25031940  1
  Mn  Mn121  1  0.74992427  0.00045114  0.87560822  1
  Mn  Mn122  1  -0.00053029  0.83362338  0.25062277  1
  Mn  Mn123  1  -0.00009816  0.00036201  0.50009460  1
  Mn  Mn124  1  0.00021946  0.66677905  0.50019879  1
  Mn  Mn125  1  0.75097887  0.49897034  0.87478944  1
  Mn  Mn126  1  0.49985884  0.33354323  0.25052389  1
  Mn  Mn127  1  0.49971231  0.16639924  0.74966475  1
  Mn  Mn128  1  0.24954792  0.66582769  0.37538242  1
  Mn  Mn129  1  0.74970281  0.16704735  0.87539041  1
  Mn  Mn130  1  0.00026608  0.66742750  0.00078520  1
  Mn  Mn131  1  0.75007643  0.83385374  0.87573412  1
  Mn  Mn132  1  0.50030162  0.66702180  0.50016890  1
  Mn  Mn133  1  0.50039771  0.16529716  0.25091207  1
  Mn  Mn134  1  0.50094696  0.33410915  0.75015447  1
  Mn  Mn135  1  0.75019637  0.66666949  0.87544320  1
  Mn  Mn136  1  0.00027898  0.50002317  0.00017980  1
  Mn  Mn137  1  0.24962781  0.16693922  0.62423878  1
  Mn  Mn138  1  -0.00057298  -0.00019890  0.74956776  1
  Mn  Mn139  1  -0.00039173  0.00002790  0.00003967  1
  Mn  Mn140  1  0.50049390  0.50045697  -0.00013464  1
  Mn  Mn141  1  0.24964625  0.66611583  0.87471411  1
  Mn  Mn142  1  0.24966889  0.16678465  0.12501766  1
  Mn  Mn143  1  0.50062229  0.66703502  -0.00003909  1
  Fe  Fe144  1  -0.00016002  0.16640106  0.00054706  1
  Fe  Fe145  1  0.49997115  0.66657776  0.74931540  1
  Fe  Fe146  1  0.50074767  0.50090491  0.49996757  1
  Fe  Fe147  1  0.00046667  0.33334222  0.49883420  1
  Fe  Fe148  1  0.74987093  0.16695471  0.62473165  1
  Fe  Fe149  1  0.25001115  0.16653194  0.37467875  1
  Fe  Fe150  1  0.75016139  0.66739814  0.37475630  1
  Fe  Fe151  1  0.49960251  -0.00094042  0.24993934  1
  Fe  Fe152  1  0.50031163  0.50051494  0.74962256  1
  Fe  Fe153  1  0.24988012  0.83329343  0.87517688  1
  Fe  Fe154  1  0.00089230  0.49990084  0.49960715  1
  Fe  Fe155  1  0.75054447  0.50030581  0.37536990  1
  Fe  Fe156  1  0.75067878  0.16655976  0.12559761  1
  Fe  Fe157  1  0.75066942  0.33330684  0.37528833  1
  Fe  Fe158  1  -0.00015108  0.83317530  0.50042846  1
  Fe  Fe159  1  0.75031909  0.33287527  0.87525543  1
  Fe  Fe160  1  0.24973728  0.33373496  0.87360582  1
  Fe  Fe161  1  0.24936675  -0.00001812  0.37525764  1
  Fe  Fe162  1  0.00061199  0.33323877  0.74861895  1
  Fe  Fe163  1  0.49959039  -0.00063893  0.49976705  1
  Fe  Fe164  1  0.75044524  0.83390176  0.37476259  1
  Fe  Fe165  1  0.75037337  -0.00011495  0.12626829  1
  Fe  Fe166  1  0.24939788  0.00002750  0.62476726  1
  Fe  Fe167  1  0.74996297  0.83345936  0.12610775  1
  Fe  Fe168  1  0.24986912  0.33271214  0.12480675  1
  Fe  Fe169  1  -0.00061893  0.83353753  0.00066118  1
  Fe  Fe170  1  0.24934653  0.83360782  0.37564480  1
  Fe  Fe171  1  -0.00008602  0.16725236  0.49887349  1
  Fe  Fe172  1  0.00013762  0.66710308  0.75012309  1
  Fe  Fe173  1  0.74974741  0.00047547  0.37474606  1
  Fe  Fe174  1  -0.00021584  0.83326793  0.75052054  1
  Fe  Fe175  1  0.49957299  0.83255872  0.00036395  1
  Fe  Fe176  1  -0.00000436  0.16673124  0.25000854  1
  Fe  Fe177  1  0.24988082  0.49884937  0.62373513  1
  Fe  Fe178  1  0.24996501  -0.00018195  0.12593815  1
  Fe  Fe179  1  0.24969017  0.49921835  0.87403799  1
  Fe  Fe180  1  0.00006737  0.49981993  0.25056894  1
  Fe  Fe181  1  0.49972587  0.83323731  0.49945556  1
  Fe  Fe182  1  0.75102277  0.66699757  0.12586766  1
  Fe  Fe183  1  0.25034122  0.49897397  0.37433789  1
  Fe  Fe184  1  0.75011827  0.33329818  0.62479537  1
  Fe  Fe185  1  0.25007241  0.33344330  0.62354500  1
  Fe  Fe186  1  -0.00006022  0.33307450  0.25026005  1
  Fe  Fe187  1  -0.00012495  0.66663874  0.25047557  1
  Fe  Fe188  1  0.49999382  0.66731039  0.25025172  1
  Fe  Fe189  1  -0.00005256  0.00024891  0.25044465  1
  Fe  Fe190  1  0.75044332  0.00039632  0.62456292  1
  Fe  Fe191  1  0.24997460  0.33289936  0.37446310  1
  P  P192  1  0.04175893  0.24819828  0.10333807  1
  P  P193  1  0.04104595  0.25006667  0.35189310  1
  P  P194  1  0.04165301  0.25001552  0.60039994  1
  P  P195  1  0.04235685  0.25164587  0.85192828  1
  P  P196  1  0.04269863  0.58299002  0.10436343  1
  P  P197  1  0.04123451  0.58328880  0.35207431  1
  P  P198  1  0.04276588  0.58197077  0.60224742  1
  P  P199  1  0.04251183  0.58504844  0.85209100  1
  P  P200  1  0.04169200  0.91562609  0.10310442  1
  P  P201  1  0.04163505  0.91832997  0.35302388  1
  P  P202  1  0.04195949  0.91491625  0.60280396  1
  P  P203  1  0.04155881  0.91586031  0.85289797  1
  P  P204  1  0.54277422  0.24939370  0.10367793  1
  P  P205  1  0.54311806  0.24999587  0.35361431  1
  P  P206  1  0.54339829  0.25012042  0.60320618  1
  P  P207  1  0.54333082  0.24952490  0.85317096  1
  P  P208  1  0.54332973  0.58407151  0.10367811  1
  P  P209  1  0.54240184  0.58539542  0.35284678  1
  P  P210  1  0.54302293  0.58238090  0.60288059  1
  P  P211  1  0.54203391  0.58404342  0.85112238  1
  P  P212  1  0.54159503  0.91483985  0.10297686  1
  P  P213  1  0.54203806  0.91801082  0.35307038  1
  P  P214  1  0.54161587  0.91589650  0.60102002  1
  P  P215  1  0.54289387  0.91565880  0.85345792  1
  P  P216  1  0.45715795  0.08122238  0.14804994  1
  P  P217  1  0.45792004  0.08154307  0.39734991  1
  P  P218  1  0.45704840  0.08234151  0.64602645  1
  P  P219  1  0.45614123  0.08299661  0.89681780  1
  P  P220  1  0.45679178  0.41676215  0.14691154  1
  P  P221  1  0.45815387  0.41882360  0.39778465  1
  P  P222  1  0.45853265  0.41858565  0.64703554  1
  P  P223  1  0.45786215  0.41748497  0.89597998  1
  P  P224  1  0.45732549  0.74892938  0.14762558  1
  P  P225  1  0.45759271  0.75118807  0.39725803  1
  P  P226  1  0.45741915  0.74869725  0.64679221  1
  P  P227  1  0.45746441  0.75059407  0.89714609  1
  P  P228  1  0.95871531  0.08324779  0.14859097  1
  P  P229  1  0.95805272  0.08511697  0.39664826  1
  P  P230  1  0.95739127  0.08386737  0.64591535  1
  P  P231  1  0.95723282  0.08514143  0.89774823  1
  P  P232  1  0.95853689  0.41641941  0.14917134  1
  P  P233  1  0.95954770  0.41734466  0.39749134  1
  P  P234  1  0.95861167  0.41525596  0.64602341  1
  P  P235  1  0.95737061  0.41685355  0.89651516  1
  P  P236  1  0.95740342  0.74893504  0.14833668  1
  P  P237  1  0.95792890  0.75124905  0.39763713  1
  P  P238  1  0.95848579  0.75006675  0.64837563  1
  P  P239  1  0.95764256  0.75182804  0.89754593  1
  P  P240  1  0.20801144  0.08204514  0.22845676  1
  P  P241  1  0.20813392  0.08351317  0.47640571  1
  P  P242  1  0.20687531  0.08231524  0.72683607  1
  P  P243  1  0.20646227  0.08373713  0.97851519  1
  P  P244  1  0.20796266  0.41431511  0.22771959  1
  P  P245  1  0.20878266  0.41621523  0.47609657  1
  P  P246  1  0.20826373  0.41607235  0.72581988  1
  P  P247  1  0.20782505  0.41615160  0.97586886  1
  P  P248  1  0.20702467  0.74993025  0.22933489  1
  P  P249  1  0.20734962  0.75100669  0.47757847  1
  P  P250  1  0.20726707  0.74968659  0.72856765  1
  P  P251  1  0.20752749  0.75126965  0.97761395  1
  P  P252  1  0.70912774  0.08350408  0.22734328  1
  P  P253  1  0.70819185  0.08238544  0.47806707  1
  P  P254  1  0.70849878  0.08335747  0.72618793  1
  P  P255  1  0.70764649  0.08337535  0.97976321  1
  P  P256  1  0.70776430  0.41692579  0.22989163  1
  P  P257  1  0.70943062  0.41628611  0.47677948  1
  P  P258  1  0.70847500  0.41500989  0.72751016  1
  P  P259  1  0.70789706  0.41507707  0.97771071  1
  P  P260  1  0.70904837  0.75024222  0.22790567  1
  P  P261  1  0.70889433  0.75057243  0.47610117  1
  P  P262  1  0.70710271  0.75031907  0.72795719  1
  P  P263  1  0.70803754  0.75011511  0.97978625  1
  P  P264  1  0.29173980  0.25172303  0.02183187  1
  P  P265  1  0.29129224  0.24972412  0.27294841  1
  P  P266  1  0.29200410  0.25116126  0.52101146  1
  P  P267  1  0.29176178  0.25135385  0.77122076  1
  P  P268  1  0.29254776  0.58287114  0.02109693  1
  P  P269  1  0.29205059  0.58137303  0.27249054  1
  P  P270  1  0.29190875  0.58149274  0.52179573  1
  P  P271  1  0.29162308  0.58096712  0.77156548  1
  P  P272  1  0.29167647  0.91779958  0.02309448  1
  P  P273  1  0.29104694  0.91685141  0.27395267  1
  P  P274  1  0.29114049  0.91825401  0.52171179  1
  P  P275  1  0.29185197  0.91555939  0.77244534  1
  P  P276  1  0.79284921  0.24900063  0.02311360  1
  P  P277  1  0.79262457  0.25066141  0.27302458  1
  P  P278  1  0.79152022  0.25055051  0.52307374  1
  P  P279  1  0.79218527  0.25109400  0.77182124  1
  P  P280  1  0.79295853  0.58437641  0.02342732  1
  P  P281  1  0.79150577  0.58411486  0.27365145  1
  P  P282  1  0.79304903  0.58363479  0.52052372  1
  P  P283  1  0.79344103  0.58307003  0.77175963  1
  P  P284  1  0.79161169  0.91661906  0.02474285  1
  P  P285  1  0.79114425  0.91721826  0.27293390  1
  P  P286  1  0.79212886  0.91844160  0.52155689  1
  P  P287  1  0.79267511  0.91757075  0.77175979  1
  O  O288  1  0.03625605  0.24838663  0.18318323  1
  O  O289  1  0.03622009  0.25032446  0.43178385  1
  O  O290  1  0.03714920  0.25080655  0.68036625  1
  O  O291  1  0.03722596  0.25111837  0.93178798  1
  O  O292  1  0.03722348  0.58287736  0.18427557  1
  O  O293  1  0.03640334  0.58298304  0.43206525  1
  O  O294  1  0.03745883  0.58221976  0.68206820  1
  O  O295  1  0.03760673  0.58479494  0.93207063  1
  O  O296  1  0.03648392  0.91626659  0.18303072  1
  O  O297  1  0.03679915  0.91810731  0.43291649  1
  O  O298  1  0.03646817  0.91479860  0.68273992  1
  O  O299  1  0.03631055  0.91604553  0.93285642  1
  O  O300  1  0.53763589  0.24938607  0.18366846  1
  O  O301  1  0.53819531  0.25007327  0.43359478  1
  O  O302  1  0.53824451  0.25013900  0.68313675  1
  O  O303  1  0.53813510  0.24955039  0.93316415  1
  O  O304  1  0.53808963  0.58475313  0.18360751  1
  O  O305  1  0.53724011  0.58475344  0.43278811  1
  O  O306  1  0.53757949  0.58263389  0.68274310  1
  O  O307  1  0.53710936  0.58408794  0.93112867  1
  O  O308  1  0.53644346  0.91562167  0.18294441  1
  O  O309  1  0.53675054  0.91795402  0.43293302  1
  O  O310  1  0.53688013  0.91570012  0.68101504  1
  O  O311  1  0.53755704  0.91513852  0.93339250  1
  O  O312  1  0.46185194  0.08151902  0.06804821  1
  O  O313  1  0.46311246  0.08111228  0.31740996  1
  O  O314  1  0.46248751  0.08185063  0.56606083  1
  O  O315  1  0.46129149  0.08294879  0.81683953  1
  O  O316  1  0.46202963  0.41662108  0.06694262  1
  O  O317  1  0.46297730  0.41842001  0.31781808  1
  O  O318  1  0.46391677  0.41894974  0.56710378  1
  O  O319  1  0.46326088  0.41796642  0.81601625  1
  O  O320  1  0.46241233  0.74973813  0.06769720  1
  O  O321  1  0.46258266  0.75040477  0.31732399  1
  O  O322  1  0.46269485  0.74949104  0.56687438  1
  O  O323  1  0.46259036  0.74981958  0.81718815  1
  O  O324  1  0.96362328  0.08326741  0.06861962  1
  O  O325  1  0.96373388  0.08476693  0.31679278  1
  O  O326  1  0.96271294  0.08413932  0.56599438  1
  O  O327  1  0.96230482  0.08487099  0.81779006  1
  O  O328  1  0.96299941  0.41615342  0.06916081  1
  O  O329  1  0.96441359  0.41709693  0.31759672  1
  O  O330  1  0.96419847  0.41558999  0.56617608  1
  O  O331  1  0.96259437  0.41664822  0.81659254  1
  O  O332  1  0.96237593  0.74955801  0.06842265  1
  O  O333  1  0.96310452  0.75047545  0.31776341  1
  O  O334  1  0.96352116  0.75031997  0.56837953  1
  O  O335  1  0.96297416  0.75174717  0.81766318  1
  O  O336  1  0.21180895  0.08350994  0.05843133  1
  O  O337  1  0.21340426  0.08230678  0.30831990  1
  O  O338  1  0.21269658  0.08367712  0.55636516  1
  O  O339  1  0.21174699  0.08279489  0.80678967  1
  O  O340  1  0.21299969  0.41562674  0.05579967  1
  O  O341  1  0.21326212  0.41470624  0.30756028  1
  O  O342  1  0.21386205  0.41643047  0.55598445  1
  O  O343  1  0.21322901  0.41611434  0.80572045  1
  O  O344  1  0.21270107  0.75102344  0.05761857  1
  O  O345  1  0.21238807  0.75041146  0.30927482  1
  O  O346  1  0.21246053  0.75071205  0.55753188  1
  O  O347  1  0.21260709  0.75001181  0.80846935  1
  O  O348  1  0.71310199  0.08351848  0.05962758  1
  O  O349  1  0.71391385  0.08289729  0.30730613  1
  O  O350  1  0.71351722  0.08269076  0.55789148  1
  O  O351  1  0.71320075  0.08373760  0.80620151  1
  O  O352  1  0.71271903  0.41580803  0.05772361  1
  O  O353  1  0.71333877  0.41684678  0.30974821  1
  O  O354  1  0.71435358  0.41608239  0.55675529  1
  O  O355  1  0.71373472  0.41484507  0.80744811  1
  O  O356  1  0.71372210  0.74990347  0.05967990  1
  O  O357  1  0.71448755  0.75010274  0.30779371  1
  O  O358  1  0.71334573  0.75098358  0.55608125  1
  O  O359  1  0.71207910  0.75032994  0.80793168  1
  O  O360  1  0.28660055  0.24963261  0.19298637  1
  O  O361  1  0.28667125  0.25081305  0.44113792  1
  O  O362  1  0.28646585  0.25116587  0.69125262  1
  O  O363  1  0.28649725  0.25184745  0.94188605  1
  O  O364  1  0.28702430  0.58158442  0.19253402  1
  O  O365  1  0.28668894  0.58159197  0.44186484  1
  O  O366  1  0.28627502  0.58076392  0.69162697  1
  O  O367  1  0.28711213  0.58268810  0.94116657  1
  O  O368  1  0.28617452  0.91723130  0.19398607  1
  O  O369  1  0.28557865  0.91776782  0.44185442  1
  O  O370  1  0.28662395  0.91624708  0.69252506  1
  O  O371  1  0.28657135  0.91702540  0.94319754  1
  O  O372  1  0.78747773  0.24990961  0.19315214  1
  O  O373  1  0.78673337  0.25069486  0.44312023  1
  O  O374  1  0.78669390  0.25081729  0.69195433  1
  O  O375  1  0.78754388  0.24951348  0.94318533  1
  O  O376  1  0.78669743  0.58429819  0.19366817  1
  O  O377  1  0.78745523  0.58395110  0.44064601  1
  O  O378  1  0.78853854  0.58307149  0.69174092  1
  O  O379  1  0.78804268  0.58381615  0.94343529  1
  O  O380  1  0.78606582  0.91662689  0.19306386  1
  O  O381  1  0.78678100  0.91827992  0.44166957  1
  O  O382  1  0.78765065  0.91782412  0.69178174  1
  O  O383  1  0.78698016  0.91698261  0.94475254  1
  O  O384  1  0.22749222  0.25143487  0.05771868  1
  O  O385  1  0.22709779  0.25028657  0.30878434  1
  O  O386  1  0.22782807  0.25150911  0.55708848  1
  O  O387  1  0.22751699  0.25181942  0.80710593  1
  O  O388  1  0.22828447  0.58274878  0.05673396  1
  O  O389  1  0.22768585  0.58142046  0.30788932  1
  O  O390  1  0.22763556  0.58131021  0.55749320  1
  O  O391  1  0.22747677  0.58128999  0.80762882  1
  O  O392  1  0.22732914  0.91854877  0.05874847  1
  O  O393  1  0.22680037  0.91685168  0.30976347  1
  O  O394  1  0.22702819  0.91846186  0.55793510  1
  O  O395  1  0.22752927  0.91476869  0.80819387  1
  O  O396  1  0.72856563  0.24813132  0.05895410  1
  O  O397  1  0.72837258  0.25134778  0.30877497  1
  O  O398  1  0.72740300  0.25103619  0.55908910  1
  O  O399  1  0.72811284  0.25155804  0.80832473  1
  O  O400  1  0.72853650  0.58489638  0.05873413  1
  O  O401  1  0.72743597  0.58423614  0.30969997  1
  O  O402  1  0.72890664  0.58319809  0.55648565  1
  O  O403  1  0.72899729  0.58275133  0.80680441  1
  O  O404  1  0.72737883  0.91602315  0.06042348  1
  O  O405  1  0.72713739  0.91749884  0.30927066  1
  O  O406  1  0.72791785  0.91911068  0.55764596  1
  O  O407  1  0.72825063  0.91724159  0.80694844  1
  O  O408  1  0.27204375  0.08196171  0.19204556  1
  O  O409  1  0.27233854  0.08280017  0.44065068  1
  O  O410  1  0.27125898  0.08223969  0.69136547  1
  O  O411  1  0.27070623  0.08369504  0.94293247  1
  O  O412  1  0.27211780  0.41411316  0.19158173  1
  O  O413  1  0.27289883  0.41580842  0.43987137  1
  O  O414  1  0.27240418  0.41595377  0.68949111  1
  O  O415  1  0.27195732  0.41639939  0.93955605  1
  O  O416  1  0.27127478  0.75016264  0.19378387  1
  O  O417  1  0.27165424  0.75077667  0.44211039  1
  O  O418  1  0.27147368  0.74963050  0.69291397  1
  O  O419  1  0.27177745  0.75108467  0.94186664  1
  O  O420  1  0.77331373  0.08405918  0.19146989  1
  O  O421  1  0.77231857  0.08198882  0.44185235  1
  O  O422  1  0.77270797  0.08286350  0.69039044  1
  O  O423  1  0.77182702  0.08370374  0.94383799  1
  O  O424  1  0.77190621  0.41698878  0.19392563  1
  O  O425  1  0.77360023  0.41599923  0.44084086  1
  O  O426  1  0.77273264  0.41469193  0.69161260  1
  O  O427  1  0.77233214  0.41463094  0.94232194  1
  O  O428  1  0.77300035  0.75080071  0.19125054  1
  O  O429  1  0.77319713  0.75003322  0.44067353  1
  O  O430  1  0.77161127  0.75091820  0.69304082  1
  O  O431  1  0.77218750  0.75023084  0.94372642  1
  O  O432  1  0.02284726  0.08344091  0.18453688  1
  O  O433  1  0.02212000  0.08530797  0.43294598  1
  O  O434  1  0.02161259  0.08362609  0.68144602  1
  O  O435  1  0.02161009  0.08477888  0.93320539  1
  O  O436  1  0.02283907  0.41702001  0.18452482  1
  O  O437  1  0.02360989  0.41764586  0.43362992  1
  O  O438  1  0.02263883  0.41535742  0.68243219  1
  O  O439  1  0.02170778  0.41651845  0.93190587  1
  O  O440  1  0.02171028  0.74884910  0.18386892  1
  O  O441  1  0.02217137  0.75158263  0.43342589  1
  O  O442  1  0.02256248  0.74990752  0.68453210  1
  O  O443  1  0.02182801  0.75222013  0.93368904  1
  O  O444  1  0.52170329  0.08081670  0.18308192  1
  O  O445  1  0.52217602  0.08143972  0.43295876  1
  O  O446  1  0.52141827  0.08263689  0.68132136  1
  O  O447  1  0.52060350  0.08246370  0.93177546  1
  O  O448  1  0.52127480  0.41702349  0.18185651  1
  O  O449  1  0.52261739  0.41913938  0.43297132  1
  O  O450  1  0.52276094  0.41857620  0.68280731  1
  O  O451  1  0.52218167  0.41698451  0.93139104  1
  O  O452  1  0.52170755  0.74864451  0.18314916  1
  O  O453  1  0.52195951  0.75165583  0.43266315  1
  O  O454  1  0.52174826  0.74799890  0.68239228  1
  O  O455  1  0.52178578  0.75161878  0.93284802  1
  O  O456  1  0.47831405  0.24989249  0.06865982  1
  O  O457  1  0.47859186  0.24948222  0.31888798  1
  O  O458  1  0.47897328  0.25033484  0.56818600  1
  O  O459  1  0.47885241  0.25012490  0.81819672  1
  O  O460  1  0.47895314  0.58373230  0.06847831  1
  O  O461  1  0.47808350  0.58594205  0.31716717  1
  O  O462  1  0.47875799  0.58208705  0.56696374  1
  O  O463  1  0.47780937  0.58406518  0.81524326  1
  O  O464  1  0.47730709  0.91410177  0.06726059  1
  O  O465  1  0.47776594  0.91814058  0.31722298  1
  O  O466  1  0.47728144  0.91565586  0.56545929  1
  O  O467  1  0.47849032  0.91575655  0.81823599  1
  O  O468  1  0.97763277  0.24809380  0.06711428  1
  O  O469  1  0.97700853  0.24949408  0.31579735  1
  O  O470  1  0.97734830  0.24934221  0.56487920  1
  O  O471  1  0.97805330  0.25223228  0.81615342  1
  O  O472  1  0.97848693  0.58320032  0.06859543  1
  O  O473  1  0.97707332  0.58318071  0.31618186  1
  O  O474  1  0.97854715  0.58172729  0.56636590  1
  O  O475  1  0.97817717  0.58507620  0.81660794  1
  O  O476  1  0.97742543  0.91549661  0.06735248  1
  O  O477  1  0.97732834  0.91835022  0.31754888  1
  O  O478  1  0.97777229  0.91524702  0.56685118  1
  O  O479  1  0.97735021  0.91581338  0.81707836  1
  O  O480  1  0.07287875  0.31182424  0.07537955  1
  O  O481  1  0.07131248  0.31401496  0.32315117  1
  O  O482  1  0.07202957  0.31364713  0.57129438  1
  O  O483  1  0.07312620  0.31504848  0.82304697  1
  O  O484  1  0.07404496  0.64630113  0.07604392  1
  O  O485  1  0.07163175  0.64738521  0.32419757  1
  O  O486  1  0.07383651  0.64560064  0.57437489  1
  O  O487  1  0.07298766  0.64871789  0.82365426  1
  O  O488  1  0.07295673  0.97893898  0.07487379  1
  O  O489  1  0.07207851  0.98199790  0.32419965  1
  O  O490  1  0.07315811  0.97863380  0.57532967  1
  O  O491  1  0.07247929  0.97968644  0.82506468  1
  O  O492  1  0.57419355  0.31267300  0.07566376  1
  O  O493  1  0.57379694  0.31362776  0.32549006  1
  O  O494  1  0.57454480  0.31358131  0.57525308  1
  O  O495  1  0.57466701  0.31282000  0.82508089  1
  O  O496  1  0.57443690  0.64721432  0.07489003  1
  O  O497  1  0.57310133  0.64910856  0.32471609  1
  O  O498  1  0.57405918  0.64597837  0.57467408  1
  O  O499  1  0.57261471  0.64787086  0.82308816  1
  O  O500  1  0.57254749  0.97836368  0.07482913  1
  O  O501  1  0.57310254  0.98107714  0.32381531  1
  O  O502  1  0.57216101  0.97974390  0.57309544  1
  O  O503  1  0.57370697  0.97946605  0.82549376  1
  O  O504  1  0.42643670  0.01768880  0.17643077  1
  O  O505  1  0.42676803  0.01851992  0.42640099  1
  O  O506  1  0.42593669  0.01904696  0.67450156  1
  O  O507  1  0.42482203  0.01966320  0.92488725  1
  O  O508  1  0.42598144  0.35327425  0.17533937  1
  O  O509  1  0.42741547  0.35500538  0.42562826  1
  O  O510  1  0.42752705  0.35462529  0.67423505  1
  O  O511  1  0.42660841  0.35393679  0.92371474  1
  O  O512  1  0.42674860  0.68523617  0.17599056  1
  O  O513  1  0.42638956  0.68794628  0.42573157  1
  O  O514  1  0.42664518  0.68502491  0.67493834  1
  O  O515  1  0.42676881  0.68689683  0.92533343  1
  O  O516  1  0.92835155  0.01920788  0.17685161  1
  O  O517  1  0.92679765  0.02166847  0.42469269  1
  O  O518  1  0.92629823  0.02033400  0.67390469  1
  O  O519  1  0.92589604  0.02169343  0.92566404  1
  O  O520  1  0.92843517  0.35235481  0.17760045  1
  O  O521  1  0.92907632  0.35343630  0.42607494  1
  O  O522  1  0.92802246  0.35161835  0.67465716  1
  O  O523  1  0.92583989  0.35386489  0.92510466  1
  O  O524  1  0.92705613  0.68517548  0.17691242  1
  O  O525  1  0.92686593  0.68785497  0.42593645  1
  O  O526  1  0.92801479  0.68597013  0.67625042  1
  O  O527  1  0.92674716  0.68808930  0.92557297  1
  O  O528  1  0.17718122  0.01851155  0.19987995  1
  O  O529  1  0.17638890  0.02043455  0.44824728  1
  O  O530  1  0.17644463  0.01851078  0.69855506  1
  O  O531  1  0.17500906  0.02053597  0.95022303  1
  O  O532  1  0.17712079  0.35082027  0.19902276  1
  O  O533  1  0.17743137  0.35283583  0.44784112  1
  O  O534  1  0.17738408  0.35256109  0.69702142  1
  O  O535  1  0.17686136  0.35278490  0.94720884  1
  O  O536  1  0.17634241  0.68615292  0.20127072  1
  O  O537  1  0.17603876  0.68741181  0.45000505  1
  O  O538  1  0.17641692  0.68594829  0.70054754  1
  O  O539  1  0.17615629  0.68776172  0.94996116  1
  O  O540  1  0.67872988  0.01965914  0.19865286  1
  O  O541  1  0.67701276  0.01925791  0.44908769  1
  O  O542  1  0.67729118  0.01988286  0.69821356  1
  O  O543  1  0.67668840  0.01972646  0.95148569  1
  O  O544  1  0.67650100  0.35355529  0.20153454  1
  O  O545  1  0.67797935  0.35304987  0.44860079  1
  O  O546  1  0.67714508  0.35201551  0.69863597  1
  O  O547  1  0.67720670  0.35142863  0.94962291  1
  O  O548  1  0.67860384  0.68641395  0.19936696  1
  O  O549  1  0.67759176  0.68710196  0.44829424  1
  O  O550  1  0.67665418  0.68659426  0.69956356  1
  O  O551  1  0.67680062  0.68677154  0.95122609  1
  O  O552  1  0.32255562  0.31504049  0.05072943  1
  O  O553  1  0.32293284  0.31279048  0.30128586  1
  O  O554  1  0.32315561  0.31449523  0.54959309  1
  O  O555  1  0.32304442  0.31456073  0.79962520  1
  O  O556  1  0.32341808  0.64650521  0.04938347  1
  O  O557  1  0.32317679  0.64490526  0.30048538  1
  O  O558  1  0.32273814  0.64538445  0.54960537  1
  O  O559  1  0.32287802  0.64468387  0.79903240  1
  O  O560  1  0.32243957  0.98141683  0.05150903  1
  O  O561  1  0.32220503  0.98016979  0.30237599  1
  O  O562  1  0.32188606  0.98177697  0.55041687  1
  O  O563  1  0.32271281  0.97915912  0.80066898  1
  O  O564  1  0.82365256  0.31269697  0.05126497  1
  O  O565  1  0.82363316  0.31420318  0.30128362  1
  O  O566  1  0.82310296  0.31371065  0.55122029  1
  O  O567  1  0.82327278  0.31434201  0.80064748  1
  O  O568  1  0.82388061  0.64779677  0.05192192  1
  O  O569  1  0.82284689  0.64743374  0.30182788  1
  O  O570  1  0.82407151  0.64711171  0.54903467  1
  O  O571  1  0.82415527  0.64668358  0.80000254  1
  O  O572  1  0.82182708  0.98064310  0.05325223  1
  O  O573  1  0.82232073  0.98080485  0.30091573  1
  O  O574  1  0.82354709  0.98148247  0.55035905  1
  O  O575  1  0.82368539  0.98094675  0.80033493  1
  O  O576  1  0.42641319  0.14498019  0.17619774  1
  O  O577  1  0.42705154  0.14562229  0.42461995  1
  O  O578  1  0.42591719  0.14606309  0.67370912  1
  O  O579  1  0.42543433  0.14666096  0.92507676  1
  O  O580  1  0.42566072  0.48026662  0.17491025  1
  O  O581  1  0.42740696  0.48237586  0.42613036  1
  O  O582  1  0.42746278  0.48174005  0.67603036  1
  O  O583  1  0.42689847  0.48091908  0.92443418  1
  O  O584  1  0.42606374  0.81225169  0.17612386  1
  O  O585  1  0.42692985  0.81493257  0.42555805  1
  O  O586  1  0.42635902  0.81216508  0.67509469  1
  O  O587  1  0.42647867  0.81401021  0.92572920  1
  O  O588  1  0.92739740  0.14654377  0.17687039  1
  O  O589  1  0.92701790  0.14859711  0.42518365  1
  O  O590  1  0.92623125  0.14723989  0.67422737  1
  O  O591  1  0.92705935  0.14892437  0.92643131  1
  O  O592  1  0.92720197  0.47976324  0.17741280  1
  O  O593  1  0.92821673  0.48066789  0.42592053  1
  O  O594  1  0.92700687  0.47860896  0.67405767  1
  O  O595  1  0.92672198  0.48068556  0.92472286  1
  O  O596  1  0.92602816  0.81226917  0.17655822  1
  O  O597  1  0.92730761  0.81504734  0.42587125  1
  O  O598  1  0.92735999  0.81350311  0.67670578  1
  O  O599  1  0.92661942  0.81511214  0.92662276  1
  O  O600  1  0.07255865  0.18474241  0.07444940  1
  O  O601  1  0.07261995  0.18684988  0.32357070  1
  O  O602  1  0.07277960  0.18636099  0.57245443  1
  O  O603  1  0.07330517  0.18800746  0.82367350  1
  O  O604  1  0.07381865  0.51955136  0.07575419  1
  O  O605  1  0.07246518  0.51995068  0.32359989  1
  O  O606  1  0.07362394  0.51853984  0.57345799  1
  O  O607  1  0.07355250  0.52143792  0.82414421  1
  O  O608  1  0.07223838  0.85181778  0.07482934  1
  O  O609  1  0.07299481  0.85493419  0.32504031  1
  O  O610  1  0.07266715  0.85147096  0.57394966  1
  O  O611  1  0.07259652  0.85257899  0.82425098  1
  O  O612  1  0.57328631  0.18549370  0.07571809  1
  O  O613  1  0.57436043  0.18650850  0.32561273  1
  O  O614  1  0.57427053  0.18654183  0.57509858  1
  O  O615  1  0.57395351  0.18575894  0.82506308  1
  O  O616  1  0.57441160  0.52039519  0.07575726  1
  O  O617  1  0.57343566  0.52186197  0.32473879  1
  O  O618  1  0.57412723  0.51914320  0.57389082  1
  O  O619  1  0.57285341  0.52023852  0.82320652  1
  O  O620  1  0.57241624  0.85114305  0.07492200  1
  O  O621  1  0.57303896  0.85427004  0.32508324  1
  O  O622  1  0.57242334  0.85221337  0.57267311  1
  O  O623  1  0.57431766  0.85267593  0.82460660  1
  O  O624  1  0.32285233  0.18802330  0.04964288  1
  O  O625  1  0.32133798  0.18555349  0.30139886  1
  O  O626  1  0.32305377  0.18759364  0.54923275  1
  O  O627  1  0.32235821  0.18738366  0.79906829  1
  O  O628  1  0.32390227  0.51955620  0.04918361  1
  O  O629  1  0.32266712  0.51768439  0.30073607  1
  O  O630  1  0.32296267  0.51822331  0.55032922  1
  O  O631  1  0.32234046  0.51756066  0.80030380  1
  O  O632  1  0.32262937  0.85432079  0.05152799  1
  O  O633  1  0.32149449  0.85278768  0.30193649  1
  O  O634  1  0.32246282  0.85475274  0.54970235  1
  O  O635  1  0.32274041  0.85196054  0.80072236  1
  O  O636  1  0.82390990  0.18564533  0.05162625  1
  O  O637  1  0.82346182  0.18712290  0.30136493  1
  O  O638  1  0.82142683  0.18626221  0.55132231  1
  O  O639  1  0.82312286  0.18735090  0.79986460  1
  O  O640  1  0.82366398  0.52056079  0.05144969  1
  O  O641  1  0.82184081  0.52005481  0.30188288  1
  O  O642  1  0.82457853  0.52030578  0.54853384  1
  O  O643  1  0.82461268  0.51958600  0.79968064  1
  O  O644  1  0.82292710  0.85329922  0.05276917  1
  O  O645  1  0.82187175  0.85356626  0.30177187  1
  O  O646  1  0.82279742  0.85455343  0.54962446  1
  O  O647  1  0.82371146  0.85410187  0.80008901  1
  O  O648  1  0.17671908  0.14553701  0.20045703  1
  O  O649  1  0.17832853  0.14773533  0.44773517  1
  O  O650  1  0.17579839  0.14581528  0.69870059  1
  O  O651  1  0.17559578  0.14738234  0.95032935  1
  O  O652  1  0.17684580  0.47780614  0.19944340  1
  O  O653  1  0.17821487  0.47997284  0.44742413  1
  O  O654  1  0.17738865  0.47969736  0.69738382  1
  O  O655  1  0.17716844  0.48015376  0.94806571  1
  O  O656  1  0.17540509  0.81307246  0.20112448  1
  O  O657  1  0.17678423  0.81471122  0.44934049  1
  O  O658  1  0.17578182  0.81278196  0.70020715  1
  O  O659  1  0.17716034  0.81507040  0.94933245  1
  O  O660  1  0.67800664  0.14710876  0.19960016  1
  O  O661  1  0.67726946  0.14614761  0.45003005  1
  O  O662  1  0.67833445  0.14738396  0.69779422  1
  O  O663  1  0.67612295  0.14639629  0.95099605  1
  O  O664  1  0.67641754  0.48027243  0.20160418  1
  O  O665  1  0.67922631  0.48048561  0.44868195  1
  O  O666  1  0.67790391  0.47902040  0.69973780  1
  O  O667  1  0.67716786  0.47880091  0.94950385  1
  O  O668  1  0.67754645  0.81372265  0.20008228  1
  O  O669  1  0.67875487  0.81453620  0.44747407  1
  O  O670  1  0.67565749  0.81350944  0.69965921  1
  O  O671  1  0.67677075  0.81354497  0.95166276  1
