# generated using pymatgen
data_Na2MnFe(PO4)2
_symmetry_space_group_name_H-M   'P 1'
_cell_length_a   22.34242441
_cell_length_b   20.09307012
_cell_length_c   19.44852287
_cell_angle_alpha   90.01531778
_cell_angle_beta   89.97000791
_cell_angle_gamma   90.07057917
_symmetry_Int_Tables_number   1
_chemical_formula_structural   Na2MnFe(PO4)2
_chemical_formula_sum   'Na96 Mn48 Fe48 P96 O384'
_cell_volume   8730.97640580
_cell_formula_units_Z   48
loop_
 _symmetry_equiv_pos_site_id
 _symmetry_equiv_pos_as_xyz
  1  'x, y, z'
loop_
 _atom_site_type_symbol
 _atom_site_label
 _atom_site_symmetry_multiplicity
 _atom_site_fract_x
 _atom_site_fract_y
 _atom_site_fract_z
 _atom_site_occupancy
  Na  Na0  1  0.14002451  0.25063878  0.24382213  1
  Na  Na1  1  0.14050854  0.24979256  0.49169815  1
  Na  Na2  1  0.14053892  0.25147042  0.74435110  1
  Na  Na3  1  0.14001537  0.25091073  0.99330097  1
  Na  Na4  1  0.14044562  0.58484315  0.24316684  1
  Na  Na5  1  0.14070497  0.58280639  0.49255113  1
  Na  Na6  1  0.14070372  0.58358774  0.74421207  1
  Na  Na7  1  0.14079363  0.58275128  0.99230339  1
  Na  Na8  1  0.14003969  0.91640077  0.24435321  1
  Na  Na9  1  0.14060501  0.91550415  0.49256598  1
  Na  Na10  1  0.14005526  0.91595586  0.74426077  1
  Na  Na11  1  0.14022803  0.91531609  0.99368385  1
  Na  Na12  1  0.63987352  0.25054151  0.24531937  1
  Na  Na13  1  0.64052258  0.25152467  0.49316822  1
  Na  Na14  1  0.64052957  0.25084634  0.74327886  1
  Na  Na15  1  0.64010451  0.24911796  0.99330839  1
  Na  Na16  1  0.64059070  0.58297309  0.24503388  1
  Na  Na17  1  0.64088402  0.58305497  0.49364346  1
  Na  Na18  1  0.64115962  0.58390856  0.74289573  1
  Na  Na19  1  0.64065425  0.58217733  0.99383760  1
  Na  Na20  1  0.64019131  0.91607486  0.24468501  1
  Na  Na21  1  0.64022120  0.91669045  0.49431979  1
  Na  Na22  1  0.64045780  0.91701919  0.74397135  1
  Na  Na23  1  0.64054612  0.91485172  0.99341788  1
  Na  Na24  1  0.35915368  0.08246290  0.00556798  1
  Na  Na25  1  0.35869663  0.08337067  0.25783648  1
  Na  Na26  1  0.35920368  0.08269515  0.50658716  1
  Na  Na27  1  0.35972663  0.08307094  0.75644401  1
  Na  Na28  1  0.35996190  0.41613473  0.00645523  1
  Na  Na29  1  0.35964994  0.41725912  0.25792430  1
  Na  Na30  1  0.35996030  0.41622462  0.50532169  1
  Na  Na31  1  0.35950536  0.41754034  0.75577127  1
  Na  Na32  1  0.35974316  0.74912862  0.00606342  1
  Na  Na33  1  0.35892956  0.75024763  0.25719049  1
  Na  Na34  1  0.35913741  0.74898190  0.50591160  1
  Na  Na35  1  0.35891912  0.74942159  0.75620352  1
  Na  Na36  1  0.85975239  0.08189684  0.00735048  1
  Na  Na37  1  0.85922378  0.08401518  0.25699169  1
  Na  Na38  1  0.85950056  0.08473699  0.50631475  1
  Na  Na39  1  0.85967340  0.08442468  0.75676742  1
  Na  Na40  1  0.86014790  0.41598258  0.00532221  1
  Na  Na41  1  0.85989554  0.41620717  0.25654776  1
  Na  Na42  1  0.85975383  0.41829376  0.50612092  1
  Na  Na43  1  0.86003551  0.41832556  0.75570864  1
  Na  Na44  1  0.85993295  0.74882603  0.00633778  1
  Na  Na45  1  0.86033684  0.74990840  0.25645115  1
  Na  Na46  1  0.85960877  0.75039128  0.50591010  1
  Na  Na47  1  0.85952539  0.75086851  0.75546777  1
  Na  Na48  1  0.10886647  0.08471269  0.11960815  1
  Na  Na49  1  0.10971352  0.08348981  0.36821774  1
  Na  Na50  1  0.10953388  0.08240521  0.61800040  1
  Na  Na51  1  0.10900871  0.08362106  0.87035722  1
  Na  Na52  1  0.10994042  0.41753757  0.11723695  1
  Na  Na53  1  0.11013095  0.41785482  0.36717937  1
  Na  Na54  1  0.11035128  0.41702100  0.61815954  1
  Na  Na55  1  0.11040305  0.41703209  0.86874955  1
  Na  Na56  1  0.11009335  0.75064388  0.11839608  1
  Na  Na57  1  0.10989641  0.75083867  0.36764797  1
  Na  Na58  1  0.11012198  0.74969359  0.61788192  1
  Na  Na59  1  0.11029423  0.74870535  0.86853575  1
  Na  Na60  1  0.60905259  0.08339397  0.11920388  1
  Na  Na61  1  0.60938045  0.08513797  0.36911192  1
  Na  Na62  1  0.60921023  0.08355348  0.61938582  1
  Na  Na63  1  0.60936431  0.08277220  0.86885041  1
  Na  Na64  1  0.60972044  0.41618090  0.12055770  1
  Na  Na65  1  0.61018479  0.41665768  0.36945531  1
  Na  Na66  1  0.61038422  0.41549424  0.61704753  1
  Na  Na67  1  0.60993150  0.41469530  0.86795570  1
  Na  Na68  1  0.60985759  0.74985412  0.11912026  1
  Na  Na69  1  0.60975388  0.75018453  0.36954768  1
  Na  Na70  1  0.60992799  0.74951596  0.61821394  1
  Na  Na71  1  0.61003616  0.75021936  0.86832708  1
  Na  Na72  1  0.39020296  0.25136414  0.13150040  1
  Na  Na73  1  0.38982584  0.25122510  0.38234322  1
  Na  Na74  1  0.39024347  0.24900687  0.62983081  1
  Na  Na75  1  0.39038274  0.24942393  0.88058638  1
  Na  Na76  1  0.39021502  0.58200086  0.13191810  1
  Na  Na77  1  0.39004859  0.58239285  0.38211964  1
  Na  Na78  1  0.39005716  0.58193251  0.63057335  1
  Na  Na79  1  0.39016665  0.58242346  0.88228009  1
  Na  Na80  1  0.38988296  0.91562796  0.13107091  1
  Na  Na81  1  0.38945051  0.91698236  0.38255312  1
  Na  Na82  1  0.38994019  0.91605487  0.63110218  1
  Na  Na83  1  0.38997681  0.91606832  0.88092722  1
  Na  Na84  1  0.89045248  0.25065637  0.13029147  1
  Na  Na85  1  0.89006288  0.25113720  0.38206163  1
  Na  Na86  1  0.89058062  0.25128951  0.63034153  1
  Na  Na87  1  0.89077071  0.25067116  0.88234567  1
  Na  Na88  1  0.89107734  0.58406228  0.13014447  1
  Na  Na89  1  0.89065002  0.58487160  0.38167984  1
  Na  Na90  1  0.89011654  0.58327927  0.63097011  1
  Na  Na91  1  0.89056491  0.58261366  0.88091625  1
  Na  Na92  1  0.89038591  0.91684439  0.13195371  1
  Na  Na93  1  0.89013073  0.91666927  0.38137544  1
  Na  Na94  1  0.89025689  0.91625481  0.63077863  1
  Na  Na95  1  0.89017725  0.91684896  0.88247033  1
  Mn  Mn96  1  0.49952819  0.00029082  0.25043520  1
  Mn  Mn97  1  0.00066571  0.33426250  0.75010161  1
  Mn  Mn98  1  0.49930938  0.33150032  0.74865603  1
  Mn  Mn99  1  0.49981163  0.83328669  0.25024033  1
  Mn  Mn100  1  0.25013896  0.33458179  0.12505110  1
  Mn  Mn101  1  0.00008393  0.16682596  0.75059275  1
  Mn  Mn102  1  -0.00010823  0.83333900  0.00028075  1
  Mn  Mn103  1  -0.00004059  0.66531707  0.74878814  1
  Mn  Mn104  1  0.49950061  0.83330987  0.74961013  1
  Mn  Mn105  1  -0.00033107  -0.00013555  0.74991977  1
  Mn  Mn106  1  0.49927281  -0.00089630  -0.00059244  1
  Mn  Mn107  1  0.24941785  -0.00143257  0.62533595  1
  Mn  Mn108  1  0.00025408  0.66703747  0.49967507  1
  Mn  Mn109  1  0.24909728  -0.00115249  0.12602361  1
  Mn  Mn110  1  -0.00034710  0.33352412  0.24922939  1
  Mn  Mn111  1  0.24949730  0.16656408  0.62469998  1
  Mn  Mn112  1  0.25016848  0.33432008  0.62377915  1
  Mn  Mn113  1  0.74975626  0.16858219  0.62609793  1
  Mn  Mn114  1  0.75023596  0.83297240  0.87465601  1
  Mn  Mn115  1  0.49900314  0.16687167  -0.00021203  1
  Mn  Mn116  1  0.74973058  0.33255656  0.12580398  1
  Mn  Mn117  1  0.74981097  0.16590878  0.12501633  1
  Mn  Mn118  1  0.50002635  0.66588783  0.49992428  1
  Mn  Mn119  1  0.24930899  0.16726306  0.87531098  1
  Mn  Mn120  1  0.74985016  -0.00013040  0.37570600  1
  Mn  Mn121  1  0.24998211  0.16704969  0.12559078  1
  Mn  Mn122  1  0.24941783  -0.00127880  0.87557725  1
  Mn  Mn123  1  -0.00074408  0.00111984  0.25045893  1
  Mn  Mn124  1  0.74972334  0.00043143  0.62489970  1
  Mn  Mn125  1  -0.00035832  0.50161348  0.24844154  1
  Mn  Mn126  1  0.49980838  0.00046820  0.50042639  1
  Mn  Mn127  1  0.50045074  0.49865041  0.75033827  1
  Mn  Mn128  1  0.50056956  0.49847224  0.00107090  1
  Mn  Mn129  1  0.49889588  0.16821814  0.24928635  1
  Mn  Mn130  1  0.74902760  -0.00169789  0.12661587  1
  Mn  Mn131  1  -0.00034985  0.00005748  0.49943694  1
  Mn  Mn132  1  0.75025113  0.16682217  0.87497358  1
  Mn  Mn133  1  0.25019931  0.66645246  0.12475430  1
  Mn  Mn134  1  0.24996127  0.66613702  0.62478128  1
  Mn  Mn135  1  0.74997812  0.50015618  0.87400865  1
  Mn  Mn136  1  0.74988571  0.66689555  0.37513563  1
  Mn  Mn137  1  0.75063427  0.66646506  0.12539140  1
  Mn  Mn138  1  0.50092864  0.66666382  0.00101187  1
  Mn  Mn139  1  0.00039970  0.83275061  0.75075972  1
  Mn  Mn140  1  0.75024086  0.49915296  0.12453907  1
  Mn  Mn141  1  0.49940049  0.66579429  0.25041003  1
  Mn  Mn142  1  0.00052409  0.33404983  0.49973719  1
  Mn  Mn143  1  0.49999086  0.66586698  0.75002897  1
  Fe  Fe144  1  0.24943884  0.33415208  0.37458638  1
  Fe  Fe145  1  -0.00041523  0.16762172  0.24947721  1
  Fe  Fe146  1  0.50025458  0.49921095  0.25093676  1
  Fe  Fe147  1  0.25028234  0.66632704  0.87480198  1
  Fe  Fe148  1  0.24994990  0.50037041  0.37465865  1
  Fe  Fe149  1  0.49998007  0.33384904  0.25124621  1
  Fe  Fe150  1  0.25008523  0.50026972  0.12476936  1
  Fe  Fe151  1  0.75028833  0.83379370  0.62538708  1
  Fe  Fe152  1  0.24971111  0.83228968  0.62446968  1
  Fe  Fe153  1  0.49993165  0.83314448  -0.00012927  1
  Fe  Fe154  1  0.24956747  -0.00078300  0.37522290  1
  Fe  Fe155  1  0.24981508  0.16646571  0.37502257  1
  Fe  Fe156  1  0.00011255  0.16697302  0.49997759  1
  Fe  Fe157  1  0.00038415  0.50044552  -0.00010910  1
  Fe  Fe158  1  -0.00020000  0.16727422  0.00027191  1
  Fe  Fe159  1  0.00066708  0.49970620  0.75025810  1
  Fe  Fe160  1  0.74999182  0.83306229  0.37556953  1
  Fe  Fe161  1  0.75014195  0.66749834  0.62438501  1
  Fe  Fe162  1  0.75008950  0.50064333  0.62481156  1
  Fe  Fe163  1  0.75078885  0.33459789  0.62415769  1
  Fe  Fe164  1  0.75031917  -0.00035638  0.87529883  1
  Fe  Fe165  1  0.00061925  0.50067504  0.49906488  1
  Fe  Fe166  1  0.50025744  0.16611794  0.74962646  1
  Fe  Fe167  1  0.49990620  -0.00027798  0.74989565  1
  Fe  Fe168  1  0.24993042  0.50015144  0.62466338  1
  Fe  Fe169  1  0.75022317  0.33384879  0.87417351  1
  Fe  Fe170  1  0.00052469  0.66758502  0.24963641  1
  Fe  Fe171  1  0.75022832  0.66692692  0.87425494  1
  Fe  Fe172  1  0.24980324  0.66640695  0.37476302  1
  Fe  Fe173  1  0.50035761  0.33287911  0.00030994  1
  Fe  Fe174  1  0.00055363  0.33386920  -0.00038334  1
  Fe  Fe175  1  0.25081751  0.33433964  0.87450343  1
  Fe  Fe176  1  0.00000016  0.83335742  0.49943209  1
  Fe  Fe177  1  0.25052946  0.50018810  0.87473343  1
  Fe  Fe178  1  0.75003715  0.83229761  0.12479359  1
  Fe  Fe179  1  0.25006993  0.83290390  0.12554758  1
  Fe  Fe180  1  0.75077595  0.50032255  0.37558618  1
  Fe  Fe181  1  0.74940922  0.16754984  0.37598199  1
  Fe  Fe182  1  0.00026971  0.00075962  0.00126954  1
  Fe  Fe183  1  0.49978500  0.83317235  0.50057833  1
  Fe  Fe184  1  0.49968419  0.16669729  0.49989886  1
  Fe  Fe185  1  0.24995557  0.83283975  0.37510679  1
  Fe  Fe186  1  0.00003324  0.83395634  0.24931177  1
  Fe  Fe187  1  0.25008683  0.83241319  0.87486338  1
  Fe  Fe188  1  0.75016321  0.33406588  0.37543469  1
  Fe  Fe189  1  0.50020723  0.33309256  0.49986293  1
  Fe  Fe190  1  0.50063909  0.49933170  0.50008366  1
  Fe  Fe191  1  0.00043124  0.66681295  -0.00040128  1
  P  P192  1  0.04161955  0.25048258  0.10156313  1
  P  P193  1  0.04179623  0.24923340  0.35240172  1
  P  P194  1  0.04301135  0.24928834  0.60204773  1
  P  P195  1  0.04266111  0.25063449  0.85424337  1
  P  P196  1  0.04208509  0.58443395  0.10123195  1
  P  P197  1  0.04213927  0.58509014  0.35193599  1
  P  P198  1  0.04257378  0.58178750  0.60211553  1
  P  P199  1  0.04222296  0.58201049  0.85300650  1
  P  P200  1  0.04192618  0.91806424  0.10329672  1
  P  P201  1  0.04140362  0.91584054  0.35246615  1
  P  P202  1  0.04242160  0.91540869  0.60182560  1
  P  P203  1  0.04246794  0.91721050  0.85427278  1
  P  P204  1  0.54214331  0.25141765  0.10292002  1
  P  P205  1  0.54141368  0.25158415  0.35363624  1
  P  P206  1  0.54155269  0.24919645  0.60132144  1
  P  P207  1  0.54231468  0.24840863  0.85219565  1
  P  P208  1  0.54317237  0.58219736  0.10438285  1
  P  P209  1  0.54187013  0.58138686  0.35345809  1
  P  P210  1  0.54262704  0.58151917  0.60238191  1
  P  P211  1  0.54326571  0.58258565  0.85348036  1
  P  P212  1  0.54229504  0.91543428  0.10236612  1
  P  P213  1  0.54229281  0.91679331  0.35419334  1
  P  P214  1  0.54178544  0.91595094  0.60298086  1
  P  P215  1  0.54209055  0.91738002  0.85239273  1
  P  P216  1  0.45602331  0.08328410  0.14696987  1
  P  P217  1  0.45713779  0.08494667  0.39778538  1
  P  P218  1  0.45821576  0.08328061  0.64808699  1
  P  P219  1  0.45688200  0.08300222  0.89576312  1
  P  P220  1  0.45833362  0.41601483  0.14916332  1
  P  P221  1  0.45899884  0.41654349  0.39816916  1
  P  P222  1  0.45771182  0.41592093  0.64560476  1
  P  P223  1  0.45806542  0.41442105  0.89783629  1
  P  P224  1  0.45683384  0.74968883  0.14688009  1
  P  P225  1  0.45765257  0.75080880  0.39803192  1
  P  P226  1  0.45714302  0.74939142  0.64629812  1
  P  P227  1  0.45810685  0.75059079  0.89774779  1
  P  P228  1  0.95733484  0.08541941  0.14708398  1
  P  P229  1  0.95755932  0.08543470  0.39720468  1
  P  P230  1  0.95720053  0.08382486  0.64650469  1
  P  P231  1  0.95815624  0.08343584  0.89926436  1
  P  P232  1  0.95761977  0.41721701  0.14531074  1
  P  P233  1  0.95808705  0.41855070  0.39705639  1
  P  P234  1  0.95855814  0.41838411  0.64683522  1
  P  P235  1  0.95918218  0.41740458  0.89800229  1
  P  P236  1  0.95890560  0.74991386  0.14772666  1
  P  P237  1  0.95816162  0.75160771  0.39651138  1
  P  P238  1  0.95770191  0.75014337  0.64615420  1
  P  P239  1  0.95783314  0.74842864  0.89753767  1
  P  P240  1  0.20721958  0.08336884  0.22954294  1
  P  P241  1  0.20847627  0.08271006  0.47643176  1
  P  P242  1  0.20686869  0.08310735  0.72818969  1
  P  P243  1  0.20678001  0.08287174  0.97862930  1
  P  P244  1  0.20777848  0.41904798  0.22784497  1
  P  P245  1  0.20837396  0.41738889  0.47620286  1
  P  P246  1  0.20834785  0.41852602  0.72768810  1
  P  P247  1  0.20903369  0.41723548  0.97643897  1
  P  P248  1  0.20801020  0.75100740  0.22804023  1
  P  P249  1  0.20850072  0.74952796  0.47644602  1
  P  P250  1  0.20760290  0.75067806  0.72768066  1
  P  P251  1  0.20886616  0.74944094  0.97666820  1
  P  P252  1  0.70683240  0.08357253  0.22947050  1
  P  P253  1  0.70765624  0.08486610  0.47799975  1
  P  P254  1  0.70742622  0.08357334  0.72892243  1
  P  P255  1  0.70777425  0.08139459  0.97759464  1
  P  P256  1  0.70786963  0.41663859  0.22957035  1
  P  P257  1  0.70916631  0.41739860  0.47741257  1
  P  P258  1  0.70890177  0.41681486  0.72618085  1
  P  P259  1  0.70772833  0.41518475  0.97680548  1
  P  P260  1  0.70794447  0.75103574  0.22804074  1
  P  P261  1  0.70791249  0.75113231  0.47850389  1
  P  P262  1  0.70847807  0.75022375  0.72652106  1
  P  P263  1  0.70791177  0.74845710  0.97736858  1
  P  P264  1  0.29251982  0.25077466  0.02165729  1
  P  P265  1  0.29092965  0.25047844  0.27382074  1
  P  P266  1  0.29193725  0.24981295  0.52030786  1
  P  P267  1  0.29213399  0.25168819  0.77226600  1
  P  P268  1  0.29244568  0.58167132  0.02194217  1
  P  P269  1  0.29141467  0.58345126  0.27311383  1
  P  P270  1  0.29189086  0.58161485  0.52155145  1
  P  P271  1  0.29171796  0.58319444  0.77304256  1
  P  P272  1  0.29161937  0.91436688  0.02257959  1
  P  P273  1  0.29118915  0.91593451  0.27363125  1
  P  P274  1  0.29167035  0.91451343  0.52179512  1
  P  P275  1  0.29189020  0.91451779  0.77224885  1
  P  P276  1  0.79255485  0.24982776  0.02150452  1
  P  P277  1  0.79134090  0.25015320  0.27417765  1
  P  P278  1  0.79201402  0.25212077  0.52174130  1
  P  P279  1  0.79284408  0.25227098  0.77215416  1
  P  P280  1  0.79292845  0.58307961  0.02112641  1
  P  P281  1  0.79283773  0.58231255  0.27298915  1
  P  P282  1  0.79135776  0.58379560  0.52303883  1
  P  P283  1  0.79214673  0.58533904  0.77116350  1
  P  P284  1  0.79238514  0.91491622  0.02291822  1
  P  P285  1  0.79199360  0.91472241  0.27281921  1
  P  P286  1  0.79198417  0.91554498  0.52237404  1
  P  P287  1  0.79260814  0.91783543  0.77241612  1
  O  O288  1  0.03633279  0.25024075  0.18156030  1
  O  O289  1  0.03662275  0.24923759  0.43236216  1
  O  O290  1  0.03795679  0.24995657  0.68204804  1
  O  O291  1  0.03722209  0.25078460  0.93416649  1
  O  O292  1  0.03687583  0.58525747  0.18118944  1
  O  O293  1  0.03693437  0.58437974  0.43187599  1
  O  O294  1  0.03749713  0.58139289  0.68207890  1
  O  O295  1  0.03688729  0.58263126  0.93287682  1
  O  O296  1  0.03619629  0.91748648  0.18322175  1
  O  O297  1  0.03607919  0.91537714  0.43240056  1
  O  O298  1  0.03761652  0.91581820  0.68186897  1
  O  O299  1  0.03720129  0.91784209  0.93425306  1
  O  O300  1  0.53678258  0.25172599  0.18288191  1
  O  O301  1  0.53603933  0.25114509  0.43350409  1
  O  O302  1  0.53654148  0.24842624  0.68127962  1
  O  O303  1  0.53718912  0.24935689  0.93211501  1
  O  O304  1  0.53768958  0.58177485  0.18434163  1
  O  O305  1  0.53655955  0.58118627  0.43342725  1
  O  O306  1  0.53782219  0.58192214  0.68239180  1
  O  O307  1  0.53847163  0.58263897  0.93350707  1
  O  O308  1  0.53728282  0.91593384  0.18236891  1
  O  O309  1  0.53696641  0.91623719  0.43416372  1
  O  O310  1  0.53658657  0.91672914  0.68292788  1
  O  O311  1  0.53697056  0.91648703  0.93235146  1
  O  O312  1  0.46093094  0.08306092  0.06697263  1
  O  O313  1  0.46181914  0.08467830  0.31779992  1
  O  O314  1  0.46339116  0.08365040  0.56808651  1
  O  O315  1  0.46252268  0.08283833  0.81587286  1
  O  O316  1  0.46331996  0.41546678  0.06919172  1
  O  O317  1  0.46396523  0.41677035  0.31823439  1
  O  O318  1  0.46328700  0.41629910  0.56571828  1
  O  O319  1  0.46290874  0.41465366  0.81785724  1
  O  O320  1  0.46220781  0.75014544  0.06692391  1
  O  O321  1  0.46248486  0.75049423  0.31803855  1
  O  O322  1  0.46248983  0.74972724  0.56635543  1
  O  O323  1  0.46306204  0.75024285  0.81774448  1
  O  O324  1  0.96310328  0.08487265  0.06723688  1
  O  O325  1  0.96261253  0.08572630  0.31723447  1
  O  O326  1  0.96242229  0.08416890  0.56652870  1
  O  O327  1  0.96328983  0.08318357  0.81923844  1
  O  O328  1  0.96321407  0.41690013  0.06543139  1
  O  O329  1  0.96278763  0.41818910  0.31706117  1
  O  O330  1  0.96384505  0.41839407  0.56687320  1
  O  O331  1  0.96443710  0.41765976  0.81800027  1
  O  O332  1  0.96406136  0.74941443  0.06776248  1
  O  O333  1  0.96348143  0.75152905  0.31660276  1
  O  O334  1  0.96301799  0.75082870  0.56620108  1
  O  O335  1  0.96280061  0.74845194  0.81756645  1
  O  O336  1  0.21200913  0.08284435  0.05859345  1
  O  O337  1  0.21277068  0.08350556  0.30946465  1
  O  O338  1  0.21307925  0.08239238  0.55646542  1
  O  O339  1  0.21199943  0.08301544  0.80814510  1
  O  O340  1  0.21378034  0.41744915  0.05643512  1
  O  O341  1  0.21274909  0.41897666  0.30773161  1
  O  O342  1  0.21296709  0.41723316  0.55616139  1
  O  O343  1  0.21404211  0.41826278  0.80751487  1
  O  O344  1  0.21352810  0.74921326  0.05662037  1
  O  O345  1  0.21324321  0.75085335  0.30787339  1
  O  O346  1  0.21330989  0.74941635  0.55640759  1
  O  O347  1  0.21308645  0.75049691  0.80750631  1
  O  O348  1  0.71274564  0.08138289  0.05763887  1
  O  O349  1  0.71225637  0.08442317  0.30941950  1
  O  O350  1  0.71259353  0.08497187  0.55797554  1
  O  O351  1  0.71285866  0.08290463  0.80882281  1
  O  O352  1  0.71269529  0.41531659  0.05678666  1
  O  O353  1  0.71351395  0.41697590  0.30944083  1
  O  O354  1  0.71447760  0.41735049  0.55729732  1
  O  O355  1  0.71359289  0.41646224  0.80616274  1
  O  O356  1  0.71310332  0.74915308  0.05731447  1
  O  O357  1  0.71313348  0.75116534  0.30800893  1
  O  O358  1  0.71359445  0.75077940  0.55834334  1
  O  O359  1  0.71364923  0.74964161  0.80649357  1
  O  O360  1  0.28634720  0.25093437  0.19379100  1
  O  O361  1  0.28642297  0.24937420  0.44043776  1
  O  O362  1  0.28683481  0.25142876  0.69228743  1
  O  O363  1  0.28727700  0.25134023  0.94172330  1
  O  O364  1  0.28671858  0.58360220  0.19315536  1
  O  O365  1  0.28653501  0.58180286  0.44171806  1
  O  O366  1  0.28676918  0.58342629  0.69309014  1
  O  O367  1  0.28729780  0.58159203  0.94209467  1
  O  O368  1  0.28642375  0.91595460  0.19367195  1
  O  O369  1  0.28620392  0.91497923  0.44191815  1
  O  O370  1  0.28662594  0.91439938  0.69228855  1
  O  O371  1  0.28623814  0.91419601  0.94263727  1
  O  O372  1  0.78647389  0.24955030  0.19417317  1
  O  O373  1  0.78621561  0.25143478  0.44189366  1
  O  O374  1  0.78759463  0.25256901  0.69217498  1
  O  O375  1  0.78762147  0.25026370  0.94154808  1
  O  O376  1  0.78775775  0.58251392  0.19304003  1
  O  O377  1  0.78647961  0.58309932  0.44306809  1
  O  O378  1  0.78670533  0.58543164  0.69128435  1
  O  O379  1  0.78765481  0.58357949  0.94117399  1
  O  O380  1  0.78652505  0.91448868  0.19288737  1
  O  O381  1  0.78655230  0.91534259  0.44244628  1
  O  O382  1  0.78737926  0.91738208  0.69248321  1
  O  O383  1  0.78753103  0.91572790  0.94293609  1
  O  O384  1  0.22820116  0.25074141  0.05712145  1
  O  O385  1  0.22667617  0.24991009  0.30931894  1
  O  O386  1  0.22781255  0.25012836  0.55632451  1
  O  O387  1  0.22792142  0.25228935  0.80807512  1
  O  O388  1  0.22819012  0.58176985  0.05792844  1
  O  O389  1  0.22717622  0.58297418  0.30885651  1
  O  O390  1  0.22777996  0.58170817  0.55782392  1
  O  O391  1  0.22761134  0.58267897  0.80913903  1
  O  O392  1  0.22738685  0.91423550  0.05851695  1
  O  O393  1  0.22695399  0.91536632  0.30941024  1
  O  O394  1  0.22753033  0.91420448  0.55802716  1
  O  O395  1  0.22765478  0.91418975  0.80810074  1
  O  O396  1  0.72812592  0.24945395  0.05669438  1
  O  O397  1  0.72713033  0.25102170  0.30991285  1
  O  O398  1  0.72798426  0.25283324  0.55825612  1
  O  O399  1  0.72848686  0.25181184  0.80775772  1
  O  O400  1  0.72867091  0.58311179  0.05671727  1
  O  O401  1  0.72849477  0.58199989  0.30854460  1
  O  O402  1  0.72730590  0.58432512  0.55911577  1
  O  O403  1  0.72805950  0.58525560  0.80752839  1
  O  O404  1  0.72794723  0.91404117  0.05840235  1
  O  O405  1  0.72781377  0.91503684  0.30880384  1
  O  O406  1  0.72781481  0.91535836  0.55839946  1
  O  O407  1  0.72833120  0.91794547  0.80820562  1
  O  O408  1  0.27138036  0.08297531  0.19362959  1
  O  O409  1  0.27267886  0.08317106  0.44080247  1
  O  O410  1  0.27127726  0.08282948  0.69301569  1
  O  O411  1  0.27108040  0.08297635  0.94323363  1
  O  O412  1  0.27214303  0.41914675  0.19220163  1
  O  O413  1  0.27262018  0.41771235  0.44047709  1
  O  O414  1  0.27239884  0.41862509  0.69120617  1
  O  O415  1  0.27325509  0.41721068  0.94053969  1
  O  O416  1  0.27216416  0.75101282  0.19188105  1
  O  O417  1  0.27266143  0.75004567  0.44054412  1
  O  O418  1  0.27172688  0.75083647  0.69133932  1
  O  O419  1  0.27301997  0.74989993  0.94069665  1
  O  O420  1  0.77111634  0.08286990  0.19395017  1
  O  O421  1  0.77195335  0.08449225  0.44260831  1
  O  O422  1  0.77166092  0.08405536  0.69330355  1
  O  O423  1  0.77213117  0.08178361  0.94209794  1
  O  O424  1  0.77203007  0.41628961  0.19358282  1
  O  O425  1  0.77312978  0.41734322  0.44074699  1
  O  O426  1  0.77314145  0.41668800  0.69039933  1
  O  O427  1  0.77211374  0.41544785  0.94131428  1
  O  O428  1  0.77226456  0.75130646  0.19229017  1
  O  O429  1  0.77199069  0.75117640  0.44210175  1
  O  O430  1  0.77262818  0.75045501  0.69037065  1
  O  O431  1  0.77220212  0.74829452  0.94156939  1
  O  O432  1  0.02140971  0.08554445  0.18342006  1
  O  O433  1  0.02186138  0.08497123  0.43282408  1
  O  O434  1  0.02157230  0.08347697  0.68174746  1
  O  O435  1  0.02231302  0.08367472  0.93522788  1
  O  O436  1  0.02174745  0.41734919  0.18120046  1
  O  O437  1  0.02251608  0.41838803  0.43223851  1
  O  O438  1  0.02280227  0.41866169  0.68266653  1
  O  O439  1  0.02320551  0.41760775  0.93431874  1
  O  O440  1  0.02299883  0.74993310  0.18388396  1
  O  O441  1  0.02233154  0.75147569  0.43253683  1
  O  O442  1  0.02198600  0.74960208  0.68159815  1
  O  O443  1  0.02222557  0.74890762  0.93281624  1
  O  O444  1  0.52057021  0.08392216  0.18172726  1
  O  O445  1  0.52159907  0.08485868  0.43290127  1
  O  O446  1  0.52233618  0.08327688  0.68425258  1
  O  O447  1  0.52099131  0.08313037  0.93178162  1
  O  O448  1  0.52256121  0.41585357  0.18506721  1
  O  O449  1  0.52304659  0.41628864  0.43445151  1
  O  O450  1  0.52192443  0.41540902  0.68130467  1
  O  O451  1  0.52247834  0.41438717  0.93314671  1
  O  O452  1  0.52122099  0.74927798  0.18206341  1
  O  O453  1  0.52202673  0.75063526  0.43322992  1
  O  O454  1  0.52149371  0.74939232  0.68153473  1
  O  O455  1  0.52245613  0.75119098  0.93320028  1
  O  O456  1  0.47782857  0.25158038  0.06723636  1
  O  O457  1  0.47728543  0.25221293  0.31745047  1
  O  O458  1  0.47736049  0.24981509  0.56549055  1
  O  O459  1  0.47800165  0.24738466  0.81650360  1
  O  O460  1  0.47892145  0.58247293  0.06886797  1
  O  O461  1  0.47765516  0.58133918  0.31769640  1
  O  O462  1  0.47821124  0.58136236  0.56728705  1
  O  O463  1  0.47868194  0.58229906  0.81878314  1
  O  O464  1  0.47785893  0.91472161  0.06709090  1
  O  O465  1  0.47791459  0.91687757  0.31894149  1
  O  O466  1  0.47758348  0.91590748  0.56728491  1
  O  O467  1  0.47778904  0.91786111  0.81684725  1
  O  O468  1  0.97758052  0.25081936  0.06534339  1
  O  O469  1  0.97752010  0.24911546  0.31665585  1
  O  O470  1  0.97860834  0.24933624  0.56670689  1
  O  O471  1  0.97850450  0.25079826  0.81835620  1
  O  O472  1  0.97793312  0.58391711  0.06521518  1
  O  O473  1  0.97790685  0.58592864  0.31617736  1
  O  O474  1  0.97825606  0.58205513  0.56657344  1
  O  O475  1  0.97811008  0.58123495  0.81676065  1
  O  O476  1  0.97784456  0.91826839  0.06714880  1
  O  O477  1  0.97730095  0.91594001  0.31650815  1
  O  O478  1  0.97795689  0.91551546  0.56673290  1
  O  O479  1  0.97815939  0.91663349  0.81882656  1
  O  O480  1  0.07278757  0.31423739  0.07378170  1
  O  O481  1  0.07264108  0.31319660  0.32466358  1
  O  O482  1  0.07422354  0.31283401  0.57395971  1
  O  O483  1  0.07406051  0.31387682  0.82563339  1
  O  O484  1  0.07300389  0.64791874  0.07252827  1
  O  O485  1  0.07325431  0.64863280  0.32383813  1
  O  O486  1  0.07363185  0.64570356  0.57462367  1
  O  O487  1  0.07300625  0.64569054  0.82442691  1
  O  O488  1  0.07276706  0.98185781  0.07550871  1
  O  O489  1  0.07241703  0.97988521  0.32539805  1
  O  O490  1  0.07359791  0.97891549  0.57360068  1
  O  O491  1  0.07356435  0.98040983  0.82543476  1
  O  O492  1  0.57327968  0.31461173  0.07407654  1
  O  O493  1  0.57273019  0.31492886  0.32525522  1
  O  O494  1  0.57266500  0.31295576  0.57357003  1
  O  O495  1  0.57302530  0.31197169  0.82341174  1
  O  O496  1  0.57439923  0.64580393  0.07654367  1
  O  O497  1  0.57285227  0.64536195  0.32604817  1
  O  O498  1  0.57363979  0.64513289  0.57432385  1
  O  O499  1  0.57394973  0.64621598  0.82504973  1
  O  O500  1  0.57304418  0.97926832  0.07447793  1
  O  O501  1  0.57310386  0.98066500  0.32632919  1
  O  O502  1  0.57345942  0.97921624  0.57498864  1
  O  O503  1  0.57281770  0.98108923  0.82410638  1
  O  O504  1  0.42551399  0.01957278  0.17548208  1
  O  O505  1  0.42598759  0.02145613  0.42591455  1
  O  O506  1  0.42759127  0.01925581  0.67596549  1
  O  O507  1  0.42550823  0.01964579  0.92419824  1
  O  O508  1  0.42700287  0.35286085  0.17797901  1
  O  O509  1  0.42784494  0.35297875  0.42640629  1
  O  O510  1  0.42610959  0.35249527  0.67345726  1
  O  O511  1  0.42748507  0.35078987  0.92630491  1
  O  O512  1  0.42572023  0.68604062  0.17493857  1
  O  O513  1  0.42640455  0.68708422  0.42547018  1
  O  O514  1  0.42623589  0.68564192  0.67439437  1
  O  O515  1  0.42735034  0.68677777  0.92562811  1
  O  O516  1  0.92600925  0.02194794  0.17538505  1
  O  O517  1  0.92635323  0.02149721  0.42441970  1
  O  O518  1  0.92606143  0.02018107  0.67450626  1
  O  O519  1  0.92747531  0.01971511  0.92760187  1
  O  O520  1  0.92624641  0.35397985  0.17401947  1
  O  O521  1  0.92687165  0.35508943  0.42511842  1
  O  O522  1  0.92783714  0.35435936  0.67455673  1
  O  O523  1  0.92856119  0.35335705  0.92575395  1
  O  O524  1  0.92765272  0.68659438  0.17623099  1
  O  O525  1  0.92677684  0.68807393  0.42457514  1
  O  O526  1  0.92659586  0.68632164  0.67362885  1
  O  O527  1  0.92744634  0.68472750  0.92612517  1
  O  O528  1  0.17568883  0.01998146  0.20149394  1
  O  O529  1  0.17817109  0.01860223  0.44820372  1
  O  O530  1  0.17564082  0.01967067  0.70001051  1
  O  O531  1  0.17578732  0.01926678  0.95067241  1
  O  O532  1  0.17670999  0.35530001  0.19980194  1
  O  O533  1  0.17816464  0.35328612  0.44759627  1
  O  O534  1  0.17694944  0.35504931  0.69956870  1
  O  O535  1  0.17849128  0.35330995  0.94820222  1
  O  O536  1  0.17682599  0.68750187  0.19972579  1
  O  O537  1  0.17847677  0.68528424  0.44801922  1
  O  O538  1  0.17654472  0.68693403  0.69960197  1
  O  O539  1  0.17881994  0.68528307  0.94795333  1
  O  O540  1  0.67555147  0.01981862  0.20201549  1
  O  O541  1  0.67614738  0.02133557  0.45056801  1
  O  O542  1  0.67614129  0.02043684  0.70019287  1
  O  O543  1  0.67741082  0.01760019  0.94911852  1
  O  O544  1  0.67641714  0.35319213  0.20151054  1
  O  O545  1  0.67804916  0.35380567  0.44914747  1
  O  O546  1  0.67758614  0.35362997  0.69745080  1
  O  O547  1  0.67717952  0.35155358  0.94820999  1
  O  O548  1  0.67727816  0.68687959  0.20059627  1
  O  O549  1  0.67663491  0.68754593  0.45036667  1
  O  O550  1  0.67731206  0.68693527  0.69787348  1
  O  O551  1  0.67720829  0.68480034  0.94900322  1
  O  O552  1  0.32382079  0.31392806  0.05049042  1
  O  O553  1  0.32104689  0.31465286  0.30217468  1
  O  O554  1  0.32328353  0.31337811  0.54809510  1
  O  O555  1  0.32330352  0.31519111  0.80034097  1
  O  O556  1  0.32366269  0.64525331  0.05002775  1
  O  O557  1  0.32146637  0.64759664  0.30172147  1
  O  O558  1  0.32318746  0.64515395  0.54965273  1
  O  O559  1  0.32175787  0.64735615  0.80166119  1
  O  O560  1  0.32253283  0.97828409  0.05021488  1
  O  O561  1  0.32123237  0.98013808  0.30217105  1
  O  O562  1  0.32281231  0.97817043  0.54997137  1
  O  O563  1  0.32260060  0.97856083  0.79991464  1
  O  O564  1  0.82362411  0.31311839  0.05024026  1
  O  O565  1  0.82282466  0.31370390  0.30175866  1
  O  O566  1  0.82348514  0.31557723  0.54966397  1
  O  O567  1  0.82347485  0.31580868  0.80090639  1
  O  O568  1  0.82434087  0.64616745  0.04988826  1
  O  O569  1  0.82357010  0.64623470  0.30074846  1
  O  O570  1  0.82263163  0.64752271  0.55053939  1
  O  O571  1  0.82309030  0.64864591  0.80016116  1
  O  O572  1  0.82311602  0.97841000  0.05171079  1
  O  O573  1  0.82318051  0.97861276  0.30023403  1
  O  O574  1  0.82289186  0.97963047  0.54957332  1
  O  O575  1  0.82324135  0.98144913  0.80111610  1
  O  O576  1  0.42475123  0.14668301  0.17495144  1
  O  O577  1  0.42676772  0.14862849  0.42628640  1
  O  O578  1  0.42720678  0.14677064  0.67632406  1
  O  O579  1  0.42559691  0.14633139  0.92413592  1
  O  O580  1  0.42803806  0.48011726  0.17719426  1
  O  O581  1  0.42828903  0.48018892  0.42678261  1
  O  O582  1  0.42676485  0.47920544  0.67456396  1
  O  O583  1  0.42717386  0.47804600  0.92592876  1
  O  O584  1  0.42571481  0.81290040  0.17547356  1
  O  O585  1  0.42727358  0.81444999  0.42667191  1
  O  O586  1  0.42576288  0.81251261  0.67470687  1
  O  O587  1  0.42730178  0.81417718  0.92591842  1
  O  O588  1  0.92640618  0.14892243  0.17546455  1
  O  O589  1  0.92696946  0.14869390  0.42644423  1
  O  O590  1  0.92619361  0.14712698  0.67519212  1
  O  O591  1  0.92730304  0.14730619  0.92678586  1
  O  O592  1  0.92640278  0.48071597  0.17334258  1
  O  O593  1  0.92779263  0.48235371  0.42546324  1
  O  O594  1  0.92737934  0.48141843  0.67570198  1
  O  O595  1  0.92784891  0.48069457  0.92621272  1
  O  O596  1  0.92844736  0.81399794  0.17554235  1
  O  O597  1  0.92739764  0.81495851  0.42556509  1
  O  O598  1  0.92662409  0.81323434  0.67509041  1
  O  O599  1  0.92652347  0.81189323  0.92537386  1
  O  O600  1  0.07245128  0.18685091  0.07338618  1
  O  O601  1  0.07279831  0.18606541  0.32361214  1
  O  O602  1  0.07347447  0.18557157  0.57373980  1
  O  O603  1  0.07367130  0.18708598  0.82607243  1
  O  O604  1  0.07288755  0.52052317  0.07360258  1
  O  O605  1  0.07289700  0.52154966  0.32350486  1
  O  O606  1  0.07340923  0.51867992  0.57282805  1
  O  O607  1  0.07348682  0.51873542  0.82461942  1
  O  O608  1  0.07319116  0.85460718  0.07533176  1
  O  O609  1  0.07248380  0.85279097  0.32333652  1
  O  O610  1  0.07286346  0.85175988  0.57329551  1
  O  O611  1  0.07350106  0.85344274  0.82662911  1
  O  O612  1  0.57282651  0.18746379  0.07521743  1
  O  O613  1  0.57219522  0.18798647  0.32516772  1
  O  O614  1  0.57216592  0.18560084  0.57263834  1
  O  O615  1  0.57339742  0.18494910  0.82407381  1
  O  O616  1  0.57436788  0.51892501  0.07593776  1
  O  O617  1  0.57291514  0.51819184  0.32475013  1
  O  O618  1  0.57333437  0.51798422  0.57398243  1
  O  O619  1  0.57426498  0.51910326  0.82530572  1
  O  O620  1  0.57309378  0.85194001  0.07393629  1
  O  O621  1  0.57364637  0.85370299  0.32558880  1
  O  O622  1  0.57206867  0.85200179  0.57470212  1
  O  O623  1  0.57329247  0.85399849  0.82409971  1
  O  O624  1  0.32342406  0.18707281  0.04948595  1
  O  O625  1  0.32226447  0.18706476  0.30153032  1
  O  O626  1  0.32306193  0.18658915  0.54916510  1
  O  O627  1  0.32278259  0.18784406  0.80000323  1
  O  O628  1  0.32320210  0.51838319  0.05116585  1
  O  O629  1  0.32288818  0.52033021  0.30141294  1
  O  O630  1  0.32263043  0.51823803  0.55048285  1
  O  O631  1  0.32339782  0.52009471  0.80107152  1
  O  O632  1  0.32257478  0.85112888  0.05132739  1
  O  O633  1  0.32275685  0.85287184  0.30193766  1
  O  O634  1  0.32257294  0.85110830  0.55029673  1
  O  O635  1  0.32312837  0.85145284  0.80101992  1
  O  O636  1  0.82343888  0.18621533  0.04963726  1
  O  O637  1  0.82141387  0.18621272  0.30272872  1
  O  O638  1  0.82289335  0.18860991  0.55021944  1
  O  O639  1  0.82399337  0.18860757  0.79975894  1
  O  O640  1  0.82370175  0.51929986  0.04890806  1
  O  O641  1  0.82379970  0.51902943  0.30150721  1
  O  O642  1  0.82179873  0.52011258  0.55183497  1
  O  O643  1  0.82323147  0.52158981  0.79888053  1
  O  O644  1  0.82327122  0.85125857  0.05092230  1
  O  O645  1  0.82291182  0.85149680  0.30155959  1
  O  O646  1  0.82308125  0.85244246  0.55121443  1
  O  O647  1  0.82380938  0.85433014  0.80034175  1
  O  O648  1  0.17625677  0.14683953  0.20111003  1
  O  O649  1  0.17727507  0.14615482  0.44856238  1
  O  O650  1  0.17610084  0.14675760  0.70018073  1
  O  O651  1  0.17577426  0.14638748  0.95069845  1
  O  O652  1  0.17701955  0.48227444  0.19856303  1
  O  O653  1  0.17701771  0.48052054  0.44785974  1
  O  O654  1  0.17757420  0.48199759  0.69898772  1
  O  O655  1  0.17797663  0.48060905  0.94811052  1
  O  O656  1  0.17722648  0.81440296  0.19915984  1
  O  O657  1  0.17693908  0.81260575  0.44822948  1
  O  O658  1  0.17652779  0.81385445  0.69880348  1
  O  O659  1  0.17737827  0.81263413  0.94859326  1
  O  O660  1  0.67576515  0.14668754  0.20052688  1
  O  O661  1  0.67737261  0.14864256  0.44945076  1
  O  O662  1  0.67638024  0.14730825  0.70132786  1
  O  O663  1  0.67648480  0.14493870  0.95008037  1
  O  O664  1  0.67686686  0.47993041  0.20082874  1
  O  O665  1  0.67828864  0.48105233  0.44924292  1
  O  O666  1  0.67875776  0.48101617  0.69811118  1
  O  O667  1  0.67664629  0.47875304  0.94898497  1
  O  O668  1  0.67676234  0.81402148  0.19909492  1
  O  O669  1  0.67693069  0.81447779  0.45000395  1
  O  O670  1  0.67783712  0.81430468  0.69903495  1
  O  O671  1  0.67677395  0.81183707  0.94900565  1
