# generated using pymatgen
data_Na2MnFe(PO4)2
_symmetry_space_group_name_H-M   'P 1'
_cell_length_a   22.34566333
_cell_length_b   20.09843094
_cell_length_c   19.44810750
_cell_angle_alpha   89.96941844
_cell_angle_beta   89.98795369
_cell_angle_gamma   89.95555939
_symmetry_Int_Tables_number   1
_chemical_formula_structural   Na2MnFe(PO4)2
_chemical_formula_sum   'Na96 Mn48 Fe48 P96 O384'
_cell_volume   8734.38938887
_cell_formula_units_Z   48
loop_
 _symmetry_equiv_pos_site_id
 _symmetry_equiv_pos_as_xyz
  1  'x, y, z'
loop_
 _atom_site_type_symbol
 _atom_site_label
 _atom_site_symmetry_multiplicity
 _atom_site_fract_x
 _atom_site_fract_y
 _atom_site_fract_z
 _atom_site_occupancy
  Na  Na0  1  0.14027828  0.25036296  0.24448833  1
  Na  Na1  1  0.14017673  0.24826825  0.49528563  1
  Na  Na2  1  0.13973661  0.24966955  0.74448458  1
  Na  Na3  1  0.14033215  0.25204624  0.99313300  1
  Na  Na4  1  0.14081548  0.58329821  0.24316913  1
  Na  Na5  1  0.14129540  0.58324634  0.49416981  1
  Na  Na6  1  0.14093250  0.58371105  0.74542420  1
  Na  Na7  1  0.14033652  0.58426762  0.99404713  1
  Na  Na8  1  0.14045346  0.91621553  0.24487526  1
  Na  Na9  1  0.14061017  0.91579239  0.49464302  1
  Na  Na10  1  0.14054480  0.91769435  0.74408090  1
  Na  Na11  1  0.14066703  0.91786418  0.99432152  1
  Na  Na12  1  0.63995728  0.25014403  0.24338888  1
  Na  Na13  1  0.63959328  0.25105692  0.49320153  1
  Na  Na14  1  0.63960895  0.24903834  0.74234100  1
  Na  Na15  1  0.64032476  0.24926125  0.99112148  1
  Na  Na16  1  0.64014591  0.58378635  0.24402099  1
  Na  Na17  1  0.64099875  0.58435552  0.49222547  1
  Na  Na18  1  0.64102884  0.58278729  0.74279993  1
  Na  Na19  1  0.64042161  0.58461598  0.99286004  1
  Na  Na20  1  0.63973247  0.91522846  0.24221051  1
  Na  Na21  1  0.64033896  0.91592278  0.49414681  1
  Na  Na22  1  0.64026175  0.91573815  0.74340593  1
  Na  Na23  1  0.63963583  0.91748673  0.99195837  1
  Na  Na24  1  0.36053239  0.08415182  0.00707055  1
  Na  Na25  1  0.35966596  0.08262547  0.25679789  1
  Na  Na26  1  0.35982789  0.08180091  0.50658368  1
  Na  Na27  1  0.36064093  0.08334448  0.75705181  1
  Na  Na28  1  0.35978539  0.41764816  0.00597359  1
  Na  Na29  1  0.36000110  0.41539896  0.25587341  1
  Na  Na30  1  0.36002386  0.41394273  0.50595056  1
  Na  Na31  1  0.36031221  0.41527580  0.75612908  1
  Na  Na32  1  0.36058248  0.75029823  0.00773738  1
  Na  Na33  1  0.36034039  0.75051844  0.25633686  1
  Na  Na34  1  0.36050780  0.74976897  0.50592444  1
  Na  Na35  1  0.36025661  0.75013285  0.75651813  1
  Na  Na36  1  0.85936163  0.08335420  0.00480529  1
  Na  Na37  1  0.85840923  0.08284826  0.25550096  1
  Na  Na38  1  0.85856459  0.08326628  0.50755015  1
  Na  Na39  1  0.85915166  0.08257460  0.75791983  1
  Na  Na40  1  0.85933182  0.41780163  0.00577125  1
  Na  Na41  1  0.85891648  0.41792478  0.25591855  1
  Na  Na42  1  0.85909101  0.41762091  0.50606998  1
  Na  Na43  1  0.85894850  0.41488881  0.75757234  1
  Na  Na44  1  0.85906443  0.75162571  0.00648145  1
  Na  Na45  1  0.85916610  0.74931559  0.25642710  1
  Na  Na46  1  0.85904770  0.75110726  0.50644503  1
  Na  Na47  1  0.85928935  0.75015209  0.75588665  1
  Na  Na48  1  0.10945671  0.08479960  0.11922130  1
  Na  Na49  1  0.10939943  0.08300467  0.37012368  1
  Na  Na50  1  0.10957216  0.08287150  0.62037866  1
  Na  Na51  1  0.10953164  0.08468961  0.86882024  1
  Na  Na52  1  0.10944896  0.41754245  0.11822182  1
  Na  Na53  1  0.10978227  0.41633979  0.36921214  1
  Na  Na54  1  0.10979252  0.41570259  0.62009781  1
  Na  Na55  1  0.10948043  0.41676769  0.86984812  1
  Na  Na56  1  0.11012566  0.75064231  0.11792670  1
  Na  Na57  1  0.11014927  0.75134604  0.36886553  1
  Na  Na58  1  0.11022540  0.75081077  0.61910456  1
  Na  Na59  1  0.10977170  0.75058662  0.87028789  1
  Na  Na60  1  0.60918780  0.08134425  0.11731493  1
  Na  Na61  1  0.60906668  0.08363572  0.36821170  1
  Na  Na62  1  0.60962317  0.08321598  0.61938828  1
  Na  Na63  1  0.60949809  0.08236493  0.86721004  1
  Na  Na64  1  0.60946862  0.41587901  0.11799520  1
  Na  Na65  1  0.61012898  0.41685292  0.36783972  1
  Na  Na66  1  0.60980904  0.41534961  0.61727666  1
  Na  Na67  1  0.60997800  0.41524435  0.86670583  1
  Na  Na68  1  0.60980527  0.75048485  0.11817998  1
  Na  Na69  1  0.61019410  0.75027558  0.36747043  1
  Na  Na70  1  0.61041544  0.75038557  0.61800547  1
  Na  Na71  1  0.60969307  0.75088880  0.86851500  1
  Na  Na72  1  0.39079417  0.24863808  0.13106707  1
  Na  Na73  1  0.39061192  0.25019974  0.38154143  1
  Na  Na74  1  0.39083006  0.24833245  0.63141720  1
  Na  Na75  1  0.39060938  0.24835637  0.88111282  1
  Na  Na76  1  0.39111593  0.58414773  0.13139114  1
  Na  Na77  1  0.39089491  0.58293083  0.38086933  1
  Na  Na78  1  0.39143414  0.58333689  0.63106787  1
  Na  Na79  1  0.39095684  0.58374253  0.88172055  1
  Na  Na80  1  0.39085186  0.91529069  0.13210082  1
  Na  Na81  1  0.39016721  0.91618347  0.38137848  1
  Na  Na82  1  0.39060956  0.91667656  0.63195233  1
  Na  Na83  1  0.39135564  0.91622918  0.88177075  1
  Na  Na84  1  0.88965880  0.25115416  0.12959953  1
  Na  Na85  1  0.88943854  0.25103521  0.38127619  1
  Na  Na86  1  0.88964558  0.24976395  0.63273942  1
  Na  Na87  1  0.88958524  0.25048346  0.88156608  1
  Na  Na88  1  0.88989720  0.58417070  0.13066721  1
  Na  Na89  1  0.88981830  0.58489420  0.38179308  1
  Na  Na90  1  0.89021441  0.58343264  0.63088838  1
  Na  Na91  1  0.89021924  0.58246138  0.88211082  1
  Na  Na92  1  0.88955710  0.91778842  0.13002917  1
  Na  Na93  1  0.88926612  0.91651199  0.38170518  1
  Na  Na94  1  0.88952219  0.91681315  0.63253485  1
  Na  Na95  1  0.88967997  0.91717870  0.88116855  1
  Mn  Mn96  1  0.00011292  0.50006690  0.50081954  1
  Mn  Mn97  1  0.25064758  0.66717622  0.37451653  1
  Mn  Mn98  1  0.74879206  -0.00095371  0.37543281  1
  Mn  Mn99  1  0.49984480  0.33168142  -0.00112653  1
  Mn  Mn100  1  0.75029981  0.66710721  0.87411993  1
  Mn  Mn101  1  0.50069011  0.00032359  0.50018108  1
  Mn  Mn102  1  0.74964276  0.16693314  0.62522926  1
  Mn  Mn103  1  -0.00073693  0.00074916  0.25033692  1
  Mn  Mn104  1  0.50027197  0.49974288  -0.00056464  1
  Mn  Mn105  1  0.25130297  0.66705011  0.62466801  1
  Mn  Mn106  1  0.50030526  0.49976696  0.49940025  1
  Mn  Mn107  1  0.25014390  0.50023044  0.12542921  1
  Mn  Mn108  1  0.50088662  0.83284561  0.49984065  1
  Mn  Mn109  1  0.50017843  0.49954806  0.24991435  1
  Mn  Mn110  1  -0.00085197  0.16640219  0.50126375  1
  Mn  Mn111  1  0.25061626  -0.00030822  0.62554199  1
  Mn  Mn112  1  0.25068414  0.49912788  0.62466025  1
  Mn  Mn113  1  0.25084006  0.49841791  0.37408199  1
  Mn  Mn114  1  -0.00059395  0.83429585  0.24924250  1
  Mn  Mn115  1  0.00096606  0.66766934  0.50074696  1
  Mn  Mn116  1  0.74924393  0.33388713  0.12402438  1
  Mn  Mn117  1  0.24962321  0.16793718  0.12668900  1
  Mn  Mn118  1  -0.00049504  0.50105880  0.24953073  1
  Mn  Mn119  1  0.24941287  -0.00017618  0.12577053  1
  Mn  Mn120  1  0.50112996  0.66737121  0.75061651  1
  Mn  Mn121  1  0.25012207  0.66682344  0.87545812  1
  Mn  Mn122  1  0.00006181  0.83439445  -0.00038024  1
  Mn  Mn123  1  -0.00122739  -0.00038264  0.50042825  1
  Mn  Mn124  1  -0.00028137  0.16714846  -0.00026564  1
  Mn  Mn125  1  -0.00012003  0.33316301  0.50077759  1
  Mn  Mn126  1  0.25053689  0.33361457  0.87487292  1
  Mn  Mn127  1  0.74898513  0.50135331  0.12502409  1
  Mn  Mn128  1  0.00054201  0.49935595  0.75134874  1
  Mn  Mn129  1  0.00014915  0.66664621  0.75034773  1
  Mn  Mn130  1  0.74960047  0.83357811  0.12467857  1
  Mn  Mn131  1  0.50093360  0.49933167  0.74937518  1
  Mn  Mn132  1  0.25048644  0.16590418  0.37519103  1
  Mn  Mn133  1  0.24980109  0.33149382  0.62647220  1
  Mn  Mn134  1  0.50007523  0.16594079  0.24956540  1
  Mn  Mn135  1  0.74978297  0.16614456  0.12391439  1
  Mn  Mn136  1  0.74986926  0.49976865  0.62441639  1
  Mn  Mn137  1  0.25100637  0.00120373  0.87521739  1
  Mn  Mn138  1  -0.00041776  0.83392419  0.75093459  1
  Mn  Mn139  1  0.25038007  0.83365653  0.87562552  1
  Mn  Mn140  1  0.74896214  0.16738042  0.37549316  1
  Mn  Mn141  1  0.00023438  0.66762501  0.25014027  1
  Mn  Mn142  1  -0.00101287  0.16747743  0.24966568  1
  Mn  Mn143  1  -0.00048669  0.33407347  0.24993167  1
  Fe  Fe144  1  0.25018801  0.33397714  0.12438558  1
  Fe  Fe145  1  0.50009889  -0.00029725  0.75034040  1
  Fe  Fe146  1  0.50056358  0.66690972  0.24986086  1
  Fe  Fe147  1  0.00004336  0.50008368  0.00003797  1
  Fe  Fe148  1  0.74971547  0.33347388  0.62457691  1
  Fe  Fe149  1  -0.00012724  0.00093340  -0.00023509  1
  Fe  Fe150  1  0.25049489  0.83384021  0.12571325  1
  Fe  Fe151  1  -0.00068000  0.16656895  0.75106867  1
  Fe  Fe152  1  0.50022262  0.33258804  0.49930821  1
  Fe  Fe153  1  0.74954980  0.83349397  0.87433415  1
  Fe  Fe154  1  0.25067233  0.50060107  0.87575332  1
  Fe  Fe155  1  0.50029472  0.83325470  0.24946273  1
  Fe  Fe156  1  -0.00107915  0.66694307  -0.00005507  1
  Fe  Fe157  1  0.50079928  0.16550640  -0.00067812  1
  Fe  Fe158  1  0.74917801  0.00006817  0.12395962  1
  Fe  Fe159  1  0.50076174  0.66719362  0.00052605  1
  Fe  Fe160  1  0.50029956  0.83320897  0.00003498  1
  Fe  Fe161  1  0.74981456  0.50075961  0.37504561  1
  Fe  Fe162  1  0.49974693  -0.00071154  0.24890023  1
  Fe  Fe163  1  0.74969214  0.66725835  0.37494333  1
  Fe  Fe164  1  0.74994793  0.49993423  0.87381418  1
  Fe  Fe165  1  0.24969085  -0.00104651  0.37612257  1
  Fe  Fe166  1  0.49972995  0.83318342  0.75033040  1
  Fe  Fe167  1  0.74901799  0.33302998  0.87432387  1
  Fe  Fe168  1  -0.00014918  0.83388202  0.50064719  1
  Fe  Fe169  1  0.74967633  -0.00045828  0.87454498  1
  Fe  Fe170  1  0.50010895  0.16595624  0.74968065  1
  Fe  Fe171  1  0.74954767  -0.00044649  0.62562023  1
  Fe  Fe172  1  0.49968205  -0.00094072  -0.00055369  1
  Fe  Fe173  1  0.75016448  0.83329187  0.37508818  1
  Fe  Fe174  1  0.49980396  0.33219012  0.74892830  1
  Fe  Fe175  1  0.00032894  -0.00006997  0.75015760  1
  Fe  Fe176  1  0.25018070  0.16550964  0.62495917  1
  Fe  Fe177  1  0.74991112  0.83334533  0.62498399  1
  Fe  Fe178  1  0.25059650  0.66718822  0.12517582  1
  Fe  Fe179  1  0.49950751  0.16645207  0.50001862  1
  Fe  Fe180  1  0.25022077  0.16731270  0.87607903  1
  Fe  Fe181  1  -0.00023210  0.33349047  -0.00006062  1
  Fe  Fe182  1  0.24986305  0.33205582  0.37562684  1
  Fe  Fe183  1  0.75007556  0.66713910  0.62403393  1
  Fe  Fe184  1  0.25071141  0.83330925  0.62511175  1
  Fe  Fe185  1  0.74957010  0.16607888  0.87413258  1
  Fe  Fe186  1  0.75003318  0.66693700  0.12531294  1
  Fe  Fe187  1  0.50034576  0.66688168  0.49977217  1
  Fe  Fe188  1  0.74989595  0.33393344  0.37443873  1
  Fe  Fe189  1  -0.00075966  0.33325462  0.75078187  1
  Fe  Fe190  1  0.50036245  0.33252394  0.24944428  1
  Fe  Fe191  1  0.24999013  0.83299450  0.37518410  1
  P  P192  1  0.04234510  0.25168710  0.10210850  1
  P  P193  1  0.04256019  0.25013380  0.35345871  1
  P  P194  1  0.04214685  0.24953215  0.60520914  1
  P  P195  1  0.04081233  0.25063549  0.85239124  1
  P  P196  1  0.04133409  0.58394462  0.10125755  1
  P  P197  1  0.04333202  0.58397207  0.35320507  1
  P  P198  1  0.04370934  0.58323937  0.60386999  1
  P  P199  1  0.04253000  0.58348985  0.85492232  1
  P  P200  1  0.04218447  0.91887311  0.10222806  1
  P  P201  1  0.04215108  0.91671289  0.35376479  1
  P  P202  1  0.04189912  0.91620294  0.60338205  1
  P  P203  1  0.04237745  0.91874104  0.85315622  1
  P  P204  1  0.54271739  0.24775105  0.10167111  1
  P  P205  1  0.54200853  0.25085556  0.35256263  1
  P  P206  1  0.54120123  0.24933921  0.60174573  1
  P  P207  1  0.54141218  0.24891967  0.85091499  1
  P  P208  1  0.54231377  0.58457310  0.10263083  1
  P  P209  1  0.54211990  0.58464720  0.35250674  1
  P  P210  1  0.54293356  0.58445006  0.60184359  1
  P  P211  1  0.54343173  0.58319216  0.85335362  1
  P  P212  1  0.54124976  0.91608264  0.10154985  1
  P  P213  1  0.54126724  0.91689117  0.35090622  1
  P  P214  1  0.54248520  0.91656581  0.60403592  1
  P  P215  1  0.54122492  0.91619907  0.85208217  1
  P  P216  1  0.45762962  0.08125362  0.14662681  1
  P  P217  1  0.45784279  0.08428779  0.39739500  1
  P  P218  1  0.45888038  0.08300994  0.64839600  1
  P  P219  1  0.45927775  0.08262042  0.89756875  1
  P  P220  1  0.45811599  0.41488550  0.14717465  1
  P  P221  1  0.45831939  0.41503754  0.39682341  1
  P  P222  1  0.45842172  0.41468774  0.64650102  1
  P  P223  1  0.45759494  0.41564792  0.89571730  1
  P  P224  1  0.45942577  0.74989973  0.14780665  1
  P  P225  1  0.45872991  0.74875568  0.39665268  1
  P  P226  1  0.45842742  0.75094144  0.64755416  1
  P  P227  1  0.45890565  0.75030826  0.89862440  1
  P  P228  1  0.95635819  0.08382761  0.14605571  1
  P  P229  1  0.95580626  0.08368719  0.39744875  1
  P  P230  1  0.95767296  0.08316468  0.64957181  1
  P  P231  1  0.95796995  0.08259922  0.89650515  1
  P  P232  1  0.95686315  0.41748117  0.14571696  1
  P  P233  1  0.95678954  0.41720066  0.39730364  1
  P  P234  1  0.95724457  0.41563854  0.64864427  1
  P  P235  1  0.95848091  0.41630942  0.89853108  1
  P  P236  1  0.95698315  0.75028566  0.14590156  1
  P  P237  1  0.95778730  0.75177933  0.39803658  1
  P  P238  1  0.95732742  0.75072445  0.64688540  1
  P  P239  1  0.95721558  0.74952380  0.89778621  1
  P  P240  1  0.20703576  0.08282640  0.22950385  1
  P  P241  1  0.20796935  0.08154403  0.47831596  1
  P  P242  1  0.20835822  0.08476081  0.72836143  1
  P  P243  1  0.20784943  0.08516543  0.97806203  1
  P  P244  1  0.20776868  0.41477520  0.22761946  1
  P  P245  1  0.20795006  0.41448533  0.47760154  1
  P  P246  1  0.20778455  0.41680639  0.72914012  1
  P  P247  1  0.20826527  0.41827155  0.97784878  1
  P  P248  1  0.20875838  0.75067669  0.22688111  1
  P  P249  1  0.20842979  0.75115226  0.47791441  1
  P  P250  1  0.20815157  0.75129472  0.72758133  1
  P  P251  1  0.20780691  0.75042723  0.97960660  1
  P  P252  1  0.70695121  0.08179949  0.22675246  1
  P  P253  1  0.70668405  0.08316735  0.47880525  1
  P  P254  1  0.70814829  0.08170764  0.72820864  1
  P  P255  1  0.70822867  0.08273965  0.97589098  1
  P  P256  1  0.70703966  0.41724443  0.22845413  1
  P  P257  1  0.70859290  0.41682863  0.47640008  1
  P  P258  1  0.70754086  0.41478546  0.72727458  1
  P  P259  1  0.70824643  0.41721518  0.97550456  1
  P  P260  1  0.70782467  0.74875996  0.22789003  1
  P  P261  1  0.70847870  0.75046438  0.47694480  1
  P  P262  1  0.70892116  0.74990540  0.72630213  1
  P  P263  1  0.70777256  0.75157548  0.97696840  1
  P  P264  1  0.29229054  0.25131388  0.02258155  1
  P  P265  1  0.29252132  0.25121539  0.27258999  1
  P  P266  1  0.29235448  0.24779356  0.52274081  1
  P  P267  1  0.29239911  0.24793493  0.77271847  1
  P  P268  1  0.29260527  0.58461999  0.02274327  1
  P  P269  1  0.29306232  0.58354210  0.27119526  1
  P  P270  1  0.29398259  0.58268204  0.52147650  1
  P  P271  1  0.29321637  0.58228250  0.77285622  1
  P  P272  1  0.29282352  0.91621427  0.02329862  1
  P  P273  1  0.29139234  0.91614571  0.27376201  1
  P  P274  1  0.29267985  0.91499450  0.52221094  1
  P  P275  1  0.29348017  0.91673026  0.77200156  1
  P  P276  1  0.79170665  0.25022922  0.02005630  1
  P  P277  1  0.79146230  0.25104456  0.27222898  1
  P  P278  1  0.79177270  0.25179106  0.52230107  1
  P  P279  1  0.79057941  0.24979526  0.77295141  1
  P  P280  1  0.79176021  0.58536176  0.02208563  1
  P  P281  1  0.79110568  0.58417263  0.27334998  1
  P  P282  1  0.79186878  0.58494148  0.52162514  1
  P  P283  1  0.79234470  0.58204461  0.77180577  1
  P  P284  1  0.79121084  0.91829381  0.02130316  1
  P  P285  1  0.79154112  0.91532033  0.27227561  1
  P  P286  1  0.79089401  0.91658761  0.52357953  1
  P  P287  1  0.79101631  0.91639614  0.77258290  1
  O  O288  1  0.03730031  0.25129815  0.18206501  1
  O  O289  1  0.03766307  0.24989557  0.43350389  1
  O  O290  1  0.03659680  0.24957358  0.68513289  1
  O  O291  1  0.03583787  0.25091608  0.93237950  1
  O  O292  1  0.03656304  0.58415989  0.18131386  1
  O  O293  1  0.03883658  0.58394205  0.43323768  1
  O  O294  1  0.03868710  0.58309234  0.68388629  1
  O  O295  1  0.03673110  0.58362567  0.93481480  1
  O  O296  1  0.03686844  0.91829775  0.18217968  1
  O  O297  1  0.03697019  0.91584451  0.43375913  1
  O  O298  1  0.03702925  0.91687190  0.68338954  1
  O  O299  1  0.03724936  0.91892064  0.93310404  1
  O  O300  1  0.53758662  0.24835427  0.18158345  1
  O  O301  1  0.53654759  0.25071611  0.43243259  1
  O  O302  1  0.53597677  0.24977017  0.68164425  1
  O  O303  1  0.53696574  0.24820164  0.93088095  1
  O  O304  1  0.53677037  0.58447098  0.18257308  1
  O  O305  1  0.53676522  0.58461495  0.43244331  1
  O  O306  1  0.53791852  0.58397263  0.68185303  1
  O  O307  1  0.53818819  0.58347939  0.93331273  1
  O  O308  1  0.53652793  0.91651874  0.18145092  1
  O  O309  1  0.53691007  0.91665831  0.43091467  1
  O  O310  1  0.53693466  0.91639015  0.68387591  1
  O  O311  1  0.53598327  0.91614285  0.93197085  1
  O  O312  1  0.46286453  0.08148200  0.06678212  1
  O  O313  1  0.46283630  0.08380867  0.31751834  1
  O  O314  1  0.46360493  0.08381490  0.56846991  1
  O  O315  1  0.46417792  0.08230120  0.81768375  1
  O  O316  1  0.46324179  0.41520474  0.06718937  1
  O  O317  1  0.46350343  0.41502674  0.31685389  1
  O  O318  1  0.46395815  0.41475585  0.56654117  1
  O  O319  1  0.46290514  0.41525356  0.81574688  1
  O  O320  1  0.46430007  0.75030223  0.06790797  1
  O  O321  1  0.46401874  0.74894400  0.31677098  1
  O  O322  1  0.46365051  0.75025413  0.56762785  1
  O  O323  1  0.46405466  0.75078099  0.81867921  1
  O  O324  1  0.96176162  0.08349989  0.06607421  1
  O  O325  1  0.96071848  0.08387020  0.31743968  1
  O  O326  1  0.96188792  0.08307600  0.56949894  1
  O  O327  1  0.96375131  0.08269124  0.81664849  1
  O  O328  1  0.96237520  0.41747383  0.06580299  1
  O  O329  1  0.96154781  0.41737782  0.31726917  1
  O  O330  1  0.96219399  0.41599500  0.56866682  1
  O  O331  1  0.96366853  0.41577590  0.81858394  1
  O  O332  1  0.96198076  0.74978131  0.06591193  1
  O  O333  1  0.96257751  0.75148559  0.31798054  1
  O  O334  1  0.96275258  0.75153674  0.56693333  1
  O  O335  1  0.96212672  0.74978837  0.81778717  1
  O  O336  1  0.21248492  0.08490513  0.05806306  1
  O  O337  1  0.21243660  0.08217206  0.30942007  1
  O  O338  1  0.21345745  0.08204913  0.55826993  1
  O  O339  1  0.21351289  0.08513381  0.80832747  1
  O  O340  1  0.21348063  0.41737939  0.05778621  1
  O  O341  1  0.21304978  0.41440923  0.30757499  1
  O  O342  1  0.21316736  0.41472949  0.55757805  1
  O  O343  1  0.21323440  0.41762932  0.80905170  1
  O  O344  1  0.21309330  0.75035463  0.05953089  1
  O  O345  1  0.21364432  0.75100014  0.30690063  1
  O  O346  1  0.21377870  0.75121170  0.55784694  1
  O  O347  1  0.21313015  0.75083033  0.80759409  1
  O  O348  1  0.71284979  0.08282042  0.05588580  1
  O  O349  1  0.71180617  0.08202928  0.30674101  1
  O  O350  1  0.71219359  0.08294020  0.55873916  1
  O  O351  1  0.71364814  0.08187668  0.80808255  1
  O  O352  1  0.71278435  0.41767501  0.05552044  1
  O  O353  1  0.71256982  0.41706053  0.30832237  1
  O  O354  1  0.71333426  0.41677815  0.55639141  1
  O  O355  1  0.71250076  0.41453002  0.80713386  1
  O  O356  1  0.71277761  0.75125246  0.05685777  1
  O  O357  1  0.71308964  0.74914309  0.30775327  1
  O  O358  1  0.71364202  0.75009546  0.55682325  1
  O  O359  1  0.71390955  0.75062028  0.80623181  1
  O  O360  1  0.28735520  0.25169803  0.19263252  1
  O  O361  1  0.28715946  0.24855743  0.44279436  1
  O  O362  1  0.28728102  0.24737974  0.69278668  1
  O  O363  1  0.28704204  0.25046145  0.94261339  1
  O  O364  1  0.28768381  0.58414896  0.19125586  1
  O  O365  1  0.28884202  0.58274669  0.44149104  1
  O  O366  1  0.28820191  0.58268576  0.69285793  1
  O  O367  1  0.28753996  0.58402168  0.94276172  1
  O  O368  1  0.28614326  0.91591400  0.19381469  1
  O  O369  1  0.28705360  0.91534838  0.44235191  1
  O  O370  1  0.28834237  0.91630721  0.69204343  1
  O  O371  1  0.28804533  0.91675499  0.94333018  1
  O  O372  1  0.78625851  0.25050374  0.19223155  1
  O  O373  1  0.78645860  0.25175540  0.44236294  1
  O  O374  1  0.78613224  0.25005806  0.69296370  1
  O  O375  1  0.78615792  0.25022776  0.94015401  1
  O  O376  1  0.78624820  0.58438688  0.19335446  1
  O  O377  1  0.78623867  0.58470392  0.44178122  1
  O  O378  1  0.78736460  0.58213676  0.69193263  1
  O  O379  1  0.78709353  0.58498138  0.94220781  1
  O  O380  1  0.78636271  0.91597173  0.19237712  1
  O  O381  1  0.78608052  0.91592943  0.44362684  1
  O  O382  1  0.78582616  0.91657041  0.69269752  1
  O  O383  1  0.78583890  0.91784324  0.94144143  1
  O  O384  1  0.22798219  0.25193260  0.05825758  1
  O  O385  1  0.22823572  0.25066753  0.30828332  1
  O  O386  1  0.22808450  0.24736208  0.55854205  1
  O  O387  1  0.22813473  0.24841634  0.80844805  1
  O  O388  1  0.22835332  0.58491143  0.05839459  1
  O  O389  1  0.22883649  0.58312729  0.30672100  1
  O  O390  1  0.22957641  0.58314167  0.55658448  1
  O  O391  1  0.22883525  0.58198032  0.80836873  1
  O  O392  1  0.22835068  0.91521663  0.05846824  1
  O  O393  1  0.22732394  0.91627630  0.31008415  1
  O  O394  1  0.22861285  0.91478048  0.55863196  1
  O  O395  1  0.22911368  0.91742657  0.80723586  1
  O  O396  1  0.72756195  0.24991011  0.05596311  1
  O  O397  1  0.72719540  0.25175151  0.30791811  1
  O  O398  1  0.72748195  0.25148727  0.55803144  1
  O  O399  1  0.72633659  0.25021938  0.80853221  1
  O  O400  1  0.72741373  0.58587926  0.05772270  1
  O  O401  1  0.72699755  0.58443093  0.30935044  1
  O  O402  1  0.72782533  0.58511035  0.55803237  1
  O  O403  1  0.72802829  0.58245658  0.80737389  1
  O  O404  1  0.72710093  0.91822597  0.05753062  1
  O  O405  1  0.72723644  0.91454757  0.30805238  1
  O  O406  1  0.72674009  0.91733716  0.55945597  1
  O  O407  1  0.72697406  0.91616675  0.80904372  1
  O  O408  1  0.27130525  0.08322157  0.19399838  1
  O  O409  1  0.27212301  0.08115169  0.44230461  1
  O  O410  1  0.27261778  0.08459254  0.69259733  1
  O  O411  1  0.27239053  0.08551322  0.94299015  1
  O  O412  1  0.27208190  0.41508264  0.19192676  1
  O  O413  1  0.27227593  0.41393790  0.44196041  1
  O  O414  1  0.27204999  0.41588871  0.69360633  1
  O  O415  1  0.27249905  0.41830488  0.94203304  1
  O  O416  1  0.27302021  0.75088364  0.19102034  1
  O  O417  1  0.27265225  0.75136718  0.44206465  1
  O  O418  1  0.27257172  0.75171681  0.69217487  1
  O  O419  1  0.27210449  0.75014153  0.94406325  1
  O  O420  1  0.77131482  0.08148346  0.19124674  1
  O  O421  1  0.77086625  0.08304280  0.44316536  1
  O  O422  1  0.77211317  0.08176909  0.69174815  1
  O  O423  1  0.77238654  0.08232919  0.94007428  1
  O  O424  1  0.77114061  0.41743563  0.19242603  1
  O  O425  1  0.77266472  0.41645299  0.44041368  1
  O  O426  1  0.77184092  0.41494124  0.69151812  1
  O  O427  1  0.77245889  0.41624550  0.93982727  1
  O  O428  1  0.77194597  0.74893736  0.19170163  1
  O  O429  1  0.77251894  0.75076443  0.44048943  1
  O  O430  1  0.77298798  0.74916365  0.69025146  1
  O  O431  1  0.77203046  0.75193345  0.94119267  1
  O  O432  1  0.02071352  0.08405419  0.18139079  1
  O  O433  1  0.02034024  0.08317794  0.43225407  1
  O  O434  1  0.02210883  0.08365104  0.68464431  1
  O  O435  1  0.02195396  0.08246281  0.93306250  1
  O  O436  1  0.02114098  0.41753054  0.18136439  1
  O  O437  1  0.02135685  0.41681154  0.43205542  1
  O  O438  1  0.02170647  0.41491862  0.68380612  1
  O  O439  1  0.02256459  0.41683448  0.93466760  1
  O  O440  1  0.02143194  0.75070808  0.18096845  1
  O  O441  1  0.02223256  0.75225366  0.43321535  1
  O  O442  1  0.02163003  0.75071310  0.68230087  1
  O  O443  1  0.02156182  0.74953913  0.93300059  1
  O  O444  1  0.52183459  0.08103140  0.18263730  1
  O  O445  1  0.52212431  0.08508006  0.43312440  1
  O  O446  1  0.52299299  0.08225395  0.68433771  1
  O  O447  1  0.52329965  0.08293753  0.93384401  1
  O  O448  1  0.52238773  0.41502404  0.18271577  1
  O  O449  1  0.52254370  0.41530358  0.43254695  1
  O  O450  1  0.52257719  0.41426815  0.68247645  1
  O  O451  1  0.52189891  0.41559319  0.93111043  1
  O  O452  1  0.52346019  0.74962091  0.18398104  1
  O  O453  1  0.52290257  0.74829558  0.43276245  1
  O  O454  1  0.52271915  0.75171768  0.68321342  1
  O  O455  1  0.52307075  0.75016234  0.93466010  1
  O  O456  1  0.47836216  0.24715916  0.06610033  1
  O  O457  1  0.47795584  0.25079166  0.31622008  1
  O  O458  1  0.47721901  0.24916069  0.56524243  1
  O  O459  1  0.47716409  0.24959823  0.81534972  1
  O  O460  1  0.47821669  0.58476742  0.06651242  1
  O  O461  1  0.47804765  0.58450835  0.31640485  1
  O  O462  1  0.47859690  0.58450484  0.56644385  1
  O  O463  1  0.47916620  0.58326166  0.81793728  1
  O  O464  1  0.47713960  0.91542278  0.06551794  1
  O  O465  1  0.47701975  0.91723891  0.31532397  1
  O  O466  1  0.47847942  0.91641858  0.56785083  1
  O  O467  1  0.47724517  0.91607285  0.81560875  1
  O  O468  1  0.97791797  0.25152557  0.06687820  1
  O  O469  1  0.97798715  0.25048610  0.31867725  1
  O  O470  1  0.97786376  0.24994595  0.56953381  1
  O  O471  1  0.97667274  0.25057805  0.81639315  1
  O  O472  1  0.97709804  0.58315189  0.06562275  1
  O  O473  1  0.97862999  0.58427578  0.31877972  1
  O  O474  1  0.97919237  0.58385889  0.56903143  1
  O  O475  1  0.97838321  0.58330133  0.81899443  1
  O  O476  1  0.97789023  0.91907018  0.06662396  1
  O  O477  1  0.97772288  0.91701843  0.31861660  1
  O  O478  1  0.97747347  0.91550276  0.56807248  1
  O  O479  1  0.97801548  0.91870316  0.81768436  1
  O  O480  1  0.07274728  0.31535090  0.07353490  1
  O  O481  1  0.07355544  0.31355952  0.32522330  1
  O  O482  1  0.07367193  0.31266673  0.57675341  1
  O  O483  1  0.07197713  0.31403663  0.82421034  1
  O  O484  1  0.07145847  0.64802351  0.07315668  1
  O  O485  1  0.07424105  0.64748215  0.32482462  1
  O  O486  1  0.07500126  0.64656785  0.57579790  1
  O  O487  1  0.07377094  0.64683228  0.82652622  1
  O  O488  1  0.07300433  0.98243003  0.07411447  1
  O  O489  1  0.07300995  0.98051066  0.32607904  1
  O  O490  1  0.07262937  0.97988428  0.57513549  1
  O  O491  1  0.07331296  0.98187349  0.82402918  1
  O  O492  1  0.57367359  0.31125351  0.07331161  1
  O  O493  1  0.57274225  0.31430525  0.32365537  1
  O  O494  1  0.57211585  0.31281371  0.57295812  1
  O  O495  1  0.57246389  0.31243916  0.82275870  1
  O  O496  1  0.57332934  0.64793230  0.07412035  1
  O  O497  1  0.57314974  0.64786404  0.32380549  1
  O  O498  1  0.57343654  0.64816208  0.57363095  1
  O  O499  1  0.57480215  0.64648929  0.82516254  1
  O  O500  1  0.57140041  0.97984405  0.07223680  1
  O  O501  1  0.57224667  0.98040358  0.32279746  1
  O  O502  1  0.57349853  0.98006074  0.57565540  1
  O  O503  1  0.57201667  0.97988400  0.82371211  1
  O  O504  1  0.42674660  0.01789153  0.17559269  1
  O  O505  1  0.42733776  0.02049498  0.42572679  1
  O  O506  1  0.42769668  0.01947518  0.67634046  1
  O  O507  1  0.42858914  0.01895446  0.92635364  1
  O  O508  1  0.42773435  0.35110342  0.17547067  1
  O  O509  1  0.42755372  0.35171329  0.42572704  1
  O  O510  1  0.42708979  0.35153748  0.67502461  1
  O  O511  1  0.42622884  0.35246759  0.92411645  1
  O  O512  1  0.42812753  0.68656250  0.17612864  1
  O  O513  1  0.42760511  0.68557055  0.42559895  1
  O  O514  1  0.42756176  0.68738167  0.67592503  1
  O  O515  1  0.42842758  0.68634412  0.92668358  1
  O  O516  1  0.92517800  0.02064310  0.17463795  1
  O  O517  1  0.92464956  0.02027386  0.42561091  1
  O  O518  1  0.92749755  0.01915616  0.67785193  1
  O  O519  1  0.92692901  0.01928721  0.92514810  1
  O  O520  1  0.92568244  0.35410145  0.17409680  1
  O  O521  1  0.92572824  0.35383146  0.42555297  1
  O  O522  1  0.92621812  0.35228126  0.67711550  1
  O  O523  1  0.92780541  0.35262849  0.92688891  1
  O  O524  1  0.92605159  0.68708093  0.17487669  1
  O  O525  1  0.92717382  0.68793622  0.42593315  1
  O  O526  1  0.92656099  0.68681581  0.67441608  1
  O  O527  1  0.92659663  0.68590163  0.92613217  1
  O  O528  1  0.17587622  0.01969662  0.20080250  1
  O  O529  1  0.17724741  0.01781955  0.45029616  1
  O  O530  1  0.17746166  0.02089519  0.70078882  1
  O  O531  1  0.17729789  0.02140158  0.94995202  1
  O  O532  1  0.17694037  0.35169919  0.19839278  1
  O  O533  1  0.17695396  0.35097613  0.44960896  1
  O  O534  1  0.17659246  0.35303569  0.70183902  1
  O  O535  1  0.17684129  0.35507765  0.94955389  1
  O  O536  1  0.17849599  0.68657005  0.19888299  1
  O  O537  1  0.17764405  0.68730214  0.45015054  1
  O  O538  1  0.17746852  0.68751073  0.69972151  1
  O  O539  1  0.17642459  0.68732920  0.95091313  1
  O  O540  1  0.67634952  0.01826037  0.19814176  1
  O  O541  1  0.67515114  0.02006029  0.45054967  1
  O  O542  1  0.67720003  0.01826438  0.69980179  1
  O  O543  1  0.67680766  0.01955974  0.94763770  1
  O  O544  1  0.67581151  0.35405376  0.19970840  1
  O  O545  1  0.67716744  0.35366527  0.44811315  1
  O  O546  1  0.67683060  0.35148628  0.69802119  1
  O  O547  1  0.67662692  0.35388596  0.94787707  1
  O  O548  1  0.67733480  0.68518423  0.19909226  1
  O  O549  1  0.67773055  0.68697234  0.44816511  1
  O  O550  1  0.67777414  0.68631708  0.69851639  1
  O  O551  1  0.67677746  0.68815475  0.94872450  1
  O  O552  1  0.32313166  0.31507284  0.05029224  1
  O  O553  1  0.32312144  0.31441374  0.30183868  1
  O  O554  1  0.32338453  0.31113677  0.55117913  1
  O  O555  1  0.32349718  0.31178805  0.79991781  1
  O  O556  1  0.32321724  0.64826958  0.05118638  1
  O  O557  1  0.32424879  0.64674318  0.29966407  1
  O  O558  1  0.32516332  0.64604174  0.54964703  1
  O  O559  1  0.32399217  0.64608763  0.80069936  1
  O  O560  1  0.32300362  0.98019799  0.05136793  1
  O  O561  1  0.32207881  0.97993066  0.30183063  1
  O  O562  1  0.32377888  0.97859701  0.55030070  1
  O  O563  1  0.32464046  0.98025298  0.79996508  1
  O  O564  1  0.82269273  0.31366780  0.04849312  1
  O  O565  1  0.82259144  0.31449152  0.30013811  1
  O  O566  1  0.82244238  0.31518795  0.55105159  1
  O  O567  1  0.82206530  0.31275602  0.80159676  1
  O  O568  1  0.82241437  0.64886537  0.05079365  1
  O  O569  1  0.82250219  0.64735413  0.30171111  1
  O  O570  1  0.82285795  0.64832539  0.55016007  1
  O  O571  1  0.82400057  0.64518441  0.79975004  1
  O  O572  1  0.82183517  0.98185211  0.04996687  1
  O  O573  1  0.82234611  0.97883853  0.30067238  1
  O  O574  1  0.82205371  0.98010230  0.55161033  1
  O  O575  1  0.82184983  0.97991644  0.80111579  1
  O  O576  1  0.42649512  0.14475533  0.17493961  1
  O  O577  1  0.42676988  0.14763308  0.42597313  1
  O  O578  1  0.42847280  0.14670273  0.67740742  1
  O  O579  1  0.42819390  0.14614853  0.92595351  1
  O  O580  1  0.42680796  0.47842851  0.17487430  1
  O  O581  1  0.42706944  0.47872083  0.42442736  1
  O  O582  1  0.42770954  0.47873137  0.67402711  1
  O  O583  1  0.42672791  0.47930364  0.92386273  1
  O  O584  1  0.42894982  0.81369833  0.17678834  1
  O  O585  1  0.42789531  0.81257128  0.42466035  1
  O  O586  1  0.42735384  0.81437352  0.67590042  1
  O  O587  1  0.42774422  0.81366627  0.92702452  1
  O  O588  1  0.92533729  0.14755297  0.17385285  1
  O  O589  1  0.92507935  0.14716451  0.42600281  1
  O  O590  1  0.92657890  0.14663166  0.67788654  1
  O  O591  1  0.92670766  0.14629076  0.92410942  1
  O  O592  1  0.92562565  0.48085935  0.17424554  1
  O  O593  1  0.92617092  0.48085166  0.42569545  1
  O  O594  1  0.92661087  0.47946812  0.67664849  1
  O  O595  1  0.92736388  0.47999356  0.92626760  1
  O  O596  1  0.92589031  0.81398072  0.17365006  1
  O  O597  1  0.92680931  0.81513764  0.42659640  1
  O  O598  1  0.92577508  0.81364584  0.67570355  1
  O  O599  1  0.92609897  0.81321692  0.92539419  1
  O  O600  1  0.07368131  0.18828407  0.07413590  1
  O  O601  1  0.07328646  0.18656203  0.32508571  1
  O  O602  1  0.07297329  0.18592188  0.57672823  1
  O  O603  1  0.07135831  0.18663306  0.82444335  1
  O  O604  1  0.07271857  0.52045507  0.07349280  1
  O  O605  1  0.07401672  0.52050103  0.32452089  1
  O  O606  1  0.07426572  0.51950441  0.57566935  1
  O  O607  1  0.07388614  0.52006831  0.82684247  1
  O  O608  1  0.07323023  0.85521729  0.07440348  1
  O  O609  1  0.07341437  0.85373255  0.32464663  1
  O  O610  1  0.07283177  0.85275010  0.57491495  1
  O  O611  1  0.07330702  0.85478250  0.82572871  1
  O  O612  1  0.57347079  0.18414824  0.07322022  1
  O  O613  1  0.57339802  0.18735628  0.32460035  1
  O  O614  1  0.57215792  0.18556948  0.57377002  1
  O  O615  1  0.57178382  0.18516297  0.82197931  1
  O  O616  1  0.57332475  0.52071683  0.07506546  1
  O  O617  1  0.57317460  0.52079943  0.32499633  1
  O  O618  1  0.57409083  0.52087727  0.57394657  1
  O  O619  1  0.57433899  0.51965783  0.82500394  1
  O  O620  1  0.57280177  0.85277428  0.07335954  1
  O  O621  1  0.57152188  0.85289508  0.32246982  1
  O  O622  1  0.57403150  0.85344918  0.57542438  1
  O  O623  1  0.57232732  0.85268723  0.82370510  1
  O  O624  1  0.32331210  0.18791828  0.05115688  1
  O  O625  1  0.32376275  0.18734647  0.29986747  1
  O  O626  1  0.32311039  0.18401513  0.55076744  1
  O  O627  1  0.32325643  0.18482948  0.80212031  1
  O  O628  1  0.32400850  0.52122540  0.05076447  1
  O  O629  1  0.32423806  0.51978455  0.29871777  1
  O  O630  1  0.32471989  0.51896102  0.54950210  1
  O  O631  1  0.32403119  0.51877604  0.80125955  1
  O  O632  1  0.32403945  0.85293314  0.05167860  1
  O  O633  1  0.32248438  0.85255510  0.30182419  1
  O  O634  1  0.32384338  0.85167910  0.55079222  1
  O  O635  1  0.32445921  0.85340276  0.80061632  1
  O  O636  1  0.82317473  0.18690568  0.04831086  1
  O  O637  1  0.82204816  0.18716528  0.30028321  1
  O  O638  1  0.82299959  0.18817533  0.55026579  1
  O  O639  1  0.82059552  0.18545017  0.80109991  1
  O  O640  1  0.82248480  0.52165010  0.05038262  1
  O  O641  1  0.82136631  0.52004845  0.30161887  1
  O  O642  1  0.82309152  0.52137387  0.54971871  1
  O  O643  1  0.82229196  0.51807841  0.80089321  1
  O  O644  1  0.82269896  0.85499156  0.04958580  1
  O  O645  1  0.82253720  0.85178967  0.30065050  1
  O  O646  1  0.82130116  0.85282998  0.55242552  1
  O  O647  1  0.82206718  0.85276350  0.80083917  1
  O  O648  1  0.17593846  0.14654942  0.20177934  1
  O  O649  1  0.17660134  0.14493949  0.45037609  1
  O  O650  1  0.17730270  0.14783639  0.69924829  1
  O  O651  1  0.17700160  0.14868213  0.94963123  1
  O  O652  1  0.17669085  0.47872594  0.20022912  1
  O  O653  1  0.17729306  0.47835369  0.44964290  1
  O  O654  1  0.17671999  0.47994782  0.70020906  1
  O  O655  1  0.17790044  0.48225735  0.94990838  1
  O  O656  1  0.17752345  0.81402834  0.19848043  1
  O  O657  1  0.17725317  0.81432672  0.44912882  1
  O  O658  1  0.17732333  0.81488803  0.69940537  1
  O  O659  1  0.17674006  0.81392805  0.95114396  1
  O  O660  1  0.67613661  0.14555843  0.19881497  1
  O  O661  1  0.67584738  0.14691833  0.45075952  1
  O  O662  1  0.67675966  0.14526402  0.70036914  1
  O  O663  1  0.67806934  0.14681532  0.94729000  1
  O  O664  1  0.67575313  0.48072302  0.20021131  1
  O  O665  1  0.67847004  0.48114398  0.44833005  1
  O  O666  1  0.67638573  0.47840310  0.69915406  1
  O  O667  1  0.67851420  0.48146671  0.94692218  1
  O  O668  1  0.67633597  0.81204010  0.19949271  1
  O  O669  1  0.67738930  0.81411540  0.44876772  1
  O  O670  1  0.67843521  0.81366738  0.69753695  1
  O  O671  1  0.67697521  0.81514822  0.94838589  1
