# generated using pymatgen
data_Na2MnFe(PO4)2
_symmetry_space_group_name_H-M   'P 1'
_cell_length_a   22.34609632
_cell_length_b   20.09699860
_cell_length_c   19.44688669
_cell_angle_alpha   89.97843939
_cell_angle_beta   90.00246077
_cell_angle_gamma   89.99901731
_symmetry_Int_Tables_number   1
_chemical_formula_structural   Na2MnFe(PO4)2
_chemical_formula_sum   'Na96 Mn48 Fe48 P96 O384'
_cell_volume   8733.39134289
_cell_formula_units_Z   48
loop_
 _symmetry_equiv_pos_site_id
 _symmetry_equiv_pos_as_xyz
  1  'x, y, z'
loop_
 _atom_site_type_symbol
 _atom_site_label
 _atom_site_symmetry_multiplicity
 _atom_site_fract_x
 _atom_site_fract_y
 _atom_site_fract_z
 _atom_site_occupancy
  Na  Na0  1  0.14055127  0.25159158  0.24304146  1
  Na  Na1  1  0.14038295  0.25066907  0.49242875  1
  Na  Na2  1  0.13993033  0.25115315  0.74172065  1
  Na  Na3  1  0.14000829  0.25157762  0.99418202  1
  Na  Na4  1  0.14042397  0.58402066  0.24423188  1
  Na  Na5  1  0.14049853  0.58145009  0.49253297  1
  Na  Na6  1  0.14053874  0.58169714  0.74366927  1
  Na  Na7  1  0.14054369  0.58287417  0.99499528  1
  Na  Na8  1  0.14045372  0.91895562  0.24292888  1
  Na  Na9  1  0.13996643  0.91697950  0.49266417  1
  Na  Na10  1  0.13951181  0.91716881  0.74275853  1
  Na  Na11  1  0.13966511  0.91673396  0.99327364  1
  Na  Na12  1  0.64040938  0.24878577  0.24417638  1
  Na  Na13  1  0.64005804  0.24952904  0.49371839  1
  Na  Na14  1  0.64047151  0.25022818  0.74343151  1
  Na  Na15  1  0.64094750  0.24902544  0.99535233  1
  Na  Na16  1  0.64082062  0.58237185  0.24507261  1
  Na  Na17  1  0.64104276  0.58426949  0.49332275  1
  Na  Na18  1  0.64057024  0.58491387  0.74407596  1
  Na  Na19  1  0.64062806  0.58374773  0.99493776  1
  Na  Na20  1  0.64020237  0.91438283  0.24372401  1
  Na  Na21  1  0.64016295  0.91504267  0.49320286  1
  Na  Na22  1  0.64005675  0.91825202  0.74315204  1
  Na  Na23  1  0.63996042  0.91587978  0.99395019  1
  Na  Na24  1  0.35887693  0.08352894  0.00621670  1
  Na  Na25  1  0.35893702  0.08459844  0.25740525  1
  Na  Na26  1  0.35963930  0.08412570  0.50627067  1
  Na  Na27  1  0.35973426  0.08357153  0.75458249  1
  Na  Na28  1  0.35913032  0.41650820  0.00640513  1
  Na  Na29  1  0.35871734  0.41659428  0.25691359  1
  Na  Na30  1  0.35925393  0.41534370  0.50663721  1
  Na  Na31  1  0.35975386  0.41667654  0.75483381  1
  Na  Na32  1  0.35965664  0.74992808  0.00728869  1
  Na  Na33  1  0.35953188  0.75053080  0.25742483  1
  Na  Na34  1  0.35983709  0.74846506  0.50580993  1
  Na  Na35  1  0.35924837  0.74914596  0.75547268  1
  Na  Na36  1  0.85973801  0.08294426  0.00670644  1
  Na  Na37  1  0.86010204  0.08235122  0.25524083  1
  Na  Na38  1  0.85987851  0.08245472  0.50601561  1
  Na  Na39  1  0.86006203  0.08391457  0.75621804  1
  Na  Na40  1  0.85983706  0.41595352  0.00711222  1
  Na  Na41  1  0.85995507  0.41594698  0.25707580  1
  Na  Na42  1  0.86048926  0.41632112  0.50682031  1
  Na  Na43  1  0.86021486  0.41678880  0.75644424  1
  Na  Na44  1  0.85982091  0.75090233  0.00633324  1
  Na  Na45  1  0.85979642  0.74850465  0.25717358  1
  Na  Na46  1  0.86034643  0.75052627  0.50614451  1
  Na  Na47  1  0.85968871  0.75235369  0.75652359  1
  Na  Na48  1  0.10975201  0.08434416  0.11871350  1
  Na  Na49  1  0.10980289  0.08516536  0.36700265  1
  Na  Na50  1  0.10949896  0.08402082  0.61779866  1
  Na  Na51  1  0.10894904  0.08335566  0.86795122  1
  Na  Na52  1  0.11024151  0.41676345  0.11881371  1
  Na  Na53  1  0.11020882  0.41717841  0.36785754  1
  Na  Na54  1  0.10989651  0.41615407  0.61734334  1
  Na  Na55  1  0.10985296  0.41577856  0.86845023  1
  Na  Na56  1  0.10957940  0.75106820  0.11868994  1
  Na  Na57  1  0.10949211  0.75125500  0.36795269  1
  Na  Na58  1  0.10926906  0.74985198  0.61847496  1
  Na  Na59  1  0.10934429  0.75128168  0.86940738  1
  Na  Na60  1  0.60979142  0.08157561  0.11851153  1
  Na  Na61  1  0.60938443  0.08196292  0.36931538  1
  Na  Na62  1  0.60919999  0.08298057  0.61778779  1
  Na  Na63  1  0.60964538  0.08269979  0.86939053  1
  Na  Na64  1  0.60961455  0.41629631  0.11981672  1
  Na  Na65  1  0.60989133  0.41655869  0.36927976  1
  Na  Na66  1  0.60965041  0.41744762  0.61864491  1
  Na  Na67  1  0.60968147  0.41678778  0.86976708  1
  Na  Na68  1  0.60990176  0.74889553  0.12000706  1
  Na  Na69  1  0.61024593  0.74959359  0.36870707  1
  Na  Na70  1  0.60959339  0.75099177  0.61815001  1
  Na  Na71  1  0.60947869  0.75059723  0.86889581  1
  Na  Na72  1  0.38941420  0.24977007  0.13245604  1
  Na  Na73  1  0.38996127  0.24903096  0.38285171  1
  Na  Na74  1  0.38991749  0.24989836  0.63090188  1
  Na  Na75  1  0.39010593  0.24996334  0.88005820  1
  Na  Na76  1  0.39004647  0.58368325  0.13227805  1
  Na  Na77  1  0.38996721  0.58358608  0.38231510  1
  Na  Na78  1  0.39025737  0.58306928  0.63008824  1
  Na  Na79  1  0.39019721  0.58305355  0.88096519  1
  Na  Na80  1  0.38993690  0.91502062  0.13186018  1
  Na  Na81  1  0.39062861  0.91614633  0.38196629  1
  Na  Na82  1  0.39020637  0.91647741  0.62923175  1
  Na  Na83  1  0.39015437  0.91690346  0.88043753  1
  Na  Na84  1  0.89047170  0.24950553  0.13219211  1
  Na  Na85  1  0.89071242  0.25066375  0.38038143  1
  Na  Na86  1  0.89093373  0.24944241  0.63145933  1
  Na  Na87  1  0.89084677  0.24881823  0.88090748  1
  Na  Na88  1  0.89043707  0.58352770  0.13236259  1
  Na  Na89  1  0.89078213  0.58383936  0.38244246  1
  Na  Na90  1  0.89099050  0.58331113  0.63122864  1
  Na  Na91  1  0.89057671  0.58402116  0.88199385  1
  Na  Na92  1  0.89048811  0.91697735  0.13100715  1
  Na  Na93  1  0.89052643  0.91698544  0.38054937  1
  Na  Na94  1  0.89056534  0.91681105  0.63169001  1
  Na  Na95  1  0.89031253  0.91778868  0.88070800  1
  Mn  Mn96  1  0.49912778  0.66668012  0.74976627  1
  Mn  Mn97  1  -0.00007970  0.50025037  0.25016628  1
  Mn  Mn98  1  0.75072577  0.50095786  0.62577367  1
  Mn  Mn99  1  0.00043934  0.49879867  0.75065336  1
  Mn  Mn100  1  0.50051138  0.33380891  0.75017236  1
  Mn  Mn101  1  0.75087256  0.33285368  0.37525438  1
  Mn  Mn102  1  0.75073706  0.66813755  0.62418882  1
  Mn  Mn103  1  0.50051642  0.50046109  0.49975661  1
  Mn  Mn104  1  0.24953843  0.16776274  0.87483647  1
  Mn  Mn105  1  0.49950782  -0.00189621  0.24997361  1
  Mn  Mn106  1  0.00032068  0.66747456  0.75057009  1
  Mn  Mn107  1  0.49901546  -0.00152050  -0.00007991  1
  Mn  Mn108  1  0.00008101  0.16661595  -0.00041149  1
  Mn  Mn109  1  0.25002521  0.00113302  0.62378768  1
  Mn  Mn110  1  0.75027449  0.33326004  0.87571320  1
  Mn  Mn111  1  0.49927072  0.83418026  0.74866949  1
  Mn  Mn112  1  0.74983611  0.50151450  0.87644287  1
  Mn  Mn113  1  0.75015722  0.16547183  0.37429157  1
  Mn  Mn114  1  0.49946385  0.16585649  -0.00002244  1
  Mn  Mn115  1  0.50023378  0.66729540  0.00034454  1
  Mn  Mn116  1  0.00012704  0.49910220  0.00094469  1
  Mn  Mn117  1  0.49914369  0.50046717  0.25073964  1
  Mn  Mn118  1  0.00027061  0.66761873  0.00018013  1
  Mn  Mn119  1  0.25028118  0.33429399  0.87425556  1
  Mn  Mn120  1  0.24936288  0.66529509  0.87583731  1
  Mn  Mn121  1  0.24948069  0.83269819  0.62395573  1
  Mn  Mn122  1  0.00036424  0.66755768  0.50083303  1
  Mn  Mn123  1  0.74947733  -0.00173102  0.37533606  1
  Mn  Mn124  1  0.24930447  0.66462734  0.62540973  1
  Mn  Mn125  1  0.75005784  -0.00002294  0.62465531  1
  Mn  Mn126  1  0.24986012  0.00105318  0.12503816  1
  Mn  Mn127  1  0.24961379  0.83362391  0.37500023  1
  Mn  Mn128  1  0.25019876  0.66688567  0.12530927  1
  Mn  Mn129  1  0.24983181  0.83312745  0.87472572  1
  Mn  Mn130  1  0.75032599  0.16614811  0.87574494  1
  Mn  Mn131  1  0.50056559  0.16572620  0.74959796  1
  Mn  Mn132  1  0.49974612  0.50012274  0.00071862  1
  Mn  Mn133  1  0.74967349  0.83427274  0.87571385  1
  Mn  Mn134  1  -0.00053581  0.16759034  0.49896084  1
  Mn  Mn135  1  0.75000968  0.83213236  0.12442285  1
  Mn  Mn136  1  0.74953112  0.33316965  0.62542154  1
  Mn  Mn137  1  0.50025074  0.16559715  0.25102087  1
  Mn  Mn138  1  0.49953103  0.33285983  0.00009674  1
  Mn  Mn139  1  0.50009869  0.33270829  0.25073497  1
  Mn  Mn140  1  -0.00014065  0.00025105  0.49954659  1
  Mn  Mn141  1  0.24937697  0.00037437  0.87478294  1
  Mn  Mn142  1  0.00028016  0.83433514  0.24942935  1
  Mn  Mn143  1  0.75084293  0.49992385  0.12564962  1
  Fe  Fe144  1  0.75026185  -0.00102252  0.12520935  1
  Fe  Fe145  1  0.25005939  0.33340546  0.37469838  1
  Fe  Fe146  1  0.49960189  0.83265962  0.00035444  1
  Fe  Fe147  1  0.74979737  0.83355735  0.62475451  1
  Fe  Fe148  1  0.49989241  0.33334521  0.50037583  1
  Fe  Fe149  1  0.75022423  0.49936127  0.37510076  1
  Fe  Fe150  1  -0.00020941  0.33291391  0.74921911  1
  Fe  Fe151  1  0.50009441  0.83225694  0.25116701  1
  Fe  Fe152  1  0.24948967  0.66638679  0.37468881  1
  Fe  Fe153  1  0.00044180  0.83410552  0.49990892  1
  Fe  Fe154  1  0.49971305  -0.00040120  0.74932863  1
  Fe  Fe155  1  0.50022211  -0.00093844  0.49949519  1
  Fe  Fe156  1  0.75108025  0.83215157  0.37409668  1
  Fe  Fe157  1  0.24992117  0.00122637  0.37418844  1
  Fe  Fe158  1  0.25034441  0.49897796  0.62371263  1
  Fe  Fe159  1  0.50009839  0.50047611  0.74955033  1
  Fe  Fe160  1  0.00012040  0.16752064  0.24903343  1
  Fe  Fe161  1  0.75000734  0.16647842  0.62517937  1
  Fe  Fe162  1  0.75031465  0.66785692  0.87494109  1
  Fe  Fe163  1  0.24995854  0.16791084  0.37511606  1
  Fe  Fe164  1  -0.00004397  0.83414494  0.75000681  1
  Fe  Fe165  1  0.00070514  0.33356498  0.49961363  1
  Fe  Fe166  1  0.24965683  0.83411377  0.12580379  1
  Fe  Fe167  1  0.75075058  0.66586706  0.12625726  1
  Fe  Fe168  1  0.24986784  0.33403307  0.12545343  1
  Fe  Fe169  1  0.25020884  0.49950869  0.37463574  1
  Fe  Fe170  1  0.24984262  0.33335915  0.62387452  1
  Fe  Fe171  1  0.24998168  0.49951010  0.87505362  1
  Fe  Fe172  1  0.74995056  0.16539233  0.12511843  1
  Fe  Fe173  1  0.00029946  0.49997573  0.49993455  1
  Fe  Fe174  1  0.50013462  0.66702814  0.25088266  1
  Fe  Fe175  1  0.50054848  0.66692098  0.50003850  1
  Fe  Fe176  1  0.00062007  0.00048096  0.24958986  1
  Fe  Fe177  1  -0.00019374  0.33261605  -0.00042822  1
  Fe  Fe178  1  0.00035950  0.16653212  0.74976474  1
  Fe  Fe179  1  0.00022794  -0.00011026  0.74957981  1
  Fe  Fe180  1  0.50011395  0.83282280  0.49986350  1
  Fe  Fe181  1  0.49983988  0.16598898  0.50058562  1
  Fe  Fe182  1  0.24949831  0.16791167  0.12589584  1
  Fe  Fe183  1  0.74969808  0.33272176  0.12583773  1
  Fe  Fe184  1  0.74944705  0.00052381  0.87484461  1
  Fe  Fe185  1  0.75063056  0.66609235  0.37537548  1
  Fe  Fe186  1  0.24921470  0.16710968  0.62405198  1
  Fe  Fe187  1  0.00006985  0.66744032  0.25059626  1
  Fe  Fe188  1  0.25038138  0.50030120  0.12562168  1
  Fe  Fe189  1  -0.00041490  0.83463288  -0.00037069  1
  Fe  Fe190  1  -0.00009481  0.00026308  -0.00078999  1
  Fe  Fe191  1  -0.00015272  0.33405063  0.24987365  1
  P  P192  1  0.04173217  0.25139520  0.10289890  1
  P  P193  1  0.04142456  0.25107410  0.35097073  1
  P  P194  1  0.04211940  0.25111457  0.60230250  1
  P  P195  1  0.04152192  0.25014581  0.85114784  1
  P  P196  1  0.04250910  0.58390899  0.10404602  1
  P  P197  1  0.04181330  0.58464499  0.35310906  1
  P  P198  1  0.04255213  0.58205300  0.60240334  1
  P  P199  1  0.04290909  0.58325600  0.85349688  1
  P  P200  1  0.04132179  0.91776268  0.10143944  1
  P  P201  1  0.04275597  0.91838311  0.35215412  1
  P  P202  1  0.04220846  0.91599746  0.60279247  1
  P  P203  1  0.04153417  0.91732751  0.85194955  1
  P  P204  1  0.54264800  0.24920535  0.10362621  1
  P  P205  1  0.54253225  0.24941284  0.35498752  1
  P  P206  1  0.54123871  0.25000507  0.60161067  1
  P  P207  1  0.54310883  0.24946191  0.85302747  1
  P  P208  1  0.54264948  0.58392977  0.10434750  1
  P  P209  1  0.54193519  0.58501226  0.35338291  1
  P  P210  1  0.54268870  0.58467592  0.60254196  1
  P  P211  1  0.54221543  0.58260012  0.85235793  1
  P  P212  1  0.54192064  0.91396512  0.10309498  1
  P  P213  1  0.54205695  0.91460088  0.35358218  1
  P  P214  1  0.54162605  0.91664277  0.60125952  1
  P  P215  1  0.54207486  0.91740427  0.85217933  1
  P  P216  1  0.45665205  0.08217320  0.14740968  1
  P  P217  1  0.45873734  0.08240706  0.39885130  1
  P  P218  1  0.45816322  0.08154695  0.64614583  1
  P  P219  1  0.45651499  0.08237042  0.89620660  1
  P  P220  1  0.45658976  0.41651671  0.14764240  1
  P  P221  1  0.45755668  0.41555161  0.39811103  1
  P  P222  1  0.45841352  0.41784259  0.64691263  1
  P  P223  1  0.45706710  0.41707640  0.89655772  1
  P  P224  1  0.45839642  0.74992976  0.14895017  1
  P  P225  1  0.45883992  0.74969773  0.39806249  1
  P  P226  1  0.45688560  0.75004282  0.64541232  1
  P  P227  1  0.45706965  0.75133101  0.89758835  1
  P  P228  1  0.95910564  0.08313534  0.14775990  1
  P  P229  1  0.95747508  0.08382714  0.39545591  1
  P  P230  1  0.95876943  0.08327835  0.64820743  1
  P  P231  1  0.95804944  0.08230472  0.89650960  1
  P  P232  1  0.95758985  0.41539050  0.14738742  1
  P  P233  1  0.95919212  0.41646626  0.39806053  1
  P  P234  1  0.95816626  0.41534171  0.64667085  1
  P  P235  1  0.95779045  0.41470417  0.89746407  1
  P  P236  1  0.95781014  0.74965645  0.14756875  1
  P  P237  1  0.95846333  0.75178293  0.39746383  1
  P  P238  1  0.95811234  0.75178363  0.64751552  1
  P  P239  1  0.95787534  0.75246107  0.89725998  1
  P  P240  1  0.20788920  0.08565347  0.22836578  1
  P  P241  1  0.20839208  0.08461533  0.47601144  1
  P  P242  1  0.20722555  0.08507094  0.72656870  1
  P  P243  1  0.20671389  0.08437526  0.97844470  1
  P  P244  1  0.20878300  0.41741825  0.22732556  1
  P  P245  1  0.20900847  0.41628684  0.47639787  1
  P  P246  1  0.20859580  0.41679576  0.72566474  1
  P  P247  1  0.20771930  0.41794195  0.97811003  1
  P  P248  1  0.20777923  0.75135107  0.22794858  1
  P  P249  1  0.20754725  0.74800872  0.47702004  1
  P  P250  1  0.20674518  0.74915450  0.72794905  1
  P  P251  1  0.20716901  0.75006314  0.97899097  1
  P  P252  1  0.70830054  0.08191079  0.22656768  1
  P  P253  1  0.70738652  0.08282426  0.47843162  1
  P  P254  1  0.70750685  0.08443084  0.72745770  1
  P  P255  1  0.70789361  0.08155645  0.97867674  1
  P  P256  1  0.70823823  0.41546524  0.22827341  1
  P  P257  1  0.70809525  0.41747899  0.47761245  1
  P  P258  1  0.70721287  0.41752744  0.72878161  1
  P  P259  1  0.70754152  0.41645520  0.97954576  1
  P  P260  1  0.70867316  0.74782172  0.22856611  1
  P  P261  1  0.70919356  0.75031916  0.47646890  1
  P  P262  1  0.70773166  0.75184921  0.72751972  1
  P  P263  1  0.70769084  0.74867118  0.97797968  1
  P  P264  1  0.29110232  0.25061375  0.02395425  1
  P  P265  1  0.29126734  0.25045823  0.27308466  1
  P  P266  1  0.29091459  0.24982088  0.52237895  1
  P  P267  1  0.29234308  0.25039940  0.77029645  1
  P  P268  1  0.29237385  0.58169741  0.02277188  1
  P  P269  1  0.29127139  0.58309020  0.27337790  1
  P  P270  1  0.29187385  0.58125777  0.52122867  1
  P  P271  1  0.29203111  0.58100766  0.77223916  1
  P  P272  1  0.29189979  0.91582852  0.02291834  1
  P  P273  1  0.29185783  0.91835875  0.27243675  1
  P  P274  1  0.29196367  0.91719863  0.52049193  1
  P  P275  1  0.29238574  0.91696225  0.77114001  1
  P  P276  1  0.79176684  0.24925508  0.02428407  1
  P  P277  1  0.79263823  0.24911854  0.27080444  1
  P  P278  1  0.79249356  0.24851365  0.52283084  1
  P  P279  1  0.79271291  0.24958209  0.77188606  1
  P  P280  1  0.79278057  0.58532279  0.02287074  1
  P  P281  1  0.79221913  0.58266510  0.27392160  1
  P  P282  1  0.79322182  0.58362915  0.52098209  1
  P  P283  1  0.79285253  0.58562670  0.77306546  1
  P  P284  1  0.79202319  0.91776518  0.02229456  1
  P  P285  1  0.79220152  0.91499648  0.27176537  1
  P  P286  1  0.79249046  0.91471904  0.52209668  1
  P  P287  1  0.79181164  0.91847198  0.77245295  1
  O  O288  1  0.03638845  0.25136597  0.18274624  1
  O  O289  1  0.03680581  0.25100154  0.43095352  1
  O  O290  1  0.03689844  0.25080797  0.68215228  1
  O  O291  1  0.03667502  0.25004651  0.93114357  1
  O  O292  1  0.03703842  0.58437328  0.18403664  1
  O  O293  1  0.03666075  0.58384174  0.43307343  1
  O  O294  1  0.03777073  0.58190283  0.68236948  1
  O  O295  1  0.03759831  0.58323211  0.93344262  1
  O  O296  1  0.03636192  0.91805477  0.18141994  1
  O  O297  1  0.03781810  0.91767954  0.43208111  1
  O  O298  1  0.03681787  0.91633118  0.68269475  1
  O  O299  1  0.03619609  0.91745792  0.93187097  1
  O  O300  1  0.53784608  0.24909549  0.18369204  1
  O  O301  1  0.53708714  0.24963039  0.43491146  1
  O  O302  1  0.53672866  0.24975102  0.68162756  1
  O  O303  1  0.53781570  0.24941548  0.93298383  1
  O  O304  1  0.53736240  0.58441441  0.18431289  1
  O  O305  1  0.53692576  0.58538210  0.43335845  1
  O  O306  1  0.53735322  0.58392196  0.68247393  1
  O  O307  1  0.53713508  0.58305061  0.93237575  1
  O  O308  1  0.53688202  0.91375312  0.18310096  1
  O  O309  1  0.53676143  0.91497362  0.43347404  1
  O  O310  1  0.53649676  0.91736202  0.68121387  1
  O  O311  1  0.53687795  0.91645063  0.93212800  1
  O  O312  1  0.46132201  0.08214748  0.06738637  1
  O  O313  1  0.46325629  0.08256177  0.31885472  1
  O  O314  1  0.46380031  0.08180665  0.56626741  1
  O  O315  1  0.46199475  0.08202343  0.81623757  1
  O  O316  1  0.46155641  0.41655556  0.06766026  1
  O  O317  1  0.46235697  0.41575042  0.31814606  1
  O  O318  1  0.46395899  0.41703121  0.56697797  1
  O  O319  1  0.46246222  0.41766901  0.81658321  1
  O  O320  1  0.46326626  0.75031756  0.06893126  1
  O  O321  1  0.46398397  0.74962309  0.31810782  1
  O  O322  1  0.46252692  0.74982725  0.56552328  1
  O  O323  1  0.46165877  0.75102626  0.81757840  1
  O  O324  1  0.96394405  0.08301026  0.06775349  1
  O  O325  1  0.96285160  0.08374639  0.31559849  1
  O  O326  1  0.96334064  0.08364649  0.56817938  1
  O  O327  1  0.96346268  0.08251974  0.81665535  1
  O  O328  1  0.96251805  0.41533776  0.06744469  1
  O  O329  1  0.96392535  0.41651203  0.31805401  1
  O  O330  1  0.96378633  0.41599927  0.56678662  1
  O  O331  1  0.96312560  0.41466688  0.81748822  1
  O  O332  1  0.96260365  0.74997824  0.06763081  1
  O  O333  1  0.96381962  0.75099265  0.31752232  1
  O  O334  1  0.96343022  0.75179916  0.56754802  1
  O  O335  1  0.96334371  0.75260028  0.81731637  1
  O  O336  1  0.21196653  0.08456628  0.05842059  1
  O  O337  1  0.21350638  0.08517587  0.30822596  1
  O  O338  1  0.21314295  0.08485918  0.55601873  1
  O  O339  1  0.21209554  0.08469804  0.80655408  1
  O  O340  1  0.21300875  0.41768175  0.05795883  1
  O  O341  1  0.21390508  0.41715325  0.30718384  1
  O  O342  1  0.21385440  0.41601778  0.55626919  1
  O  O343  1  0.21312706  0.41674234  0.80565545  1
  O  O344  1  0.21258307  0.75073155  0.05897918  1
  O  O345  1  0.21300990  0.75068755  0.30789067  1
  O  O346  1  0.21234196  0.74786912  0.55700447  1
  O  O347  1  0.21195702  0.74932461  0.80793441  1
  O  O348  1  0.71342425  0.08154899  0.05857968  1
  O  O349  1  0.71322839  0.08169093  0.30658286  1
  O  O350  1  0.71262684  0.08348122  0.55836526  1
  O  O351  1  0.71255358  0.08384961  0.80743893  1
  O  O352  1  0.71300502  0.41593043  0.05953093  1
  O  O353  1  0.71350561  0.41600248  0.30825265  1
  O  O354  1  0.71307103  0.41746440  0.55760599  1
  O  O355  1  0.71223938  0.41749742  0.80877927  1
  O  O356  1  0.71292851  0.74833383  0.05791835  1
  O  O357  1  0.71453411  0.74827149  0.30840599  1
  O  O358  1  0.71377417  0.75104130  0.55647911  1
  O  O359  1  0.71277290  0.75128708  0.80747978  1
  O  O360  1  0.28628034  0.25059096  0.19320828  1
  O  O361  1  0.28622221  0.24992287  0.44246754  1
  O  O362  1  0.28718858  0.25024505  0.69039130  1
  O  O363  1  0.28634144  0.25102133  0.94394352  1
  O  O364  1  0.28660442  0.58334956  0.19339842  1
  O  O365  1  0.28631946  0.58187490  0.44136977  1
  O  O366  1  0.28683388  0.58082750  0.69225892  1
  O  O367  1  0.28693051  0.58154437  0.94284003  1
  O  O368  1  0.28659857  0.91772947  0.19247052  1
  O  O369  1  0.28650596  0.91782269  0.44056757  1
  O  O370  1  0.28738823  0.91695980  0.69111416  1
  O  O371  1  0.28682247  0.91592746  0.94292441  1
  O  O372  1  0.78701319  0.24930608  0.19093740  1
  O  O373  1  0.78757116  0.24878650  0.44281179  1
  O  O374  1  0.78740981  0.24911748  0.69194339  1
  O  O375  1  0.78661694  0.24934753  0.94426452  1
  O  O376  1  0.78744152  0.58299833  0.19390319  1
  O  O377  1  0.78772918  0.58306501  0.44106913  1
  O  O378  1  0.78791378  0.58539524  0.69302594  1
  O  O379  1  0.78744693  0.58571442  0.94293227  1
  O  O380  1  0.78686579  0.91559773  0.19183400  1
  O  O381  1  0.78746470  0.91429054  0.44210366  1
  O  O382  1  0.78681336  0.91768017  0.69253168  1
  O  O383  1  0.78660414  0.91834628  0.94238290  1
  O  O384  1  0.22691400  0.25023429  0.05979094  1
  O  O385  1  0.22713603  0.24989654  0.30920116  1
  O  O386  1  0.22678383  0.24952338  0.55839849  1
  O  O387  1  0.22807527  0.25088540  0.80597629  1
  O  O388  1  0.22820997  0.58192186  0.05876517  1
  O  O389  1  0.22704485  0.58228835  0.30904066  1
  O  O390  1  0.22776566  0.58041879  0.55746775  1
  O  O391  1  0.22775516  0.58099521  0.80804059  1
  O  O392  1  0.22756783  0.91605359  0.05840532  1
  O  O393  1  0.22761802  0.91846772  0.30803436  1
  O  O394  1  0.22775891  0.91719878  0.55609748  1
  O  O395  1  0.22791642  0.91675257  0.80614139  1
  O  O396  1  0.72762442  0.24869792  0.06026681  1
  O  O397  1  0.72851938  0.24953667  0.30675139  1
  O  O398  1  0.72806228  0.24806609  0.55814161  1
  O  O399  1  0.72843610  0.24965462  0.80732079  1
  O  O400  1  0.72858526  0.58477864  0.05878807  1
  O  O401  1  0.72802424  0.58245124  0.30980130  1
  O  O402  1  0.72900442  0.58397416  0.55672216  1
  O  O403  1  0.72843272  0.58585696  0.80840114  1
  O  O404  1  0.72784559  0.91727876  0.05817650  1
  O  O405  1  0.72802008  0.91404392  0.30769024  1
  O  O406  1  0.72812939  0.91518296  0.55758842  1
  O  O407  1  0.72755491  0.91860808  0.80823945  1
  O  O408  1  0.27189518  0.08587536  0.19195342  1
  O  O409  1  0.27265152  0.08498053  0.44032421  1
  O  O410  1  0.27160482  0.08565794  0.69118948  1
  O  O411  1  0.27105053  0.08406734  0.94308650  1
  O  O412  1  0.27274930  0.41765455  0.19088065  1
  O  O413  1  0.27307829  0.41685278  0.44023532  1
  O  O414  1  0.27280514  0.41703534  0.68985340  1
  O  O415  1  0.27189879  0.41824589  0.94188072  1
  O  O416  1  0.27203090  0.75179895  0.19224188  1
  O  O417  1  0.27190705  0.74860391  0.44183525  1
  O  O418  1  0.27110359  0.74890940  0.69271280  1
  O  O419  1  0.27141251  0.74947054  0.94347875  1
  O  O420  1  0.77254135  0.08262908  0.19083782  1
  O  O421  1  0.77170482  0.08210457  0.44312018  1
  O  O422  1  0.77188632  0.08485219  0.69192028  1
  O  O423  1  0.77202377  0.08116999  0.94241360  1
  O  O424  1  0.77243492  0.41505797  0.19251064  1
  O  O425  1  0.77249004  0.41789439  0.44226057  1
  O  O426  1  0.77167832  0.41682057  0.69381918  1
  O  O427  1  0.77179930  0.41704817  0.94402387  1
  O  O428  1  0.77265813  0.74807218  0.19203520  1
  O  O429  1  0.77341331  0.75004673  0.44066603  1
  O  O430  1  0.77212528  0.75244594  0.69200018  1
  O  O431  1  0.77195236  0.74917865  0.94217428  1
  O  O432  1  0.02317835  0.08304726  0.18383941  1
  O  O433  1  0.02167240  0.08392166  0.43124447  1
  O  O434  1  0.02296048  0.08253608  0.68388891  1
  O  O435  1  0.02212880  0.08215152  0.93278206  1
  O  O436  1  0.02196284  0.41580876  0.18283605  1
  O  O437  1  0.02338004  0.41603252  0.43387907  1
  O  O438  1  0.02232068  0.41469671  0.68285739  1
  O  O439  1  0.02205608  0.41459618  0.93324893  1
  O  O440  1  0.02216258  0.74965391  0.18303433  1
  O  O441  1  0.02260502  0.75203185  0.43349919  1
  O  O442  1  0.02233160  0.75173183  0.68325755  1
  O  O443  1  0.02200340  0.75264249  0.93329581  1
  O  O444  1  0.52124927  0.08187201  0.18207227  1
  O  O445  1  0.52295772  0.08233259  0.43432528  1
  O  O446  1  0.52221121  0.08101106  0.68262116  1
  O  O447  1  0.52080708  0.08222331  0.93174386  1
  O  O448  1  0.52110163  0.41687244  0.18247978  1
  O  O449  1  0.52199435  0.41529498  0.43326116  1
  O  O450  1  0.52251442  0.41853133  0.68302164  1
  O  O451  1  0.52138305  0.41660850  0.93202306  1
  O  O452  1  0.52263500  0.74955057  0.18481966  1
  O  O453  1  0.52293878  0.74998293  0.43432669  1
  O  O454  1  0.52101679  0.75011710  0.68130647  1
  O  O455  1  0.52160251  0.75159734  0.93269060  1
  O  O456  1  0.47807242  0.24927761  0.06889953  1
  O  O457  1  0.47824028  0.24923751  0.31939338  1
  O  O458  1  0.47697916  0.25060369  0.56609050  1
  O  O459  1  0.47878354  0.24953740  0.81775051  1
  O  O460  1  0.47833380  0.58400182  0.06897015  1
  O  O461  1  0.47762069  0.58513730  0.31783481  1
  O  O462  1  0.47842998  0.58484571  0.56685072  1
  O  O463  1  0.47784671  0.58186772  0.81682853  1
  O  O464  1  0.47757706  0.91391203  0.06750440  1
  O  O465  1  0.47784886  0.91418522  0.31765397  1
  O  O466  1  0.47751742  0.91618839  0.56516867  1
  O  O467  1  0.47776815  0.91822177  0.81639081  1
  O  O468  1  0.97765945  0.25123578  0.06656415  1
  O  O469  1  0.97725771  0.25116419  0.31515995  1
  O  O470  1  0.97796808  0.25212444  0.56616029  1
  O  O471  1  0.97738112  0.25045327  0.81518954  1
  O  O472  1  0.97831795  0.58366803  0.06842807  1
  O  O473  1  0.97765366  0.58473899  0.31726005  1
  O  O474  1  0.97820826  0.58263238  0.56712638  1
  O  O475  1  0.97860396  0.58318578  0.81816792  1
  O  O476  1  0.97718344  0.91776538  0.06531280  1
  O  O477  1  0.97843650  0.91869538  0.31660604  1
  O  O478  1  0.97803145  0.91568952  0.56670322  1
  O  O479  1  0.97751351  0.91755761  0.81541429  1
  O  O480  1  0.07249654  0.31484297  0.07400353  1
  O  O481  1  0.07260176  0.31458577  0.32291589  1
  O  O482  1  0.07362579  0.31411595  0.57340228  1
  O  O483  1  0.07286916  0.31338647  0.82276949  1
  O  O484  1  0.07391980  0.64702313  0.07562322  1
  O  O485  1  0.07222156  0.64856034  0.32491085  1
  O  O486  1  0.07406797  0.64552176  0.57486973  1
  O  O487  1  0.07380509  0.64689453  0.82557208  1
  O  O488  1  0.07252342  0.98106118  0.07301188  1
  O  O489  1  0.07341975  0.98201700  0.32369777  1
  O  O490  1  0.07328927  0.97959307  0.57456086  1
  O  O491  1  0.07273509  0.98071623  0.82340254  1
  O  O492  1  0.57353710  0.31279808  0.07559644  1
  O  O493  1  0.57373646  0.31274456  0.32642236  1
  O  O494  1  0.57257449  0.31349058  0.57381850  1
  O  O495  1  0.57425805  0.31291457  0.82496945  1
  O  O496  1  0.57397468  0.64700989  0.07556931  1
  O  O497  1  0.57302329  0.64810906  0.32448691  1
  O  O498  1  0.57333401  0.64842693  0.57427297  1
  O  O499  1  0.57269872  0.64659410  0.82450070  1
  O  O500  1  0.57270413  0.97783297  0.07533714  1
  O  O501  1  0.57296764  0.97823862  0.32523019  1
  O  O502  1  0.57265136  0.97997164  0.57256209  1
  O  O503  1  0.57299997  0.98094793  0.82395248  1
  O  O504  1  0.42569587  0.01865305  0.17563107  1
  O  O505  1  0.42778346  0.01868447  0.42656054  1
  O  O506  1  0.42693041  0.01826103  0.67465269  1
  O  O507  1  0.42503915  0.01934506  0.92483154  1
  O  O508  1  0.42588199  0.35291508  0.17589705  1
  O  O509  1  0.42675561  0.35211239  0.42674295  1
  O  O510  1  0.42730628  0.35427511  0.67486565  1
  O  O511  1  0.42595986  0.35330447  0.92424859  1
  O  O512  1  0.42747196  0.68621040  0.17706793  1
  O  O513  1  0.42808919  0.68599560  0.42650661  1
  O  O514  1  0.42556399  0.68679151  0.67401823  1
  O  O515  1  0.42634822  0.68759572  0.92575212  1
  O  O516  1  0.92782020  0.01984725  0.17612658  1
  O  O517  1  0.92627679  0.02052540  0.42417082  1
  O  O518  1  0.92731145  0.01989034  0.67595450  1
  O  O519  1  0.92699961  0.01906842  0.92537869  1
  O  O520  1  0.92698376  0.35200435  0.17633681  1
  O  O521  1  0.92772755  0.35322537  0.42625289  1
  O  O522  1  0.92690199  0.35201732  0.67506162  1
  O  O523  1  0.92681422  0.35133262  0.92604109  1
  O  O524  1  0.92750795  0.68600631  0.17669073  1
  O  O525  1  0.92714187  0.68849159  0.42570880  1
  O  O526  1  0.92715580  0.68788174  0.67510359  1
  O  O527  1  0.92697657  0.68857197  0.92477158  1
  O  O528  1  0.17663031  0.02219918  0.20020065  1
  O  O529  1  0.17817326  0.02052419  0.44781862  1
  O  O530  1  0.17659973  0.02129670  0.69849778  1
  O  O531  1  0.17573351  0.02080219  0.95021966  1
  O  O532  1  0.17830527  0.35359025  0.19859255  1
  O  O533  1  0.17867631  0.35241726  0.44755824  1
  O  O534  1  0.17840221  0.35284487  0.69694110  1
  O  O535  1  0.17684027  0.35433089  0.94957045  1
  O  O536  1  0.17667940  0.68785752  0.19992819  1
  O  O537  1  0.17739143  0.68423555  0.44820351  1
  O  O538  1  0.17561793  0.68558022  0.70024220  1
  O  O539  1  0.17596626  0.68636058  0.95146606  1
  O  O540  1  0.67802474  0.01783146  0.19862111  1
  O  O541  1  0.67621410  0.01917308  0.45069530  1
  O  O542  1  0.67655780  0.02092714  0.69914705  1
  O  O543  1  0.67667707  0.01844086  0.94971207  1
  O  O544  1  0.67728606  0.35191889  0.19997695  1
  O  O545  1  0.67738316  0.35360635  0.44997553  1
  O  O546  1  0.67576758  0.35429713  0.70055133  1
  O  O547  1  0.67644966  0.35314454  0.95111283  1
  O  O548  1  0.67805974  0.68408524  0.20031240  1
  O  O549  1  0.67868976  0.68620903  0.44875377  1
  O  O550  1  0.67687464  0.68835683  0.69901213  1
  O  O551  1  0.67694690  0.68547034  0.94885541  1
  O  O552  1  0.32140716  0.31451432  0.05244320  1
  O  O553  1  0.32152994  0.31437257  0.30184687  1
  O  O554  1  0.32132410  0.31368499  0.55103156  1
  O  O555  1  0.32372245  0.31364858  0.79885726  1
  O  O556  1  0.32346268  0.64552087  0.05032765  1
  O  O557  1  0.32103857  0.64739065  0.30196911  1
  O  O558  1  0.32263040  0.64488490  0.54970247  1
  O  O559  1  0.32285552  0.64492005  0.79994858  1
  O  O560  1  0.32319785  0.97939095  0.05049623  1
  O  O561  1  0.32233192  0.98223998  0.30059760  1
  O  O562  1  0.32341685  0.98033312  0.54883609  1
  O  O563  1  0.32297253  0.98066685  0.79938154  1
  O  O564  1  0.82208778  0.31323504  0.05228823  1
  O  O565  1  0.82424512  0.31217084  0.29943367  1
  O  O566  1  0.82313299  0.31238145  0.55062785  1
  O  O567  1  0.82368414  0.31322410  0.79985380  1
  O  O568  1  0.82351065  0.64861660  0.05191725  1
  O  O569  1  0.82302086  0.64623630  0.30234164  1
  O  O570  1  0.82445793  0.64718144  0.54891235  1
  O  O571  1  0.82352149  0.64930669  0.80121274  1
  O  O572  1  0.82298059  0.98085095  0.05149977  1
  O  O573  1  0.82296865  0.97863319  0.29998072  1
  O  O574  1  0.82369412  0.97847139  0.54957916  1
  O  O575  1  0.82228379  0.98230633  0.80059827  1
  O  O576  1  0.42593096  0.14565259  0.17591483  1
  O  O577  1  0.42820404  0.14617103  0.42742408  1
  O  O578  1  0.42725701  0.14536025  0.67400120  1
  O  O579  1  0.42566482  0.14617681  0.92405685  1
  O  O580  1  0.42546425  0.47989983  0.17587723  1
  O  O581  1  0.42679096  0.47938940  0.42569628  1
  O  O582  1  0.42756237  0.48152716  0.67488660  1
  O  O583  1  0.42600621  0.48023361  0.92536691  1
  O  O584  1  0.42759711  0.81337595  0.17767862  1
  O  O585  1  0.42760907  0.81316513  0.42626307  1
  O  O586  1  0.42558774  0.81348439  0.67344772  1
  O  O587  1  0.42646344  0.81481276  0.92629921  1
  O  O588  1  0.92882370  0.14726515  0.17584475  1
  O  O589  1  0.92624840  0.14716241  0.42403765  1
  O  O590  1  0.92882314  0.14738693  0.67667923  1
  O  O591  1  0.92699454  0.14590538  0.92478347  1
  O  O592  1  0.92641300  0.47897855  0.17538083  1
  O  O593  1  0.92915196  0.48060720  0.42650190  1
  O  O594  1  0.92714969  0.47887159  0.67517359  1
  O  O595  1  0.92684483  0.47849936  0.92521066  1
  O  O596  1  0.92651565  0.81314249  0.17543454  1
  O  O597  1  0.92791350  0.81564600  0.42544044  1
  O  O598  1  0.92712165  0.81501622  0.67628642  1
  O  O599  1  0.92678880  0.81570912  0.92595490  1
  O  O600  1  0.07296772  0.18787755  0.07481708  1
  O  O601  1  0.07167837  0.18716249  0.32232543  1
  O  O602  1  0.07248577  0.18719593  0.57391297  1
  O  O603  1  0.07167527  0.18600843  0.82279109  1
  O  O604  1  0.07350445  0.52013652  0.07640293  1
  O  O605  1  0.07327831  0.52139950  0.32488950  1
  O  O606  1  0.07259150  0.51832059  0.57327388  1
  O  O607  1  0.07406339  0.51978564  0.82555140  1
  O  O608  1  0.07164087  0.85362772  0.07354157  1
  O  O609  1  0.07393359  0.85504370  0.32375049  1
  O  O610  1  0.07316169  0.85263325  0.57402830  1
  O  O611  1  0.07229769  0.85357622  0.82369045  1
  O  O612  1  0.57350197  0.18568831  0.07539446  1
  O  O613  1  0.57378028  0.18599779  0.32664405  1
  O  O614  1  0.57125009  0.18583241  0.57337102  1
  O  O615  1  0.57415174  0.18596788  0.82496538  1
  O  O616  1  0.57356153  0.52020081  0.07654383  1
  O  O617  1  0.57262116  0.52093121  0.32601236  1
  O  O618  1  0.57412936  0.52144568  0.57421308  1
  O  O619  1  0.57327896  0.51927416  0.82403625  1
  O  O620  1  0.57284909  0.85074556  0.07416651  1
  O  O621  1  0.57313981  0.85132601  0.32489009  1
  O  O622  1  0.57248569  0.85273165  0.57365383  1
  O  O623  1  0.57289704  0.85387537  0.82366374  1
  O  O624  1  0.32216277  0.18702410  0.05187309  1
  O  O625  1  0.32282293  0.18733897  0.30170392  1
  O  O626  1  0.32212978  0.18649415  0.55093650  1
  O  O627  1  0.32327415  0.18699389  0.79908622  1
  O  O628  1  0.32329924  0.51853111  0.05176695  1
  O  O629  1  0.32301922  0.52002208  0.30149140  1
  O  O630  1  0.32325577  0.51797241  0.54958598  1
  O  O631  1  0.32294338  0.51777722  0.80109310  1
  O  O632  1  0.32235197  0.85221244  0.05168754  1
  O  O633  1  0.32334465  0.85509862  0.30058314  1
  O  O634  1  0.32279761  0.85330991  0.54805635  1
  O  O635  1  0.32362159  0.85356516  0.79923200  1
  O  O636  1  0.82297151  0.18557298  0.05187493  1
  O  O637  1  0.82354786  0.18545428  0.29891198  1
  O  O638  1  0.82340196  0.18503150  0.55118043  1
  O  O639  1  0.82400615  0.18641458  0.80056663  1
  O  O640  1  0.82407822  0.52157305  0.05032906  1
  O  O641  1  0.82298459  0.51878989  0.30180710  1
  O  O642  1  0.82440056  0.52046884  0.54995567  1
  O  O643  1  0.82374421  0.52193939  0.80103909  1
  O  O644  1  0.82317988  0.85387643  0.04948339  1
  O  O645  1  0.82342063  0.85153415  0.29986769  1
  O  O646  1  0.82303516  0.85149487  0.55151820  1
  O  O647  1  0.82309937  0.85521021  0.80091450  1
  O  O648  1  0.17692229  0.14914840  0.19994354  1
  O  O649  1  0.17695534  0.14786051  0.44764843  1
  O  O650  1  0.17626949  0.14846201  0.69808929  1
  O  O651  1  0.17564564  0.14777209  0.95007300  1
  O  O652  1  0.17749909  0.48084247  0.19911187  1
  O  O653  1  0.17749367  0.47946599  0.44794576  1
  O  O654  1  0.17734071  0.48002960  0.69715372  1
  O  O655  1  0.17672725  0.48125121  0.94928295  1
  O  O656  1  0.17701980  0.81509357  0.19977164  1
  O  O657  1  0.17605010  0.81149651  0.44951809  1
  O  O658  1  0.17591281  0.81265373  0.69952847  1
  O  O659  1  0.17597351  0.81324401  0.95030432  1
  O  O660  1  0.67704335  0.14540022  0.19873336  1
  O  O661  1  0.67641240  0.14603986  0.44963441  1
  O  O662  1  0.67670365  0.14798353  0.69900386  1
  O  O663  1  0.67698284  0.14537782  0.95080420  1
  O  O664  1  0.67711667  0.47906864  0.20038322  1
  O  O665  1  0.67709282  0.48083739  0.44904426  1
  O  O666  1  0.67678569  0.48131996  0.70058514  1
  O  O667  1  0.67634943  0.48013795  0.95185627  1
  O  O668  1  0.67706469  0.81105436  0.20035342  1
  O  O669  1  0.67822237  0.81353928  0.44749251  1
  O  O670  1  0.67693574  0.81544792  0.69908424  1
  O  O671  1  0.67660492  0.81252738  0.95048985  1
