# generated using pymatgen
data_Na2MnFe(PO4)2
_symmetry_space_group_name_H-M   'P 1'
_cell_length_a   22.34359688
_cell_length_b   20.09241065
_cell_length_c   19.44937272
_cell_angle_alpha   89.95756090
_cell_angle_beta   90.04502146
_cell_angle_gamma   89.96990959
_symmetry_Int_Tables_number   1
_chemical_formula_structural   Na2MnFe(PO4)2
_chemical_formula_sum   'Na96 Mn48 Fe48 P96 O384'
_cell_volume   8731.53137110
_cell_formula_units_Z   48
loop_
 _symmetry_equiv_pos_site_id
 _symmetry_equiv_pos_as_xyz
  1  'x, y, z'
loop_
 _atom_site_type_symbol
 _atom_site_label
 _atom_site_symmetry_multiplicity
 _atom_site_fract_x
 _atom_site_fract_y
 _atom_site_fract_z
 _atom_site_occupancy
  Na  Na0  1  0.13995461  0.24900526  0.24395668  1
  Na  Na1  1  0.13958410  0.25087614  0.49315525  1
  Na  Na2  1  0.14049390  0.25106702  0.74320592  1
  Na  Na3  1  0.14052495  0.25056867  0.99383819  1
  Na  Na4  1  0.13995037  0.58316096  0.24357561  1
  Na  Na5  1  0.14019144  0.58372855  0.49368083  1
  Na  Na6  1  0.13998623  0.58287503  0.74439966  1
  Na  Na7  1  0.13973956  0.58457202  0.99433975  1
  Na  Na8  1  0.14077313  0.91622266  0.24402725  1
  Na  Na9  1  0.14053040  0.91831512  0.49378849  1
  Na  Na10  1  0.14019379  0.91929058  0.74411552  1
  Na  Na11  1  0.14034292  0.91918622  0.99387683  1
  Na  Na12  1  0.64032710  0.24867540  0.24267067  1
  Na  Na13  1  0.63989164  0.24881876  0.49298126  1
  Na  Na14  1  0.64025989  0.24916545  0.74459879  1
  Na  Na15  1  0.64037340  0.25078457  0.99420589  1
  Na  Na16  1  0.63983747  0.58175352  0.24289034  1
  Na  Na17  1  0.64013794  0.58285502  0.49313660  1
  Na  Na18  1  0.63980197  0.58252978  0.74447032  1
  Na  Na19  1  0.63991752  0.58355668  0.99317666  1
  Na  Na20  1  0.64037473  0.91661513  0.24319313  1
  Na  Na21  1  0.64001392  0.91601948  0.49259283  1
  Na  Na22  1  0.64039571  0.91628119  0.74440244  1
  Na  Na23  1  0.64079593  0.91695528  0.99377903  1
  Na  Na24  1  0.36021356  0.08424225  0.00611479  1
  Na  Na25  1  0.36066620  0.08172995  0.25681517  1
  Na  Na26  1  0.36038175  0.08397540  0.50561905  1
  Na  Na27  1  0.36012210  0.08381962  0.75618256  1
  Na  Na28  1  0.35982100  0.41833651  0.00650984  1
  Na  Na29  1  0.36001140  0.41608781  0.25621130  1
  Na  Na30  1  0.35929152  0.41576236  0.50576491  1
  Na  Na31  1  0.35978163  0.41657147  0.75614913  1
  Na  Na32  1  0.35974327  0.75108945  0.00662762  1
  Na  Na33  1  0.35947174  0.74841529  0.25659671  1
  Na  Na34  1  0.35993341  0.74934787  0.50685085  1
  Na  Na35  1  0.35957394  0.74980046  0.75700597  1
  Na  Na36  1  0.86007018  0.08432981  0.00761412  1
  Na  Na37  1  0.86017694  0.08303238  0.25737184  1
  Na  Na38  1  0.86019312  0.08337699  0.50609652  1
  Na  Na39  1  0.85985049  0.08304565  0.75611697  1
  Na  Na40  1  0.85940153  0.41748849  0.00644064  1
  Na  Na41  1  0.85991509  0.41591146  0.25644686  1
  Na  Na42  1  0.86002271  0.41567329  0.50612950  1
  Na  Na43  1  0.85947235  0.41601640  0.75662050  1
  Na  Na44  1  0.85968125  0.74979852  0.00676824  1
  Na  Na45  1  0.85934805  0.74985446  0.25545093  1
  Na  Na46  1  0.85943597  0.75044220  0.50435065  1
  Na  Na47  1  0.85930672  0.74893902  0.75665618  1
  Na  Na48  1  0.11006149  0.08355328  0.11924902  1
  Na  Na49  1  0.10956841  0.08491271  0.36864799  1
  Na  Na50  1  0.10946390  0.08487540  0.61875046  1
  Na  Na51  1  0.11019270  0.08428872  0.86847161  1
  Na  Na52  1  0.10937497  0.41783464  0.11972349  1
  Na  Na53  1  0.10895253  0.41671917  0.36830131  1
  Na  Na54  1  0.10945617  0.41660404  0.61908084  1
  Na  Na55  1  0.10944438  0.41742357  0.86819900  1
  Na  Na56  1  0.10956330  0.75018574  0.11892835  1
  Na  Na57  1  0.10970504  0.75078141  0.36778395  1
  Na  Na58  1  0.10898389  0.75111972  0.61897964  1
  Na  Na59  1  0.10876754  0.74994908  0.86941081  1
  Na  Na60  1  0.61034012  0.08356494  0.11840477  1
  Na  Na61  1  0.60993694  0.08286510  0.36748212  1
  Na  Na62  1  0.60934125  0.08204652  0.61841834  1
  Na  Na63  1  0.61039968  0.08404460  0.86975651  1
  Na  Na64  1  0.60906066  0.41633918  0.11785565  1
  Na  Na65  1  0.60954063  0.41433342  0.36832112  1
  Na  Na66  1  0.60945278  0.41541280  0.61804168  1
  Na  Na67  1  0.60944215  0.41776996  0.86934450  1
  Na  Na68  1  0.60933869  0.74884102  0.11776599  1
  Na  Na69  1  0.60921271  0.74960206  0.36836405  1
  Na  Na70  1  0.60931464  0.74894996  0.61929913  1
  Na  Na71  1  0.60937589  0.75002578  0.86971506  1
  Na  Na72  1  0.39087511  0.24954524  0.13102496  1
  Na  Na73  1  0.39060060  0.24868294  0.38127943  1
  Na  Na74  1  0.39044284  0.24823679  0.63047206  1
  Na  Na75  1  0.39070197  0.25060320  0.88191637  1
  Na  Na76  1  0.39026665  0.58360902  0.13092075  1
  Na  Na77  1  0.39055227  0.58187634  0.38157387  1
  Na  Na78  1  0.39019451  0.58284600  0.63098201  1
  Na  Na79  1  0.39039517  0.58393580  0.88203066  1
  Na  Na80  1  0.39081912  0.91719275  0.13116324  1
  Na  Na81  1  0.39096258  0.91621307  0.38150920  1
  Na  Na82  1  0.39090841  0.91554721  0.63120646  1
  Na  Na83  1  0.39065284  0.91801455  0.88181602  1
  Na  Na84  1  0.89047635  0.25028898  0.13320273  1
  Na  Na85  1  0.89034892  0.24989829  0.38110173  1
  Na  Na86  1  0.89024189  0.25004107  0.63118990  1
  Na  Na87  1  0.89032600  0.24945680  0.88148026  1
  Na  Na88  1  0.89040264  0.58363998  0.13148604  1
  Na  Na89  1  0.89058552  0.58252498  0.37983483  1
  Na  Na90  1  0.89025976  0.58224240  0.63148848  1
  Na  Na91  1  0.88952118  0.58295741  0.88168116  1
  Na  Na92  1  0.89055047  0.91803234  0.13232255  1
  Na  Na93  1  0.89002661  0.91817577  0.38119148  1
  Na  Na94  1  0.89035647  0.91750317  0.62951936  1
  Na  Na95  1  0.89079506  0.91684202  0.88174155  1
  Mn  Mn96  1  0.00020870  0.83398761  0.00016007  1
  Mn  Mn97  1  0.75019956  0.16643175  0.37472163  1
  Mn  Mn98  1  0.50022931  0.33290296  0.75009643  1
  Mn  Mn99  1  0.74987816  0.83293660  0.62493602  1
  Mn  Mn100  1  0.50106958  0.16588235  0.75030319  1
  Mn  Mn101  1  0.25014703  0.33429659  0.87441520  1
  Mn  Mn102  1  0.00082438  0.16652688  0.00073970  1
  Mn  Mn103  1  0.24928949  0.66692699  0.87512935  1
  Mn  Mn104  1  0.49993870  0.33266045  0.24930780  1
  Mn  Mn105  1  0.75064496  0.00108020  0.87503617  1
  Mn  Mn106  1  0.49926211  0.83315072  0.24993263  1
  Mn  Mn107  1  0.75007182  0.49836193  0.62438585  1
  Mn  Mn108  1  -0.00029496  0.16677779  0.75005203  1
  Mn  Mn109  1  0.49964840  0.66555156  0.24936494  1
  Mn  Mn110  1  0.25035416  -0.00035797  0.37535614  1
  Mn  Mn111  1  -0.00098507  0.66623314  0.74930908  1
  Mn  Mn112  1  0.74983433  0.83321823  0.12467473  1
  Mn  Mn113  1  0.25078898  0.00192665  0.62388612  1
  Mn  Mn114  1  0.49981044  0.83271267  0.75037131  1
  Mn  Mn115  1  -0.00036622  0.33372721  0.00074655  1
  Mn  Mn116  1  0.74902176  0.16675733  0.62469778  1
  Mn  Mn117  1  -0.00013711  0.83461541  0.24964020  1
  Mn  Mn118  1  0.50009051  0.49901624  0.49985293  1
  Mn  Mn119  1  0.24991206  0.66620044  0.37591780  1
  Mn  Mn120  1  -0.00076470  0.50066720  0.00004024  1
  Mn  Mn121  1  0.74998076  0.49982177  0.12509542  1
  Mn  Mn122  1  0.25001140  0.33360806  0.62483813  1
  Mn  Mn123  1  0.74991166  -0.00024642  0.62505678  1
  Mn  Mn124  1  0.75003629  0.49832878  0.37411794  1
  Mn  Mn125  1  -0.00026215  0.83499572  0.49884865  1
  Mn  Mn126  1  0.75019598  0.33283802  0.87563612  1
  Mn  Mn127  1  -0.00059742  0.83453827  0.74972007  1
  Mn  Mn128  1  0.75075115  0.83291017  0.87535672  1
  Mn  Mn129  1  0.49928406  0.50063431  0.74918297  1
  Mn  Mn130  1  0.24925101  0.66614603  0.62569299  1
  Mn  Mn131  1  0.24991833  0.33295138  0.37527808  1
  Mn  Mn132  1  0.50023212  -0.00072530  0.49971240  1
  Mn  Mn133  1  0.74976310  0.66589854  0.62463752  1
  Mn  Mn134  1  0.50036325  0.00028080  0.00055463  1
  Mn  Mn135  1  0.24945230  0.83514941  0.87607981  1
  Mn  Mn136  1  -0.00010545  0.66670804  0.49952178  1
  Mn  Mn137  1  0.00027551  0.49916371  0.49980669  1
  Mn  Mn138  1  0.24940373  0.50094268  0.12567985  1
  Mn  Mn139  1  0.24994053  0.33345726  0.12488522  1
  Mn  Mn140  1  0.25015957  0.83359569  0.12488862  1
  Mn  Mn141  1  0.75026987  0.66661553  0.37436433  1
  Mn  Mn142  1  0.24997206  0.83428688  0.62576898  1
  Mn  Mn143  1  0.25088425  0.16583142  0.12415842  1
  Fe  Fe144  1  0.25071776  0.16734503  0.87472917  1
  Fe  Fe145  1  0.74973299  -0.00029244  0.37460317  1
  Fe  Fe146  1  0.00009159  0.16732140  0.49968463  1
  Fe  Fe147  1  0.25003449  0.50071209  0.87559806  1
  Fe  Fe148  1  0.50038700  0.83357969  -0.00014181  1
  Fe  Fe149  1  0.49987797  0.49944213  0.24944488  1
  Fe  Fe150  1  0.74946025  0.49957077  0.87517717  1
  Fe  Fe151  1  0.50012094  0.16562287  0.49943159  1
  Fe  Fe152  1  0.24982378  0.66695927  0.12544526  1
  Fe  Fe153  1  0.75024830  0.16714816  0.87606155  1
  Fe  Fe154  1  -0.00014621  0.00070473  0.00073030  1
  Fe  Fe155  1  0.74970310  0.33249459  0.37465932  1
  Fe  Fe156  1  -0.00009843  0.50022230  0.24996043  1
  Fe  Fe157  1  0.50060456  0.16639272  0.24976921  1
  Fe  Fe158  1  -0.00006454  0.33323556  0.74982300  1
  Fe  Fe159  1  0.00071671  0.00132964  0.25069427  1
  Fe  Fe160  1  -0.00059475  0.33326682  0.49979164  1
  Fe  Fe161  1  0.75070827  0.00024932  0.12511516  1
  Fe  Fe162  1  0.00009759  0.16698371  0.25104194  1
  Fe  Fe163  1  0.25042023  0.00016855  0.12530026  1
  Fe  Fe164  1  0.49940764  0.66664049  0.00011171  1
  Fe  Fe165  1  0.50019102  0.66565426  0.49996936  1
  Fe  Fe166  1  0.49965683  0.33361622  0.00048311  1
  Fe  Fe167  1  0.50021426  0.83227644  0.50075746  1
  Fe  Fe168  1  0.49984059  0.33203682  0.49894698  1
  Fe  Fe169  1  0.24973349  0.49980786  0.37488827  1
  Fe  Fe170  1  0.74971802  0.33247396  0.62554294  1
  Fe  Fe171  1  -0.00022274  0.49965439  0.75021921  1
  Fe  Fe172  1  0.75075054  0.16679675  0.12574831  1
  Fe  Fe173  1  -0.00036453  0.66674386  0.00008521  1
  Fe  Fe174  1  0.00001848  0.66723726  0.24950136  1
  Fe  Fe175  1  0.25017549  0.16640338  0.37444147  1
  Fe  Fe176  1  0.00061668  0.00136535  0.50002454  1
  Fe  Fe177  1  0.50028088  -0.00059735  0.75008130  1
  Fe  Fe178  1  0.74953670  0.66597753  0.87534379  1
  Fe  Fe179  1  0.49955411  0.66687118  0.75069082  1
  Fe  Fe180  1  0.24981675  0.16742549  0.62507073  1
  Fe  Fe181  1  0.24990985  0.50008733  0.62511966  1
  Fe  Fe182  1  0.49986420  0.50043602  -0.00037038  1
  Fe  Fe183  1  0.25042660  0.00178761  0.87428277  1
  Fe  Fe184  1  0.00016798  0.33335644  0.25049609  1
  Fe  Fe185  1  -0.00013827  0.00052910  0.74978477  1
  Fe  Fe186  1  0.50071514  -0.00020443  0.24995635  1
  Fe  Fe187  1  0.25042548  0.83278068  0.37499231  1
  Fe  Fe188  1  0.74970367  0.66641457  0.12487650  1
  Fe  Fe189  1  0.74997200  0.33317334  0.12468752  1
  Fe  Fe190  1  0.50037243  0.16659214  0.00006164  1
  Fe  Fe191  1  0.74944756  0.83316855  0.37411104  1
  P  P192  1  0.04289546  0.25036509  0.10455917  1
  P  P193  1  0.04122314  0.25047014  0.35256661  1
  P  P194  1  0.04106051  0.25070575  0.60168934  1
  P  P195  1  0.04241091  0.25119829  0.85226473  1
  P  P196  1  0.04167109  0.58500770  0.10327644  1
  P  P197  1  0.04126578  0.58356633  0.35115543  1
  P  P198  1  0.04239541  0.58265906  0.60332938  1
  P  P199  1  0.04148107  0.58250141  0.85260827  1
  P  P200  1  0.04222129  0.91871048  0.10313449  1
  P  P201  1  0.04236471  0.91924329  0.35272486  1
  P  P202  1  0.04239376  0.91895388  0.60246873  1
  P  P203  1  0.04205485  0.91870399  0.85292557  1
  P  P204  1  0.54121280  0.24950371  0.10181298  1
  P  P205  1  0.54214064  0.24823403  0.35251517  1
  P  P206  1  0.54142099  0.24883180  0.60096916  1
  P  P207  1  0.54277056  0.25009519  0.85440872  1
  P  P208  1  0.54141240  0.58273015  0.10151251  1
  P  P209  1  0.54209947  0.58131818  0.35230850  1
  P  P210  1  0.54231371  0.58399380  0.60255466  1
  P  P211  1  0.54124226  0.58456520  0.85329099  1
  P  P212  1  0.54253648  0.91562830  0.10276597  1
  P  P213  1  0.54231298  0.91717849  0.35245797  1
  P  P214  1  0.54237232  0.91484086  0.60277514  1
  P  P215  1  0.54237254  0.91743712  0.85301910  1
  P  P216  1  0.45942015  0.08354336  0.14824522  1
  P  P217  1  0.45842071  0.08390117  0.39649774  1
  P  P218  1  0.45817648  0.08161807  0.64732325  1
  P  P219  1  0.45837819  0.08435389  0.89761925  1
  P  P220  1  0.45794184  0.41783566  0.14641986  1
  P  P221  1  0.45773725  0.41465508  0.39689259  1
  P  P222  1  0.45729951  0.41559744  0.64606423  1
  P  P223  1  0.45860344  0.41710883  0.89851552  1
  P  P224  1  0.45722184  0.74978421  0.14591544  1
  P  P225  1  0.45858892  0.74923978  0.39874755  1
  P  P226  1  0.45764325  0.74807423  0.64725816  1
  P  P227  1  0.45822276  0.75038894  0.89847235  1
  P  P228  1  0.95897144  0.08380575  0.14907305  1
  P  P229  1  0.95885197  0.08408758  0.39787241  1
  P  P230  1  0.95785140  0.08261801  0.64676467  1
  P  P231  1  0.95795546  0.08236917  0.89779287  1
  P  P232  1  0.95845503  0.41676708  0.14892705  1
  P  P233  1  0.95792073  0.41507741  0.39657480  1
  P  P234  1  0.95829681  0.41613684  0.64828911  1
  P  P235  1  0.95726383  0.41657034  0.89628599  1
  P  P236  1  0.95794367  0.74944306  0.14707859  1
  P  P237  1  0.95753573  0.75036330  0.39560529  1
  P  P238  1  0.95650315  0.75084778  0.64632294  1
  P  P239  1  0.95729756  0.74908728  0.89778690  1
  P  P240  1  0.20848866  0.08207600  0.22775386  1
  P  P241  1  0.20791016  0.08542180  0.47731171  1
  P  P242  1  0.20821232  0.08543848  0.72778227  1
  P  P243  1  0.20890992  0.08402065  0.97650806  1
  P  P244  1  0.20723239  0.41654438  0.22883121  1
  P  P245  1  0.20752478  0.41820470  0.47767277  1
  P  P246  1  0.20802918  0.41830511  0.72772911  1
  P  P247  1  0.20736151  0.41852556  0.97748029  1
  P  P248  1  0.20785719  0.74894005  0.22804404  1
  P  P249  1  0.20736170  0.75143131  0.47773452  1
  P  P250  1  0.20657800  0.75059524  0.72859491  1
  P  P251  1  0.20698911  0.75063888  0.97894533  1
  P  P252  1  0.70937929  0.08269891  0.22690981  1
  P  P253  1  0.70767776  0.08211068  0.47679264  1
  P  P254  1  0.70684611  0.08359218  0.72864403  1
  P  P255  1  0.70867087  0.08507021  0.97896818  1
  P  P256  1  0.70744303  0.41427097  0.22722394  1
  P  P257  1  0.70775775  0.41420014  0.47735457  1
  P  P258  1  0.70736279  0.41483471  0.72781172  1
  P  P259  1  0.70792101  0.41750924  0.97791073  1
  P  P260  1  0.70733053  0.74900200  0.22723898  1
  P  P261  1  0.70724974  0.75079526  0.47671647  1
  P  P262  1  0.70727707  0.74890834  0.72880774  1
  P  P263  1  0.70802320  0.74854749  0.97792726  1
  P  P264  1  0.29301980  0.25033984  0.02106159  1
  P  P265  1  0.29256474  0.24838123  0.27238503  1
  P  P266  1  0.29178874  0.24874809  0.52199357  1
  P  P267  1  0.29266859  0.24919130  0.77210174  1
  P  P268  1  0.29192747  0.58499073  0.02259760  1
  P  P269  1  0.29230045  0.58230584  0.27270371  1
  P  P270  1  0.29186596  0.58180665  0.52244187  1
  P  P271  1  0.29223954  0.58191433  0.77260243  1
  P  P272  1  0.29232317  0.91911680  0.02231303  1
  P  P273  1  0.29276408  0.91489112  0.27259352  1
  P  P274  1  0.29322514  0.91674894  0.52144734  1
  P  P275  1  0.29258083  0.91874200  0.77283429  1
  P  P276  1  0.79189646  0.25003453  0.02375080  1
  P  P277  1  0.79196227  0.25096159  0.27178446  1
  P  P278  1  0.79183880  0.25125159  0.52226353  1
  P  P279  1  0.79221698  0.24874752  0.77272013  1
  P  P280  1  0.79168100  0.58466181  0.02197143  1
  P  P281  1  0.79245830  0.58283265  0.27104164  1
  P  P282  1  0.79308182  0.58250665  0.52141798  1
  P  P283  1  0.79104687  0.58237321  0.77354527  1
  P  P284  1  0.79269210  0.91806595  0.02290754  1
  P  P285  1  0.79122225  0.91666703  0.27271345  1
  P  P286  1  0.79207851  0.91652829  0.52053815  1
  P  P287  1  0.79330811  0.91657883  0.77210441  1
  O  O288  1  0.03761160  0.25043961  0.18445043  1
  O  O289  1  0.03620221  0.25022229  0.43245598  1
  O  O290  1  0.03619954  0.25068888  0.68163931  1
  O  O291  1  0.03757496  0.25074416  0.93223560  1
  O  O292  1  0.03637952  0.58495414  0.18315093  1
  O  O293  1  0.03668550  0.58308605  0.43117026  1
  O  O294  1  0.03690515  0.58202550  0.68323513  1
  O  O295  1  0.03649967  0.58314723  0.93258691  1
  O  O296  1  0.03701687  0.91892131  0.18307089  1
  O  O297  1  0.03704994  0.91928386  0.43263773  1
  O  O298  1  0.03697575  0.91879964  0.68241405  1
  O  O299  1  0.03678772  0.91850459  0.93291494  1
  O  O300  1  0.53645760  0.24935282  0.18179638  1
  O  O301  1  0.53676797  0.24841340  0.43235706  1
  O  O302  1  0.53663564  0.24913988  0.68097013  1
  O  O303  1  0.53734764  0.25022679  0.93426671  1
  O  O304  1  0.53637336  0.58224221  0.18149294  1
  O  O305  1  0.53708373  0.58189018  0.43224439  1
  O  O306  1  0.53703844  0.58400649  0.68248100  1
  O  O307  1  0.53565371  0.58418665  0.93316890  1
  O  O308  1  0.53695819  0.91629586  0.18265347  1
  O  O309  1  0.53747453  0.91681123  0.43236126  1
  O  O310  1  0.53696373  0.91560699  0.68268606  1
  O  O311  1  0.53722552  0.91677862  0.93297869  1
  O  O312  1  0.46429419  0.08392509  0.06828212  1
  O  O313  1  0.46403245  0.08368242  0.31666772  1
  O  O314  1  0.46329034  0.08207352  0.56736942  1
  O  O315  1  0.46365623  0.08338544  0.81775182  1
  O  O316  1  0.46340726  0.41792934  0.06655397  1
  O  O317  1  0.46276907  0.41509133  0.31694741  1
  O  O318  1  0.46264324  0.41497847  0.56613854  1
  O  O319  1  0.46326058  0.41681041  0.81851211  1
  O  O320  1  0.46261009  0.74995324  0.06605476  1
  O  O321  1  0.46343345  0.74927405  0.31873903  1
  O  O322  1  0.46304235  0.74826711  0.56741045  1
  O  O323  1  0.46317794  0.74989000  0.81849639  1
  O  O324  1  0.96357250  0.08376957  0.06909579  1
  O  O325  1  0.96397758  0.08413049  0.31797103  1
  O  O326  1  0.96339430  0.08314751  0.56692847  1
  O  O327  1  0.96287879  0.08244258  0.81782946  1
  O  O328  1  0.96295857  0.41719524  0.06892528  1
  O  O329  1  0.96344512  0.41527168  0.31675309  1
  O  O330  1  0.96322248  0.41597357  0.56827962  1
  O  O331  1  0.96260232  0.41645113  0.81639500  1
  O  O332  1  0.96324684  0.74945697  0.06714366  1
  O  O333  1  0.96310512  0.74995836  0.31566434  1
  O  O334  1  0.96181560  0.75096183  0.56635692  1
  O  O335  1  0.96224766  0.74956361  0.81781610  1
  O  O336  1  0.21390837  0.08317409  0.05649630  1
  O  O337  1  0.21360623  0.08279603  0.30765576  1
  O  O338  1  0.21300767  0.08568062  0.55726260  1
  O  O339  1  0.21373550  0.08508778  0.80767033  1
  O  O340  1  0.21244697  0.41795891  0.05747698  1
  O  O341  1  0.21254451  0.41673962  0.30875549  1
  O  O342  1  0.21292542  0.41826191  0.55764335  1
  O  O343  1  0.21328116  0.41836014  0.80767141  1
  O  O344  1  0.21249896  0.74998917  0.05889418  1
  O  O345  1  0.21326356  0.74950503  0.30800874  1
  O  O346  1  0.21232566  0.75110338  0.55771592  1
  O  O347  1  0.21160283  0.75059231  0.80859385  1
  O  O348  1  0.71443067  0.08456842  0.05884088  1
  O  O349  1  0.71393515  0.08240537  0.30693048  1
  O  O350  1  0.71208595  0.08241896  0.55680258  1
  O  O351  1  0.71207561  0.08429009  0.80860996  1
  O  O352  1  0.71325107  0.41700664  0.05778643  1
  O  O353  1  0.71261836  0.41390731  0.30719347  1
  O  O354  1  0.71281275  0.41413949  0.55734910  1
  O  O355  1  0.71261192  0.41564374  0.80774639  1
  O  O356  1  0.71307491  0.74848692  0.05790525  1
  O  O357  1  0.71281217  0.74994603  0.30714597  1
  O  O358  1  0.71236259  0.75039175  0.55670916  1
  O  O359  1  0.71270263  0.74849517  0.80877057  1
  O  O360  1  0.28747110  0.24878563  0.19239981  1
  O  O361  1  0.28650028  0.24861692  0.44205195  1
  O  O362  1  0.28732346  0.24925989  0.69212755  1
  O  O363  1  0.28777827  0.25026675  0.94111105  1
  O  O364  1  0.28693695  0.58354167  0.19277178  1
  O  O365  1  0.28657802  0.58178662  0.44248674  1
  O  O366  1  0.28692789  0.58178583  0.69262132  1
  O  O367  1  0.28660512  0.58416163  0.94267224  1
  O  O368  1  0.28750702  0.91548231  0.19266649  1
  O  O369  1  0.28796323  0.91595347  0.44150097  1
  O  O370  1  0.28777509  0.91855573  0.69283508  1
  O  O371  1  0.28702230  0.91980857  0.94239236  1
  O  O372  1  0.78697958  0.25100238  0.19189485  1
  O  O373  1  0.78668898  0.25134636  0.44229274  1
  O  O374  1  0.78674507  0.24940577  0.69281420  1
  O  O375  1  0.78700520  0.24928190  0.94376476  1
  O  O376  1  0.78705076  0.58332927  0.19110636  1
  O  O377  1  0.78819488  0.58231259  0.44143338  1
  O  O378  1  0.78629239  0.58213219  0.69351186  1
  O  O379  1  0.78613047  0.58443115  0.94206897  1
  O  O380  1  0.78628729  0.91733680  0.19270640  1
  O  O381  1  0.78642467  0.91664730  0.44059609  1
  O  O382  1  0.78803754  0.91645396  0.69213603  1
  O  O383  1  0.78773302  0.91791297  0.94295586  1
  O  O384  1  0.22870919  0.24992323  0.05641889  1
  O  O385  1  0.22820014  0.24847613  0.30776861  1
  O  O386  1  0.22759465  0.24885158  0.55790046  1
  O  O387  1  0.22840644  0.24938691  0.80778136  1
  O  O388  1  0.22767814  0.58576515  0.05837380  1
  O  O389  1  0.22801723  0.58193558  0.30840461  1
  O  O390  1  0.22759459  0.58180614  0.55814045  1
  O  O391  1  0.22790111  0.58177926  0.80819576  1
  O  O392  1  0.22811907  0.91888685  0.05817110  1
  O  O393  1  0.22850990  0.91468082  0.30836355  1
  O  O394  1  0.22886646  0.91769028  0.55667414  1
  O  O395  1  0.22814851  0.91913246  0.80799849  1
  O  O396  1  0.72766438  0.25035292  0.05945012  1
  O  O397  1  0.72773533  0.25058741  0.30753314  1
  O  O398  1  0.72749142  0.25161358  0.55785304  1
  O  O399  1  0.72804156  0.24828088  0.80869341  1
  O  O400  1  0.72756631  0.58453964  0.05814818  1
  O  O401  1  0.72822220  0.58261726  0.30646819  1
  O  O402  1  0.72855575  0.58220787  0.55618907  1
  O  O403  1  0.72685586  0.58240946  0.80936222  1
  O  O404  1  0.72831307  0.91811827  0.05815531  1
  O  O405  1  0.72707164  0.91630109  0.30865827  1
  O  O406  1  0.72794130  0.91642501  0.55648639  1
  O  O407  1  0.72894759  0.91669922  0.80723423  1
  O  O408  1  0.27281361  0.08166016  0.19213524  1
  O  O409  1  0.27222967  0.08510060  0.44178429  1
  O  O410  1  0.27238678  0.08607419  0.69168152  1
  O  O411  1  0.27311504  0.08435112  0.94066206  1
  O  O412  1  0.27151878  0.41679713  0.19343993  1
  O  O413  1  0.27175163  0.41811820  0.44183377  1
  O  O414  1  0.27221129  0.41800379  0.69187990  1
  O  O415  1  0.27177771  0.41868762  0.94218043  1
  O  O416  1  0.27202678  0.74867521  0.19210147  1
  O  O417  1  0.27181726  0.75113627  0.44250884  1
  O  O418  1  0.27107423  0.75004366  0.69377533  1
  O  O419  1  0.27122730  0.75080757  0.94344026  1
  O  O420  1  0.77362982  0.08252748  0.19140399  1
  O  O421  1  0.77214798  0.08192843  0.44184387  1
  O  O422  1  0.77118324  0.08365121  0.69336390  1
  O  O423  1  0.77269910  0.08543583  0.94252163  1
  O  O424  1  0.77180178  0.41446526  0.19178296  1
  O  O425  1  0.77208995  0.41436707  0.44186790  1
  O  O426  1  0.77169458  0.41411840  0.69211985  1
  O  O427  1  0.77205563  0.41785921  0.94198211  1
  O  O428  1  0.77157575  0.74847915  0.19141088  1
  O  O429  1  0.77158901  0.75149080  0.44124081  1
  O  O430  1  0.77154474  0.74913775  0.69330003  1
  O  O431  1  0.77226246  0.74827677  0.94233955  1
  O  O432  1  0.02324253  0.08379076  0.18476396  1
  O  O433  1  0.02286486  0.08427939  0.43430995  1
  O  O434  1  0.02190450  0.08240424  0.68325421  1
  O  O435  1  0.02233878  0.08215812  0.93338798  1
  O  O436  1  0.02269891  0.41637019  0.18447951  1
  O  O437  1  0.02202125  0.41458162  0.43291802  1
  O  O438  1  0.02247953  0.41633763  0.68433612  1
  O  O439  1  0.02147631  0.41696623  0.93206217  1
  O  O440  1  0.02213596  0.74982798  0.18296126  1
  O  O441  1  0.02174752  0.75063948  0.43130948  1
  O  O442  1  0.02083897  0.75058973  0.68166771  1
  O  O443  1  0.02163944  0.74904952  0.93333186  1
  O  O444  1  0.52363082  0.08356844  0.18413135  1
  O  O445  1  0.52249415  0.08403603  0.43286688  1
  O  O446  1  0.52247146  0.08104414  0.68310505  1
  O  O447  1  0.52260310  0.08477636  0.93355291  1
  O  O448  1  0.52203543  0.41782254  0.18274398  1
  O  O449  1  0.52199830  0.41446583  0.43261861  1
  O  O450  1  0.52156630  0.41645903  0.68162438  1
  O  O451  1  0.52276814  0.41762831  0.93432029  1
  O  O452  1  0.52139841  0.74961281  0.18175759  1
  O  O453  1  0.52278032  0.74916727  0.43467186  1
  O  O454  1  0.52179447  0.74810697  0.68350502  1
  O  O455  1  0.52233687  0.75051704  0.93463267  1
  O  O456  1  0.47709739  0.24891662  0.06586903  1
  O  O457  1  0.47799637  0.24791443  0.31635983  1
  O  O458  1  0.47724810  0.24820144  0.56503563  1
  O  O459  1  0.47863205  0.24953489  0.81841114  1
  O  O460  1  0.47721490  0.58267206  0.06555996  1
  O  O461  1  0.47774977  0.58102102  0.31667063  1
  O  O462  1  0.47804403  0.58381653  0.56672794  1
  O  O463  1  0.47719911  0.58481603  0.81679696  1
  O  O464  1  0.47835834  0.91511679  0.06673126  1
  O  O465  1  0.47795382  0.91783827  0.31695500  1
  O  O466  1  0.47817462  0.91462201  0.56678068  1
  O  O467  1  0.47812640  0.91782067  0.81714060  1
  O  O468  1  0.97857389  0.24977936  0.06894407  1
  O  O469  1  0.97721662  0.25084295  0.31617820  1
  O  O470  1  0.97694582  0.25094305  0.56551060  1
  O  O471  1  0.97801368  0.25141949  0.81686978  1
  O  O472  1  0.97747594  0.58521636  0.06714292  1
  O  O473  1  0.97707139  0.58390143  0.31549647  1
  O  O474  1  0.97814572  0.58276105  0.56771206  1
  O  O475  1  0.97719713  0.58192931  0.81693341  1
  O  O476  1  0.97797466  0.91854338  0.06727214  1
  O  O477  1  0.97810532  0.91931205  0.31692355  1
  O  O478  1  0.97820610  0.91927350  0.56646973  1
  O  O479  1  0.97777810  0.91901056  0.81707545  1
  O  O480  1  0.07366297  0.31390796  0.07593570  1
  O  O481  1  0.07271250  0.31371591  0.32427461  1
  O  O482  1  0.07230660  0.31408471  0.57347617  1
  O  O483  1  0.07317452  0.31468698  0.82378443  1
  O  O484  1  0.07253228  0.64830460  0.07422060  1
  O  O485  1  0.07245117  0.64712529  0.32338044  1
  O  O486  1  0.07335067  0.64645664  0.57561735  1
  O  O487  1  0.07257889  0.64598877  0.82442664  1
  O  O488  1  0.07297902  0.98206422  0.07424895  1
  O  O489  1  0.07343788  0.98257347  0.32426742  1
  O  O490  1  0.07356717  0.98225164  0.57398519  1
  O  O491  1  0.07313042  0.98190523  0.82419589  1
  O  O492  1  0.57110005  0.31387572  0.07366685  1
  O  O493  1  0.57309365  0.31181788  0.32419675  1
  O  O494  1  0.57158522  0.31281946  0.57250257  1
  O  O495  1  0.57357840  0.31367937  0.82580095  1
  O  O496  1  0.57172822  0.64685225  0.07354913  1
  O  O497  1  0.57314766  0.64482687  0.32404397  1
  O  O498  1  0.57308057  0.64735530  0.57370011  1
  O  O499  1  0.57213748  0.64810517  0.82495109  1
  O  O500  1  0.57363394  0.97920779  0.07479643  1
  O  O501  1  0.57311018  0.98070998  0.32375540  1
  O  O502  1  0.57376119  0.97807751  0.57446737  1
  O  O503  1  0.57308739  0.98115615  0.82488493  1
  O  O504  1  0.42914275  0.01937955  0.17633276  1
  O  O505  1  0.42707958  0.02044039  0.42453034  1
  O  O506  1  0.42745168  0.01801683  0.67579760  1
  O  O507  1  0.42729023  0.02099714  0.92617597  1
  O  O508  1  0.42675968  0.35412609  0.17419010  1
  O  O509  1  0.42716435  0.35089379  0.42529924  1
  O  O510  1  0.42645959  0.35220884  0.67476110  1
  O  O511  1  0.42844429  0.35309518  0.92707053  1
  O  O512  1  0.42603442  0.68639214  0.17440933  1
  O  O513  1  0.42778350  0.68538772  0.42649571  1
  O  O514  1  0.42687513  0.68465818  0.67621245  1
  O  O515  1  0.42729448  0.68686219  0.92692718  1
  O  O516  1  0.92789447  0.02037863  0.17746130  1
  O  O517  1  0.92793387  0.02049101  0.42617007  1
  O  O518  1  0.92678247  0.01925840  0.67524840  1
  O  O519  1  0.92694714  0.01922705  0.92679458  1
  O  O520  1  0.92734888  0.35325928  0.17684371  1
  O  O521  1  0.92672582  0.35194603  0.42551570  1
  O  O522  1  0.92749877  0.35248781  0.67656533  1
  O  O523  1  0.92627172  0.35312632  0.92496628  1
  O  O524  1  0.92717583  0.68607141  0.17583751  1
  O  O525  1  0.92626567  0.68707563  0.42392833  1
  O  O526  1  0.92531957  0.68730847  0.67420140  1
  O  O527  1  0.92678547  0.68537656  0.92609610  1
  O  O528  1  0.17797032  0.01825050  0.19954768  1
  O  O529  1  0.17696612  0.02157048  0.44978017  1
  O  O530  1  0.17742948  0.02180113  0.69938449  1
  O  O531  1  0.17803419  0.02064588  0.94771761  1
  O  O532  1  0.17652170  0.35283396  0.20073329  1
  O  O533  1  0.17663481  0.35427086  0.45020001  1
  O  O534  1  0.17701032  0.35448352  0.70001324  1
  O  O535  1  0.17633775  0.35501677  0.94934615  1
  O  O536  1  0.17720594  0.68523791  0.19982626  1
  O  O537  1  0.17608390  0.68787505  0.44997696  1
  O  O538  1  0.17534942  0.68723320  0.70043003  1
  O  O539  1  0.17554076  0.68763933  0.95033699  1
  O  O540  1  0.67800721  0.01957727  0.19833990  1
  O  O541  1  0.67688422  0.01874312  0.44810066  1
  O  O542  1  0.67610308  0.01978417  0.70080838  1
  O  O543  1  0.67747513  0.02150364  0.95091965  1
  O  O544  1  0.67647235  0.35118078  0.19809402  1
  O  O545  1  0.67691334  0.35094911  0.44836678  1
  O  O546  1  0.67646835  0.35120828  0.69971422  1
  O  O547  1  0.67676795  0.35400906  0.95001113  1
  O  O548  1  0.67652076  0.68526249  0.19933104  1
  O  O549  1  0.67667345  0.68684471  0.44899930  1
  O  O550  1  0.67613881  0.68565097  0.70020467  1
  O  O551  1  0.67682458  0.68548459  0.94907873  1
  O  O552  1  0.32360592  0.31407500  0.04929470  1
  O  O553  1  0.32372791  0.31187933  0.30032914  1
  O  O554  1  0.32261770  0.31271021  0.54948395  1
  O  O555  1  0.32379515  0.31294832  0.79973914  1
  O  O556  1  0.32288651  0.64851609  0.05073878  1
  O  O557  1  0.32363560  0.64551040  0.30124576  1
  O  O558  1  0.32264091  0.64573097  0.55012705  1
  O  O559  1  0.32294307  0.64590229  0.80022989  1
  O  O560  1  0.32327782  0.98220719  0.05163700  1
  O  O561  1  0.32393013  0.97834159  0.30069199  1
  O  O562  1  0.32448071  0.98046216  0.54885743  1
  O  O563  1  0.32339513  0.98225131  0.80121122  1
  O  O564  1  0.82270452  0.31404272  0.05114038  1
  O  O565  1  0.82260580  0.31428864  0.30095929  1
  O  O566  1  0.82305683  0.31415058  0.55140582  1
  O  O567  1  0.82328903  0.31221645  0.80097361  1
  O  O568  1  0.82245949  0.64802398  0.05091119  1
  O  O569  1  0.82387009  0.64595769  0.29934889  1
  O  O570  1  0.82376472  0.64616399  0.54954206  1
  O  O571  1  0.82189606  0.64607452  0.80148581  1
  O  O572  1  0.82343382  0.98152353  0.05147366  1
  O  O573  1  0.82201375  0.98016389  0.30145428  1
  O  O574  1  0.82324857  0.97995603  0.54891193  1
  O  O575  1  0.82436602  0.98007205  0.80006246  1
  O  O576  1  0.42806043  0.14677784  0.17660187  1
  O  O577  1  0.42742954  0.14725131  0.42527942  1
  O  O578  1  0.42727100  0.14523603  0.67540574  1
  O  O579  1  0.42756842  0.14801120  0.92569518  1
  O  O580  1  0.42703144  0.48112327  0.17543074  1
  O  O581  1  0.42644636  0.47801939  0.42497154  1
  O  O582  1  0.42594741  0.47912239  0.67384205  1
  O  O583  1  0.42717504  0.48056072  0.92617856  1
  O  O584  1  0.42598983  0.81309386  0.17445315  1
  O  O585  1  0.42804727  0.81309512  0.42687229  1
  O  O586  1  0.42628951  0.81153777  0.67545096  1
  O  O587  1  0.42757159  0.81439578  0.92614689  1
  O  O588  1  0.92858298  0.14766818  0.17768356  1
  O  O589  1  0.92784165  0.14772869  0.42625318  1
  O  O590  1  0.92674058  0.14624806  0.67495527  1
  O  O591  1  0.92730638  0.14630845  0.92575582  1
  O  O592  1  0.92819239  0.48079653  0.17722368  1
  O  O593  1  0.92702858  0.47886833  0.42454980  1
  O  O594  1  0.92747779  0.47989781  0.67644191  1
  O  O595  1  0.92579517  0.47976788  0.92480996  1
  O  O596  1  0.92663542  0.81319371  0.17452061  1
  O  O597  1  0.92644183  0.81409973  0.42316514  1
  O  O598  1  0.92562202  0.81436864  0.67452626  1
  O  O599  1  0.92623819  0.81268936  0.92574783  1
  O  O600  1  0.07443026  0.18718891  0.07602255  1
  O  O601  1  0.07164682  0.18657041  0.32388310  1
  O  O602  1  0.07145078  0.18674079  0.57332996  1
  O  O603  1  0.07323112  0.18751940  0.82418888  1
  O  O604  1  0.07272979  0.52127863  0.07538316  1
  O  O605  1  0.07147887  0.51952271  0.32277028  1
  O  O606  1  0.07375241  0.51955422  0.57469626  1
  O  O607  1  0.07225781  0.51884140  0.82431859  1
  O  O608  1  0.07331307  0.85490451  0.07568175  1
  O  O609  1  0.07328917  0.85546655  0.32493638  1
  O  O610  1  0.07328461  0.85513112  0.57464431  1
  O  O611  1  0.07276991  0.85471576  0.82520556  1
  O  O612  1  0.57289222  0.18638789  0.07370085  1
  O  O613  1  0.57337897  0.18499788  0.32372761  1
  O  O614  1  0.57266184  0.18520891  0.57335643  1
  O  O615  1  0.57439201  0.18697055  0.82598629  1
  O  O616  1  0.57279239  0.51954534  0.07303327  1
  O  O617  1  0.57271126  0.51764537  0.32381388  1
  O  O618  1  0.57352390  0.52033243  0.57479625  1
  O  O619  1  0.57237290  0.52100437  0.82513633  1
  O  O620  1  0.57348671  0.85213203  0.07448083  1
  O  O621  1  0.57311631  0.85354580  0.32429356  1
  O  O622  1  0.57286094  0.85095078  0.57467724  1
  O  O623  1  0.57351098  0.85396255  0.82487122  1
  O  O624  1  0.32455442  0.18715614  0.04938928  1
  O  O625  1  0.32313259  0.18460751  0.30055362  1
  O  O626  1  0.32295244  0.18563488  0.55086453  1
  O  O627  1  0.32358212  0.18588210  0.80095609  1
  O  O628  1  0.32282169  0.52136885  0.05090531  1
  O  O629  1  0.32296075  0.51842901  0.30058573  1
  O  O630  1  0.32296207  0.51852177  0.55108256  1
  O  O631  1  0.32333803  0.51875258  0.80159120  1
  O  O632  1  0.32334061  0.85514175  0.04956428  1
  O  O633  1  0.32347571  0.85116476  0.30093339  1
  O  O634  1  0.32406957  0.85349801  0.55052313  1
  O  O635  1  0.32335348  0.85497250  0.80095756  1
  O  O636  1  0.82272041  0.18665981  0.05297433  1
  O  O637  1  0.82326725  0.18734700  0.29985448  1
  O  O638  1  0.82235384  0.18704603  0.54981296  1
  O  O639  1  0.82317987  0.18522015  0.80107632  1
  O  O640  1  0.82313072  0.52106520  0.04982224  1
  O  O641  1  0.82342289  0.51901034  0.29874451  1
  O  O642  1  0.82421768  0.51912191  0.54990641  1
  O  O643  1  0.82165556  0.51851621  0.80178687  1
  O  O644  1  0.82368337  0.85429366  0.05061409  1
  O  O645  1  0.82201470  0.85267444  0.30030599  1
  O  O646  1  0.82346464  0.85315572  0.54880112  1
  O  O647  1  0.82433271  0.85307848  0.80035005  1
  O  O648  1  0.17727932  0.14538531  0.19923185  1
  O  O649  1  0.17703982  0.14868149  0.44823016  1
  O  O650  1  0.17686531  0.14873792  0.69922659  1
  O  O651  1  0.17810543  0.14798895  0.94872284  1
  O  O652  1  0.17574185  0.47976051  0.20051248  1
  O  O653  1  0.17649575  0.48141577  0.44874469  1
  O  O654  1  0.17711431  0.48158841  0.69893927  1
  O  O655  1  0.17673210  0.48231082  0.94942422  1
  O  O656  1  0.17649547  0.81235869  0.19996082  1
  O  O657  1  0.17699318  0.81511474  0.44902625  1
  O  O658  1  0.17591650  0.81437459  0.70055336  1
  O  O659  1  0.17603951  0.81456502  0.95144055  1
  O  O660  1  0.67921952  0.14691933  0.19865896  1
  O  O661  1  0.67696885  0.14591182  0.44867323  1
  O  O662  1  0.67538658  0.14662015  0.69975113  1
  O  O663  1  0.67765676  0.14856922  0.95052340  1
  O  O664  1  0.67651429  0.47820091  0.19964922  1
  O  O665  1  0.67672336  0.47803899  0.44956499  1
  O  O666  1  0.67643766  0.47835688  0.69927611  1
  O  O667  1  0.67712661  0.48111631  0.94942654  1
  O  O668  1  0.67618862  0.81246934  0.19891582  1
  O  O669  1  0.67621045  0.81410017  0.44811630  1
  O  O670  1  0.67622084  0.81263526  0.70098345  1
  O  O671  1  0.67733884  0.81268047  0.95041244  1
