# generated using pymatgen
data_Na2MnFe(PO4)2
_symmetry_space_group_name_H-M   'P 1'
_cell_length_a   22.34788530
_cell_length_b   20.09513240
_cell_length_c   19.44605654
_cell_angle_alpha   89.97179188
_cell_angle_beta   90.01421817
_cell_angle_gamma   90.01320665
_symmetry_Int_Tables_number   1
_chemical_formula_structural   Na2MnFe(PO4)2
_chemical_formula_sum   'Na96 Mn48 Fe48 P96 O384'
_cell_volume   8732.90573273
_cell_formula_units_Z   48
loop_
 _symmetry_equiv_pos_site_id
 _symmetry_equiv_pos_as_xyz
  1  'x, y, z'
loop_
 _atom_site_type_symbol
 _atom_site_label
 _atom_site_symmetry_multiplicity
 _atom_site_fract_x
 _atom_site_fract_y
 _atom_site_fract_z
 _atom_site_occupancy
  Na  Na0  1  0.14045285  0.25047361  0.24497037  1
  Na  Na1  1  0.14053780  0.25019861  0.49361477  1
  Na  Na2  1  0.14103421  0.25029480  0.74366453  1
  Na  Na3  1  0.14043361  0.24946986  0.99516269  1
  Na  Na4  1  0.13973043  0.58399611  0.24369855  1
  Na  Na5  1  0.14026498  0.58362923  0.49143972  1
  Na  Na6  1  0.13998665  0.58356000  0.74114790  1
  Na  Na7  1  0.14020602  0.58282995  0.99253096  1
  Na  Na8  1  0.14012610  0.91781568  0.24419285  1
  Na  Na9  1  0.14019722  0.91546015  0.49268964  1
  Na  Na10  1  0.14006143  0.91623214  0.74233096  1
  Na  Na11  1  0.13965696  0.91609209  0.99356875  1
  Na  Na12  1  0.64037087  0.24980996  0.24408296  1
  Na  Na13  1  0.64057979  0.24966385  0.49464181  1
  Na  Na14  1  0.64089447  0.25068910  0.74401473  1
  Na  Na15  1  0.64093564  0.25001948  0.99482001  1
  Na  Na16  1  0.64016250  0.58424725  0.24411351  1
  Na  Na17  1  0.64026056  0.58187296  0.49395808  1
  Na  Na18  1  0.64034987  0.58246024  0.74366549  1
  Na  Na19  1  0.64013197  0.58410126  0.99376420  1
  Na  Na20  1  0.64065766  0.91823705  0.24337101  1
  Na  Na21  1  0.64010418  0.91635026  0.49396776  1
  Na  Na22  1  0.63992464  0.91736621  0.74486378  1
  Na  Na23  1  0.64000372  0.91722972  0.99420559  1
  Na  Na24  1  0.35981126  0.08264801  0.00689110  1
  Na  Na25  1  0.35938990  0.08384669  0.25642151  1
  Na  Na26  1  0.35930093  0.08217787  0.50719012  1
  Na  Na27  1  0.35946064  0.08332773  0.75651016  1
  Na  Na28  1  0.35962409  0.41585479  0.00697387  1
  Na  Na29  1  0.35999467  0.41761908  0.25818870  1
  Na  Na30  1  0.35976117  0.41638202  0.50626966  1
  Na  Na31  1  0.35953350  0.41647570  0.75534930  1
  Na  Na32  1  0.35931980  0.75066198  0.00510463  1
  Na  Na33  1  0.35872447  0.75078061  0.25593261  1
  Na  Na34  1  0.35901191  0.74963690  0.50535841  1
  Na  Na35  1  0.35933548  0.74986465  0.75479766  1
  Na  Na36  1  0.85968956  0.08250397  0.00735304  1
  Na  Na37  1  0.86022726  0.08325514  0.25634751  1
  Na  Na38  1  0.85997355  0.08258382  0.50621124  1
  Na  Na39  1  0.85992765  0.08263120  0.75573960  1
  Na  Na40  1  0.86012710  0.41766971  0.00586404  1
  Na  Na41  1  0.86008924  0.41801505  0.25694831  1
  Na  Na42  1  0.86028235  0.41601326  0.50784994  1
  Na  Na43  1  0.86027518  0.41742745  0.75510541  1
  Na  Na44  1  0.85980860  0.75162713  0.00606060  1
  Na  Na45  1  0.85956009  0.75119983  0.25651519  1
  Na  Na46  1  0.86008141  0.74849238  0.50629205  1
  Na  Na47  1  0.85993549  0.74885970  0.75604689  1
  Na  Na48  1  0.10969227  0.08287586  0.11979294  1
  Na  Na49  1  0.10960242  0.08251731  0.36894328  1
  Na  Na50  1  0.10957661  0.08295207  0.61816322  1
  Na  Na51  1  0.10952036  0.08338268  0.86896768  1
  Na  Na52  1  0.10981978  0.41687072  0.11993014  1
  Na  Na53  1  0.10973502  0.41678093  0.36864366  1
  Na  Na54  1  0.10979204  0.41745896  0.61730663  1
  Na  Na55  1  0.10983595  0.41783871  0.86812773  1
  Na  Na56  1  0.10959001  0.74903459  0.11851024  1
  Na  Na57  1  0.10983625  0.74982669  0.36787205  1
  Na  Na58  1  0.10959872  0.74973038  0.61617710  1
  Na  Na59  1  0.10951002  0.75095658  0.86697258  1
  Na  Na60  1  0.60962366  0.08284007  0.11798676  1
  Na  Na61  1  0.60975554  0.08321479  0.36917880  1
  Na  Na62  1  0.60957356  0.08369295  0.61894626  1
  Na  Na63  1  0.60954263  0.08385254  0.87044203  1
  Na  Na64  1  0.60911144  0.41598847  0.11962996  1
  Na  Na65  1  0.60962163  0.41618166  0.37026845  1
  Na  Na66  1  0.60988942  0.41645537  0.61852451  1
  Na  Na67  1  0.60975660  0.41855806  0.86878132  1
  Na  Na68  1  0.60925691  0.75050480  0.11825832  1
  Na  Na69  1  0.60963971  0.74888953  0.36816470  1
  Na  Na70  1  0.60934575  0.74929004  0.61909084  1
  Na  Na71  1  0.60928617  0.75214075  0.86909841  1
  Na  Na72  1  0.39060039  0.24995357  0.13182826  1
  Na  Na73  1  0.39037642  0.25074012  0.38254128  1
  Na  Na74  1  0.38980456  0.24998562  0.63193337  1
  Na  Na75  1  0.39012375  0.25051165  0.88187562  1
  Na  Na76  1  0.39034167  0.58218323  0.13123059  1
  Na  Na77  1  0.38978217  0.58194539  0.38184480  1
  Na  Na78  1  0.38997510  0.58304570  0.62999651  1
  Na  Na79  1  0.39029315  0.58494784  0.88016329  1
  Na  Na80  1  0.38962069  0.91626308  0.13039899  1
  Na  Na81  1  0.38962281  0.91622001  0.38165383  1
  Na  Na82  1  0.39009643  0.91585495  0.63094985  1
  Na  Na83  1  0.39007966  0.91758652  0.88154460  1
  Na  Na84  1  0.89077168  0.24971908  0.13253106  1
  Na  Na85  1  0.89103031  0.24918643  0.38225153  1
  Na  Na86  1  0.89054749  0.25044667  0.63183383  1
  Na  Na87  1  0.89080099  0.25108885  0.88074817  1
  Na  Na88  1  0.89089966  0.58320459  0.13080356  1
  Na  Na89  1  0.89091556  0.58344601  0.38197470  1
  Na  Na90  1  0.89068447  0.58297298  0.63043042  1
  Na  Na91  1  0.89105456  0.58406484  0.88012841  1
  Na  Na92  1  0.89019771  0.91599305  0.13223820  1
  Na  Na93  1  0.89031568  0.91639563  0.38149913  1
  Na  Na94  1  0.89056461  0.91542919  0.63057661  1
  Na  Na95  1  0.89037653  0.91675085  0.88158184  1
  Mn  Mn96  1  0.24984942  -0.00085994  0.62529300  1
  Mn  Mn97  1  0.25013264  0.66766782  0.12416341  1
  Mn  Mn98  1  0.49961358  -0.00030886  0.24954045  1
  Mn  Mn99  1  0.74927395  0.66520076  0.62638495  1
  Mn  Mn100  1  0.24904882  -0.00117184  0.87537734  1
  Mn  Mn101  1  0.25007631  0.16693292  0.37610787  1
  Mn  Mn102  1  0.49970107  0.83346635  0.50006976  1
  Mn  Mn103  1  0.75073122  -0.00013124  0.62543513  1
  Mn  Mn104  1  0.74943927  0.66688576  0.87518277  1
  Mn  Mn105  1  0.75077945  0.16670221  0.87510725  1
  Mn  Mn106  1  0.00071623  0.33480726  0.00106138  1
  Mn  Mn107  1  0.75057505  0.66871795  0.12412685  1
  Mn  Mn108  1  0.24982737  -0.00015442  0.12525233  1
  Mn  Mn109  1  0.50005399  0.83326957  0.24970471  1
  Mn  Mn110  1  0.49982878  0.66541436  0.49900264  1
  Mn  Mn111  1  0.75073313  0.16590568  0.37479912  1
  Mn  Mn112  1  0.24961237  0.50004977  0.62404152  1
  Mn  Mn113  1  0.00007741  0.83246343  0.25035654  1
  Mn  Mn114  1  0.00088704  0.33500487  0.75055528  1
  Mn  Mn115  1  0.49940088  0.16689725  0.25039819  1
  Mn  Mn116  1  0.74976331  0.50062527  0.37567098  1
  Mn  Mn117  1  0.49875131  0.66514849  0.24911546  1
  Mn  Mn118  1  0.49925694  0.50126073  0.74958235  1
  Mn  Mn119  1  0.24986470  0.33277963  0.12601127  1
  Mn  Mn120  1  0.50007449  0.33377725  0.00065872  1
  Mn  Mn121  1  0.49997795  0.33401736  0.75105758  1
  Mn  Mn122  1  0.50006225  0.83416444  0.74964382  1
  Mn  Mn123  1  0.49956321  0.16656565  0.50041344  1
  Mn  Mn124  1  0.25057110  0.49900359  0.87342999  1
  Mn  Mn125  1  0.74978150  0.83356119  0.37515318  1
  Mn  Mn126  1  0.74964474  0.83252643  0.62445250  1
  Mn  Mn127  1  -0.00007548  0.16603418  0.50065406  1
  Mn  Mn128  1  0.00047080  0.66648111  -0.00078161  1
  Mn  Mn129  1  -0.00052036  -0.00075254  0.00022546  1
  Mn  Mn130  1  0.75027184  0.33346054  0.12504894  1
  Mn  Mn131  1  0.25005862  0.16688794  0.87529911  1
  Mn  Mn132  1  0.75086018  0.33302610  0.37556879  1
  Mn  Mn133  1  -0.00002016  0.83329652  0.74885082  1
  Mn  Mn134  1  0.74950214  -0.00070749  0.87576093  1
  Mn  Mn135  1  0.00050696  0.16635307  0.75007809  1
  Mn  Mn136  1  0.50003223  0.66686188  0.00028905  1
  Mn  Mn137  1  -0.00024981  0.33342194  0.25055271  1
  Mn  Mn138  1  0.24975369  0.50009984  0.12490728  1
  Mn  Mn139  1  0.75097270  0.33418814  0.87443830  1
  Mn  Mn140  1  0.50029656  0.16621415  0.75056621  1
  Mn  Mn141  1  0.75013396  0.50107913  0.12562606  1
  Mn  Mn142  1  0.24949786  0.66720611  0.87350470  1
  Mn  Mn143  1  -0.00025818  0.16661057  0.00040966  1
  Fe  Fe144  1  0.00037916  0.33359974  0.49999522  1
  Fe  Fe145  1  0.50014078  0.33326956  0.50031996  1
  Fe  Fe146  1  0.75019394  0.33287952  0.62558534  1
  Fe  Fe147  1  0.24973200  0.00000354  0.37531456  1
  Fe  Fe148  1  0.74994558  0.00036598  0.37461135  1
  Fe  Fe149  1  0.00004777  0.83283317  0.49946543  1
  Fe  Fe150  1  0.00048477  0.66662646  0.74840682  1
  Fe  Fe151  1  -0.00019646  -0.00060045  0.49941739  1
  Fe  Fe152  1  0.74931074  0.83449860  0.12604272  1
  Fe  Fe153  1  0.00018375  -0.00098822  0.25036067  1
  Fe  Fe154  1  0.25002857  0.83276671  0.62347655  1
  Fe  Fe155  1  0.49979920  0.50009872  0.00043770  1
  Fe  Fe156  1  -0.00020298  0.49995411  0.25045009  1
  Fe  Fe157  1  0.24911137  0.83398288  0.12537646  1
  Fe  Fe158  1  0.24965683  0.66743764  0.37423969  1
  Fe  Fe159  1  0.24967501  0.83356792  0.37469923  1
  Fe  Fe160  1  0.50018878  -0.00000598  0.50021354  1
  Fe  Fe161  1  0.00021761  0.83283586  -0.00025679  1
  Fe  Fe162  1  0.49938676  0.00039796  -0.00001425  1
  Fe  Fe163  1  0.75012319  0.50004823  0.87499300  1
  Fe  Fe164  1  0.50036527  0.49931073  0.50031284  1
  Fe  Fe165  1  0.50031832  0.66731638  0.75018766  1
  Fe  Fe166  1  0.75017458  0.83363584  0.87565497  1
  Fe  Fe167  1  0.50007729  0.16695680  0.00038527  1
  Fe  Fe168  1  0.24987716  0.16661129  0.62527451  1
  Fe  Fe169  1  0.00030790  0.50043455  0.49943478  1
  Fe  Fe170  1  0.50003948  0.33321017  0.25071089  1
  Fe  Fe171  1  0.49921890  0.83398592  -0.00096804  1
  Fe  Fe172  1  0.25025655  0.33276829  0.87509233  1
  Fe  Fe173  1  0.75038176  0.49929534  0.62487953  1
  Fe  Fe174  1  0.24988259  0.66689324  0.62324991  1
  Fe  Fe175  1  0.00066353  0.16598262  0.25130819  1
  Fe  Fe176  1  0.50010949  0.49874119  0.25077948  1
  Fe  Fe177  1  0.00055476  0.50092108  -0.00032543  1
  Fe  Fe178  1  0.24995280  0.33319429  0.62472930  1
  Fe  Fe179  1  0.75029370  0.00035066  0.12506800  1
  Fe  Fe180  1  0.24989508  0.50049986  0.37534727  1
  Fe  Fe181  1  0.00018595  0.66617821  0.49921953  1
  Fe  Fe182  1  0.49946131  0.00048898  0.75078796  1
  Fe  Fe183  1  0.25053878  0.33328722  0.37533612  1
  Fe  Fe184  1  0.25021428  0.16667892  0.12573729  1
  Fe  Fe185  1  0.00036294  0.50119977  0.74855800  1
  Fe  Fe186  1  0.24957320  0.83268567  0.87387696  1
  Fe  Fe187  1  0.74999271  0.16619990  0.62509179  1
  Fe  Fe188  1  0.00001022  -0.00064497  0.74948367  1
  Fe  Fe189  1  -0.00030821  0.66606832  0.24971793  1
  Fe  Fe190  1  0.74996374  0.66695280  0.37522849  1
  Fe  Fe191  1  0.75087146  0.16661318  0.12513203  1
  P  P192  1  0.04254266  0.24968953  0.10448687  1
  P  P193  1  0.04196528  0.24908038  0.35355888  1
  P  P194  1  0.04227542  0.25130342  0.60245538  1
  P  P195  1  0.04324795  0.25060238  0.85337074  1
  P  P196  1  0.04276023  0.58219719  0.10275195  1
  P  P197  1  0.04111702  0.58329130  0.35200502  1
  P  P198  1  0.04187217  0.58343362  0.60095552  1
  P  P199  1  0.04209772  0.58391699  0.85047440  1
  P  P200  1  0.04189209  0.91488003  0.10291340  1
  P  P201  1  0.04185295  0.91713497  0.35324800  1
  P  P202  1  0.04117984  0.91654518  0.60114982  1
  P  P203  1  0.04232685  0.91739891  0.85196964  1
  P  P204  1  0.54231906  0.24903953  0.10323771  1
  P  P205  1  0.54203072  0.25139739  0.35337044  1
  P  P206  1  0.54199599  0.25091307  0.60280035  1
  P  P207  1  0.54293695  0.25003393  0.85416334  1
  P  P208  1  0.54211954  0.58131620  0.10302974  1
  P  P209  1  0.54181540  0.58111878  0.35264694  1
  P  P210  1  0.54223846  0.58231212  0.60263884  1
  P  P211  1  0.54229002  0.58525820  0.85280353  1
  P  P212  1  0.54099777  0.91658987  0.10100080  1
  P  P213  1  0.54277858  0.91692953  0.35348601  1
  P  P214  1  0.54210191  0.91821530  0.60303884  1
  P  P215  1  0.54149649  0.91865614  0.85350272  1
  P  P216  1  0.45716583  0.08334941  0.14603931  1
  P  P217  1  0.45718281  0.08216235  0.39799344  1
  P  P218  1  0.45749903  0.08184238  0.64755352  1
  P  P219  1  0.45821168  0.08369056  0.89851986  1
  P  P220  1  0.45814308  0.41623760  0.14888997  1
  P  P221  1  0.45877634  0.41639058  0.39826218  1
  P  P222  1  0.45740884  0.41659286  0.64620453  1
  P  P223  1  0.45739869  0.41859678  0.89803172  1
  P  P224  1  0.45685669  0.75011560  0.14591926  1
  P  P225  1  0.45687862  0.74950716  0.39650445  1
  P  P226  1  0.45779493  0.74879717  0.64729776  1
  P  P227  1  0.45769219  0.75129755  0.89684605  1
  P  P228  1  0.95907259  0.08272830  0.14925460  1
  P  P229  1  0.95809664  0.08176081  0.39689922  1
  P  P230  1  0.95812311  0.08147594  0.64709314  1
  P  P231  1  0.95709118  0.08293380  0.89667864  1
  P  P232  1  0.95780920  0.41841481  0.14776011  1
  P  P233  1  0.95867496  0.41711192  0.39838999  1
  P  P234  1  0.95870197  0.41850759  0.64636656  1
  P  P235  1  0.95853915  0.41916391  0.89714160  1
  P  P236  1  0.95788471  0.74833513  0.14731459  1
  P  P237  1  0.95892853  0.74943463  0.39792695  1
  P  P238  1  0.95806035  0.74842965  0.64594429  1
  P  P239  1  0.95803389  0.75107066  0.89666527  1
  P  P240  1  0.20802587  0.08454339  0.22841387  1
  P  P241  1  0.20776695  0.08195577  0.47822797  1
  P  P242  1  0.20761428  0.08426494  0.72741179  1
  P  P243  1  0.20707628  0.08322651  0.97881039  1
  P  P244  1  0.20776760  0.41702510  0.22955591  1
  P  P245  1  0.20892769  0.41625002  0.47664246  1
  P  P246  1  0.20786162  0.41501830  0.72693380  1
  P  P247  1  0.20792637  0.41513722  0.97705998  1
  P  P248  1  0.20761719  0.75164284  0.22793940  1
  P  P249  1  0.20841476  0.75000530  0.47630907  1
  P  P250  1  0.20808034  0.75014045  0.72505326  1
  P  P251  1  0.20704773  0.75134906  0.97676977  1
  P  P252  1  0.70854686  0.08345685  0.22660853  1
  P  P253  1  0.70802832  0.08224149  0.47784619  1
  P  P254  1  0.70758423  0.08419128  0.72766488  1
  P  P255  1  0.70790488  0.08331258  0.97934621  1
  P  P256  1  0.70728838  0.41709053  0.22856812  1
  P  P257  1  0.70813176  0.41601329  0.47954795  1
  P  P258  1  0.70869260  0.41693451  0.72685494  1
  P  P259  1  0.70787971  0.41785539  0.97744567  1
  P  P260  1  0.70734898  0.75173337  0.22789310  1
  P  P261  1  0.70732871  0.74825605  0.47761118  1
  P  P262  1  0.70687899  0.75013846  0.72901163  1
  P  P263  1  0.70749146  0.75229757  0.97807683  1
  P  P264  1  0.29248319  0.24880773  0.02294432  1
  P  P265  1  0.29273455  0.25089527  0.27315090  1
  P  P266  1  0.29113577  0.24991424  0.52339532  1
  P  P267  1  0.29243302  0.25118888  0.77189608  1
  P  P268  1  0.29275009  0.58342683  0.02118841  1
  P  P269  1  0.29089943  0.58406425  0.27339897  1
  P  P270  1  0.29139700  0.58457473  0.52078595  1
  P  P271  1  0.29240103  0.58380307  0.77008871  1
  P  P272  1  0.29140765  0.91484993  0.02208710  1
  P  P273  1  0.29113314  0.91697354  0.27325462  1
  P  P274  1  0.29177805  0.91514036  0.52140669  1
  P  P275  1  0.29177393  0.91490293  0.77183301  1
  P  P276  1  0.79341457  0.24912611  0.02281709  1
  P  P277  1  0.79335514  0.24964176  0.27161252  1
  P  P278  1  0.79191294  0.24931828  0.52385579  1
  P  P279  1  0.79318287  0.25016031  0.77073698  1
  P  P280  1  0.79278243  0.58387841  0.02128314  1
  P  P281  1  0.79247411  0.58551818  0.27287633  1
  P  P282  1  0.79207332  0.58221332  0.52264493  1
  P  P283  1  0.79208416  0.58162833  0.77239725  1
  P  P284  1  0.79162881  0.91635296  0.02385782  1
  P  P285  1  0.79202782  0.91850595  0.27201839  1
  P  P286  1  0.79277030  0.91654079  0.52125964  1
  P  P287  1  0.79248351  0.91526730  0.77293303  1
  O  O288  1  0.03709214  0.24912364  0.18448207  1
  O  O289  1  0.03642428  0.24970044  0.43350584  1
  O  O290  1  0.03756558  0.25135677  0.68243687  1
  O  O291  1  0.03798804  0.25060365  0.93335042  1
  O  O292  1  0.03733323  0.58239296  0.18259121  1
  O  O293  1  0.03587168  0.58321351  0.43189090  1
  O  O294  1  0.03713689  0.58381036  0.68084810  1
  O  O295  1  0.03713637  0.58375758  0.93043369  1
  O  O296  1  0.03665668  0.91538095  0.18286759  1
  O  O297  1  0.03654253  0.91696959  0.43310383  1
  O  O298  1  0.03631229  0.91668044  0.68115520  1
  O  O299  1  0.03719406  0.91645505  0.93192703  1
  O  O300  1  0.53700061  0.24962582  0.18320431  1
  O  O301  1  0.53666289  0.25141016  0.43334437  1
  O  O302  1  0.53722569  0.25061764  0.68278723  1
  O  O303  1  0.53774117  0.24962338  0.93413783  1
  O  O304  1  0.53670893  0.58091749  0.18297890  1
  O  O305  1  0.53674109  0.58109345  0.43262660  1
  O  O306  1  0.53697594  0.58362525  0.68257119  1
  O  O307  1  0.53728242  0.58453398  0.93274455  1
  O  O308  1  0.53629146  0.91641038  0.18102521  1
  O  O309  1  0.53781728  0.91739839  0.43348745  1
  O  O310  1  0.53660998  0.91839580  0.68300804  1
  O  O311  1  0.53569157  0.91809961  0.93335581  1
  O  O312  1  0.46253826  0.08355416  0.06611468  1
  O  O313  1  0.46208755  0.08277621  0.31799097  1
  O  O314  1  0.46278278  0.08188401  0.56758934  1
  O  O315  1  0.46320640  0.08326032  0.81849783  1
  O  O316  1  0.46319214  0.41673085  0.06891511  1
  O  O317  1  0.46394206  0.41614573  0.31832657  1
  O  O318  1  0.46288630  0.41619288  0.56628879  1
  O  O319  1  0.46230852  0.41829291  0.81805193  1
  O  O320  1  0.46229780  0.75077427  0.06594961  1
  O  O321  1  0.46172193  0.74952391  0.31651507  1
  O  O322  1  0.46302135  0.74893945  0.56734692  1
  O  O323  1  0.46340641  0.75069710  0.81693939  1
  O  O324  1  0.96370633  0.08278989  0.06921708  1
  O  O325  1  0.96395222  0.08223697  0.31705532  1
  O  O326  1  0.96344494  0.08145959  0.56711193  1
  O  O327  1  0.96232026  0.08245811  0.81671890  1
  O  O328  1  0.96317950  0.41859659  0.06782632  1
  O  O329  1  0.96331951  0.41712490  0.31837836  1
  O  O330  1  0.96416080  0.41786544  0.56648130  1
  O  O331  1  0.96390275  0.41925183  0.81717195  1
  O  O332  1  0.96320430  0.74899969  0.06739671  1
  O  O333  1  0.96337374  0.74896742  0.31792769  1
  O  O334  1  0.96335649  0.74867812  0.56607967  1
  O  O335  1  0.96296348  0.75092044  0.81673856  1
  O  O336  1  0.21232976  0.08340007  0.05879309  1
  O  O337  1  0.21343586  0.08381019  0.30837698  1
  O  O338  1  0.21300570  0.08235129  0.55815752  1
  O  O339  1  0.21275335  0.08396856  0.80738815  1
  O  O340  1  0.21295226  0.41579239  0.05708220  1
  O  O341  1  0.21317458  0.41702927  0.30945223  1
  O  O342  1  0.21364040  0.41619873  0.55663934  1
  O  O343  1  0.21318587  0.41477866  0.80688340  1
  O  O344  1  0.21210238  0.75124014  0.05674087  1
  O  O345  1  0.21320141  0.75120278  0.30782213  1
  O  O346  1  0.21381168  0.74967438  0.55619678  1
  O  O347  1  0.21283065  0.75029372  0.80505411  1
  O  O348  1  0.71349387  0.08336762  0.05923829  1
  O  O349  1  0.71347050  0.08284085  0.30664414  1
  O  O350  1  0.71340104  0.08303618  0.55778246  1
  O  O351  1  0.71269317  0.08391315  0.80764047  1
  O  O352  1  0.71295799  0.41752628  0.05741922  1
  O  O353  1  0.71243960  0.41694642  0.30855036  1
  O  O354  1  0.71355861  0.41583433  0.55948336  1
  O  O355  1  0.71383188  0.41750805  0.80686465  1
  O  O356  1  0.71271456  0.75275760  0.05805217  1
  O  O357  1  0.71246493  0.75076444  0.30785327  1
  O  O358  1  0.71213422  0.74813884  0.55762739  1
  O  O359  1  0.71218883  0.75074757  0.80896526  1
  O  O360  1  0.28750237  0.25000005  0.19324595  1
  O  O361  1  0.28621251  0.25063494  0.44341809  1
  O  O362  1  0.28678935  0.25066426  0.69201108  1
  O  O363  1  0.28757033  0.24955976  0.94296489  1
  O  O364  1  0.28623179  0.58374690  0.19336293  1
  O  O365  1  0.28592071  0.58457590  0.44089130  1
  O  O366  1  0.28702900  0.58413883  0.69011595  1
  O  O367  1  0.28769753  0.58324229  0.94118309  1
  O  O368  1  0.28585272  0.91686843  0.19326598  1
  O  O369  1  0.28625207  0.91584491  0.44153727  1
  O  O370  1  0.28660484  0.91507703  0.69184928  1
  O  O371  1  0.28621522  0.91469788  0.94212310  1
  O  O372  1  0.78826771  0.24930256  0.19166114  1
  O  O373  1  0.78724337  0.24931954  0.44378675  1
  O  O374  1  0.78741552  0.25005949  0.69081739  1
  O  O375  1  0.78844706  0.24953310  0.94277900  1
  O  O376  1  0.78761044  0.58562258  0.19288144  1
  O  O377  1  0.78693031  0.58326639  0.44270464  1
  O  O378  1  0.78659694  0.58111211  0.69244073  1
  O  O379  1  0.78734238  0.58311173  0.94135626  1
  O  O380  1  0.78659858  0.91829860  0.19210731  1
  O  O381  1  0.78751430  0.91720078  0.44130630  1
  O  O382  1  0.78753778  0.91557415  0.69294574  1
  O  O383  1  0.78657133  0.91574391  0.94385634  1
  O  O384  1  0.22817359  0.24836616  0.05853439  1
  O  O385  1  0.22844363  0.25139703  0.30881350  1
  O  O386  1  0.22701132  0.24919419  0.55931370  1
  O  O387  1  0.22831724  0.25153724  0.80817435  1
  O  O388  1  0.22832839  0.58373308  0.05623980  1
  O  O389  1  0.22671180  0.58424660  0.30904025  1
  O  O390  1  0.22734861  0.58467949  0.55702039  1
  O  O391  1  0.22815392  0.58317062  0.80557193  1
  O  O392  1  0.22720906  0.91535225  0.05794270  1
  O  O393  1  0.22707678  0.91687201  0.30947716  1
  O  O394  1  0.22768136  0.91482033  0.55762258  1
  O  O395  1  0.22745193  0.91455061  0.80745869  1
  O  O396  1  0.72901589  0.24852610  0.05816564  1
  O  O397  1  0.72900621  0.24973269  0.30683320  1
  O  O398  1  0.72769003  0.24919131  0.55956258  1
  O  O399  1  0.72908342  0.25040831  0.80674805  1
  O  O400  1  0.72851993  0.58439626  0.05678194  1
  O  O401  1  0.72801541  0.58538685  0.30805824  1
  O  O402  1  0.72781023  0.58125007  0.55827433  1
  O  O403  1  0.72789415  0.58173574  0.80831515  1
  O  O404  1  0.72741882  0.91705610  0.05980578  1
  O  O405  1  0.72789918  0.91843312  0.30816932  1
  O  O406  1  0.72847563  0.91672602  0.55665308  1
  O  O407  1  0.72806049  0.91487597  0.80826750  1
  O  O408  1  0.27211579  0.08455415  0.19229607  1
  O  O409  1  0.27197241  0.08196371  0.44245854  1
  O  O410  1  0.27186627  0.08443747  0.69177717  1
  O  O411  1  0.27134994  0.08269003  0.94338849  1
  O  O412  1  0.27192131  0.41681878  0.19372022  1
  O  O413  1  0.27307096  0.41595726  0.44081329  1
  O  O414  1  0.27202740  0.41552864  0.69107766  1
  O  O415  1  0.27229671  0.41481873  0.94156794  1
  O  O416  1  0.27165870  0.75212259  0.19155886  1
  O  O417  1  0.27234602  0.75021953  0.43974597  1
  O  O418  1  0.27234870  0.75045278  0.68931866  1
  O  O419  1  0.27138257  0.75134709  0.94110425  1
  O  O420  1  0.77280347  0.08349233  0.19076184  1
  O  O421  1  0.77227517  0.08136978  0.44198708  1
  O  O422  1  0.77197541  0.08477120  0.69226339  1
  O  O423  1  0.77202596  0.08266449  0.94342406  1
  O  O424  1  0.77174846  0.41706943  0.19362487  1
  O  O425  1  0.77230527  0.41682770  0.44375259  1
  O  O426  1  0.77281667  0.41660348  0.69081780  1
  O  O427  1  0.77229317  0.41851345  0.94205835  1
  O  O428  1  0.77173581  0.75263421  0.19245039  1
  O  O429  1  0.77176156  0.74852572  0.44239625  1
  O  O430  1  0.77119873  0.74963679  0.69362965  1
  O  O431  1  0.77173483  0.75179141  0.94231748  1
  O  O432  1  0.02324869  0.08241437  0.18503964  1
  O  O433  1  0.02210079  0.08175125  0.43336268  1
  O  O434  1  0.02233327  0.08122731  0.68300373  1
  O  O435  1  0.02140563  0.08286109  0.93204272  1
  O  O436  1  0.02200041  0.41815457  0.18367927  1
  O  O437  1  0.02293079  0.41750340  0.43408929  1
  O  O438  1  0.02281009  0.41918053  0.68254635  1
  O  O439  1  0.02273681  0.41906440  0.93313436  1
  O  O440  1  0.02206862  0.74793882  0.18328151  1
  O  O441  1  0.02313499  0.74982791  0.43353716  1
  O  O442  1  0.02223677  0.74861761  0.68200322  1
  O  O443  1  0.02232284  0.75125654  0.93238396  1
  O  O444  1  0.52139220  0.08353320  0.18175149  1
  O  O445  1  0.52161522  0.08214687  0.43325371  1
  O  O446  1  0.52178291  0.08154195  0.68332830  1
  O  O447  1  0.52228706  0.08382828  0.93466116  1
  O  O448  1  0.52233433  0.41592345  0.18494742  1
  O  O449  1  0.52277356  0.41645004  0.43475399  1
  O  O450  1  0.52156032  0.41720765  0.68208284  1
  O  O451  1  0.52182021  0.41850336  0.93333935  1
  O  O452  1  0.52112850  0.74923388  0.18142137  1
  O  O453  1  0.52133123  0.74961997  0.43141544  1
  O  O454  1  0.52201518  0.74899262  0.68307108  1
  O  O455  1  0.52175043  0.75173989  0.93312560  1
  O  O456  1  0.47813417  0.24886461  0.06729846  1
  O  O457  1  0.47779268  0.25161828  0.31755096  1
  O  O458  1  0.47763193  0.25088051  0.56749336  1
  O  O459  1  0.47855903  0.24997783  0.81893168  1
  O  O460  1  0.47788801  0.58184564  0.06719358  1
  O  O461  1  0.47748132  0.58086711  0.31704627  1
  O  O462  1  0.47800959  0.58152420  0.56686344  1
  O  O463  1  0.47797120  0.58580757  0.81711184  1
  O  O464  1  0.47675332  0.91670171  0.06536613  1
  O  O465  1  0.47827378  0.91652820  0.31855750  1
  O  O466  1  0.47791004  0.91822982  0.56704157  1
  O  O467  1  0.47750227  0.91865845  0.81695143  1
  O  O468  1  0.97837860  0.25058969  0.06875319  1
  O  O469  1  0.97792264  0.24855068  0.31745434  1
  O  O470  1  0.97792797  0.25093512  0.56718178  1
  O  O471  1  0.97895511  0.25062068  0.81800526  1
  O  O472  1  0.97861474  0.58224721  0.06650204  1
  O  O473  1  0.97713565  0.58345795  0.31543853  1
  O  O474  1  0.97768012  0.58251527  0.56506774  1
  O  O475  1  0.97793581  0.58397127  0.81434072  1
  O  O476  1  0.97767251  0.91449836  0.06704652  1
  O  O477  1  0.97775906  0.91721702  0.31706811  1
  O  O478  1  0.97707043  0.91657325  0.56520066  1
  O  O479  1  0.97799146  0.91780824  0.81633651  1
  O  O480  1  0.07400608  0.31325346  0.07690368  1
  O  O481  1  0.07314734  0.31258311  0.32556542  1
  O  O482  1  0.07253960  0.31500383  0.57353896  1
  O  O483  1  0.07435568  0.31408477  0.82537748  1
  O  O484  1  0.07395736  0.64566563  0.07432645  1
  O  O485  1  0.07210264  0.64688503  0.32365693  1
  O  O486  1  0.07188667  0.64738694  0.57179653  1
  O  O487  1  0.07261129  0.64786446  0.82223974  1
  O  O488  1  0.07311411  0.97842924  0.07506345  1
  O  O489  1  0.07280947  0.98051916  0.32441814  1
  O  O490  1  0.07256206  0.97980003  0.57287050  1
  O  O491  1  0.07309614  0.98109768  0.82381150  1
  O  O492  1  0.57360853  0.31254298  0.07526891  1
  O  O493  1  0.57320055  0.31454153  0.32460597  1
  O  O494  1  0.57267055  0.31445462  0.57430058  1
  O  O495  1  0.57374037  0.31387311  0.82629243  1
  O  O496  1  0.57345981  0.64504575  0.07565318  1
  O  O497  1  0.57243817  0.64502913  0.32461508  1
  O  O498  1  0.57343549  0.64559472  0.57403087  1
  O  O499  1  0.57298262  0.64895829  0.82450246  1
  O  O500  1  0.57173505  0.98047164  0.07320559  1
  O  O501  1  0.57368529  0.98024126  0.32456122  1
  O  O502  1  0.57317888  0.98141126  0.57427046  1
  O  O503  1  0.57248325  0.98222634  0.82530646  1
  O  O504  1  0.42610907  0.01970010  0.17415693  1
  O  O505  1  0.42662523  0.01853810  0.42634117  1
  O  O506  1  0.42622693  0.01875242  0.67632654  1
  O  O507  1  0.42716421  0.02012068  0.92680230  1
  O  O508  1  0.42745851  0.35237565  0.17691314  1
  O  O509  1  0.42783285  0.35280727  0.42682980  1
  O  O510  1  0.42649068  0.35323300  0.67511002  1
  O  O511  1  0.42636449  0.35500947  0.92605701  1
  O  O512  1  0.42546032  0.68650626  0.17350915  1
  O  O513  1  0.42594394  0.68590904  0.42446083  1
  O  O514  1  0.42720417  0.68518884  0.67568356  1
  O  O515  1  0.42639982  0.68792489  0.92493912  1
  O  O516  1  0.92817204  0.01890103  0.17705131  1
  O  O517  1  0.92715129  0.01826301  0.42533278  1
  O  O518  1  0.92699742  0.01817281  0.67557059  1
  O  O519  1  0.92572903  0.01982357  0.92550293  1
  O  O520  1  0.92660156  0.35474391  0.17549228  1
  O  O521  1  0.92863848  0.35290516  0.42685591  1
  O  O522  1  0.92772993  0.35497818  0.67482690  1
  O  O523  1  0.92747906  0.35538739  0.92486643  1
  O  O524  1  0.92712828  0.68468680  0.17558519  1
  O  O525  1  0.92823939  0.68586805  0.42674188  1
  O  O526  1  0.92746949  0.68485587  0.67483655  1
  O  O527  1  0.92694994  0.68748327  0.92461340  1
  O  O528  1  0.17651841  0.02127226  0.20035146  1
  O  O529  1  0.17726376  0.01828496  0.44962844  1
  O  O530  1  0.17659953  0.02055211  0.69977535  1
  O  O531  1  0.17575692  0.01977098  0.95071612  1
  O  O532  1  0.17636968  0.35367172  0.20129342  1
  O  O533  1  0.17756547  0.35297884  0.44842609  1
  O  O534  1  0.17711086  0.35168656  0.69796131  1
  O  O535  1  0.17724509  0.35137799  0.94922117  1
  O  O536  1  0.17669492  0.68801440  0.19966793  1
  O  O537  1  0.17739303  0.68647914  0.44782075  1
  O  O538  1  0.17786343  0.68609061  0.69667356  1
  O  O539  1  0.17619352  0.68754303  0.94873748  1
  O  O540  1  0.67743493  0.02012796  0.19800882  1
  O  O541  1  0.67691592  0.01888334  0.44953052  1
  O  O542  1  0.67699438  0.02025919  0.69996121  1
  O  O543  1  0.67630424  0.02004511  0.95113804  1
  O  O544  1  0.67627594  0.35367514  0.20027207  1
  O  O545  1  0.67742500  0.35235272  0.45114034  1
  O  O546  1  0.67788434  0.35298082  0.69915582  1
  O  O547  1  0.67737458  0.35392531  0.94951823  1
  O  O548  1  0.67653825  0.68831911  0.19914462  1
  O  O549  1  0.67688872  0.68465014  0.44889254  1
  O  O550  1  0.67583216  0.68636517  0.70141251  1
  O  O551  1  0.67625251  0.68850137  0.95080632  1
  O  O552  1  0.32359958  0.31224579  0.05129250  1
  O  O553  1  0.32349935  0.31456273  0.30136424  1
  O  O554  1  0.32171833  0.31359794  0.55196186  1
  O  O555  1  0.32341149  0.31461002  0.80048148  1
  O  O556  1  0.32378692  0.64696133  0.04918488  1
  O  O557  1  0.32204936  0.64772189  0.30095183  1
  O  O558  1  0.32247016  0.64791823  0.54947076  1
  O  O559  1  0.32333075  0.64718979  0.79859664  1
  O  O560  1  0.32273260  0.97848108  0.04969062  1
  O  O561  1  0.32172265  0.98092195  0.30128823  1
  O  O562  1  0.32300118  0.97840478  0.55005566  1
  O  O563  1  0.32240887  0.97878330  0.79990347  1
  O  O564  1  0.82406487  0.31305594  0.05052121  1
  O  O565  1  0.82439005  0.31322770  0.29973171  1
  O  O566  1  0.82257264  0.31311942  0.55190462  1
  O  O567  1  0.82453912  0.31361353  0.79888811  1
  O  O568  1  0.82387584  0.64771007  0.04867964  1
  O  O569  1  0.82294739  0.64909225  0.30166112  1
  O  O570  1  0.82287340  0.64572645  0.55120639  1
  O  O571  1  0.82299072  0.64563562  0.79960527  1
  O  O572  1  0.82279410  0.98005632  0.05157742  1
  O  O573  1  0.82276867  0.98198439  0.30067715  1
  O  O574  1  0.82436243  0.97939004  0.55006828  1
  O  O575  1  0.82308522  0.97909699  0.80095048  1
  O  O576  1  0.42580118  0.14641122  0.17488630  1
  O  O577  1  0.42614227  0.14577114  0.42596150  1
  O  O578  1  0.42686512  0.14582163  0.67533158  1
  O  O579  1  0.42754743  0.14754326  0.92646149  1
  O  O580  1  0.42725296  0.47974255  0.17739235  1
  O  O581  1  0.42784100  0.48003744  0.42647750  1
  O  O582  1  0.42578684  0.47994287  0.67402028  1
  O  O583  1  0.42692693  0.48232074  0.92628282  1
  O  O584  1  0.42599359  0.81344299  0.17457685  1
  O  O585  1  0.42591480  0.81288771  0.42489025  1
  O  O586  1  0.42664712  0.81250332  0.67474544  1
  O  O587  1  0.42679695  0.81500802  0.92476761  1
  O  O588  1  0.92857661  0.14653042  0.17748127  1
  O  O589  1  0.92667290  0.14512149  0.42514332  1
  O  O590  1  0.92745348  0.14548327  0.67463601  1
  O  O591  1  0.92627945  0.14666954  0.92467720  1
  O  O592  1  0.92695304  0.48171777  0.17661672  1
  O  O593  1  0.92727377  0.48035554  0.42652556  1
  O  O594  1  0.92757459  0.48190794  0.67476078  1
  O  O595  1  0.92775806  0.48256600  0.92575826  1
  O  O596  1  0.92673440  0.81170650  0.17563534  1
  O  O597  1  0.92806234  0.81319715  0.42591826  1
  O  O598  1  0.92656376  0.81173185  0.67413133  1
  O  O599  1  0.92746744  0.81457025  0.92564671  1
  O  O600  1  0.07339739  0.18626867  0.07602771  1
  O  O601  1  0.07295631  0.18542438  0.32563739  1
  O  O602  1  0.07357422  0.18771659  0.57500272  1
  O  O603  1  0.07420234  0.18705990  0.82526449  1
  O  O604  1  0.07358492  0.51881002  0.07382083  1
  O  O605  1  0.07192238  0.51955471  0.32381826  1
  O  O606  1  0.07355786  0.52035260  0.57252382  1
  O  O607  1  0.07313476  0.52053207  0.82203414  1
  O  O608  1  0.07244272  0.85123146  0.07437327  1
  O  O609  1  0.07302186  0.85361953  0.32517667  1
  O  O610  1  0.07142495  0.85240771  0.57299640  1
  O  O611  1  0.07339822  0.85414914  0.82317692  1
  O  O612  1  0.57299274  0.18545668  0.07485768  1
  O  O613  1  0.57282812  0.18744409  0.32577143  1
  O  O614  1  0.57304309  0.18730370  0.57488539  1
  O  O615  1  0.57424575  0.18694517  0.82544909  1
  O  O616  1  0.57271101  0.51792860  0.07402718  1
  O  O617  1  0.57299739  0.51784651  0.32434920  1
  O  O618  1  0.57301293  0.51853442  0.57480121  1
  O  O619  1  0.57317205  0.52173993  0.82441425  1
  O  O620  1  0.57172965  0.85293317  0.07279640  1
  O  O621  1  0.57381087  0.85336665  0.32542596  1
  O  O622  1  0.57299625  0.85421895  0.57568259  1
  O  O623  1  0.57289433  0.85532863  0.82523950  1
  O  O624  1  0.32295181  0.18504907  0.05138806  1
  O  O625  1  0.32382877  0.18752885  0.30164513  1
  O  O626  1  0.32213471  0.18611073  0.55109872  1
  O  O627  1  0.32359045  0.18763551  0.80016297  1
  O  O628  1  0.32357994  0.51996684  0.04973828  1
  O  O629  1  0.32131646  0.52025825  0.30210907  1
  O  O630  1  0.32259730  0.52094979  0.54862775  1
  O  O631  1  0.32380321  0.52032481  0.79788150  1
  O  O632  1  0.32199496  0.85150370  0.05117732  1
  O  O633  1  0.32236208  0.85352245  0.30131847  1
  O  O634  1  0.32276248  0.85154207  0.54959706  1
  O  O635  1  0.32281801  0.85157682  0.80027382  1
  O  O636  1  0.82432989  0.18568745  0.05123859  1
  O  O637  1  0.82446898  0.18638888  0.30030662  1
  O  O638  1  0.82269006  0.18550695  0.55171171  1
  O  O639  1  0.82444153  0.18684198  0.79911482  1
  O  O640  1  0.82393989  0.52080700  0.05028488  1
  O  O641  1  0.82345855  0.52182358  0.30064437  1
  O  O642  1  0.82316517  0.51866172  0.55067546  1
  O  O643  1  0.82317049  0.51847394  0.80115581  1
  O  O644  1  0.82220887  0.85282100  0.05270418  1
  O  O645  1  0.82335417  0.85497708  0.30008348  1
  O  O646  1  0.82331322  0.85249255  0.54892900  1
  O  O647  1  0.82338314  0.85183053  0.80134585  1
  O  O648  1  0.17765325  0.14848359  0.20034753  1
  O  O649  1  0.17637772  0.14540273  0.45035922  1
  O  O650  1  0.17687753  0.14782531  0.69906742  1
  O  O651  1  0.17606865  0.14659148  0.95037084  1
  O  O652  1  0.17662858  0.48036546  0.20086329  1
  O  O653  1  0.17876616  0.48046157  0.44844583  1
  O  O654  1  0.17657858  0.47868704  0.69928839  1
  O  O655  1  0.17706903  0.47872390  0.94870099  1
  O  O656  1  0.17654058  0.81512260  0.19961032  1
  O  O657  1  0.17729420  0.81360654  0.44822196  1
  O  O658  1  0.17685048  0.81344667  0.69657988  1
  O  O659  1  0.17622713  0.81461243  0.94782323  1
  O  O660  1  0.67811043  0.14752731  0.19877445  1
  O  O661  1  0.67725868  0.14594011  0.44952300  1
  O  O662  1  0.67659124  0.14754649  0.69916423  1
  O  O663  1  0.67702463  0.14680157  0.95086051  1
  O  O664  1  0.67643006  0.48074609  0.20063522  1
  O  O665  1  0.67637682  0.47909898  0.45127746  1
  O  O666  1  0.67767361  0.48030332  0.69824378  1
  O  O667  1  0.67683409  0.48121306  0.94904620  1
  O  O668  1  0.67636946  0.81540522  0.19992170  1
  O  O669  1  0.67619855  0.81190663  0.45000044  1
  O  O670  1  0.67572789  0.81325887  0.70012629  1
  O  O671  1  0.67683155  0.81563453  0.94908374  1
