# generated using pymatgen
data_Na2MnFe(PO4)2
_symmetry_space_group_name_H-M   'P 1'
_cell_length_a   22.34058735
_cell_length_b   20.09531798
_cell_length_c   19.45090006
_cell_angle_alpha   89.98609500
_cell_angle_beta   89.97049033
_cell_angle_gamma   89.98461283
_symmetry_Int_Tables_number   1
_chemical_formula_structural   Na2MnFe(PO4)2
_chemical_formula_sum   'Na96 Mn48 Fe48 P96 O384'
_cell_volume   8732.30881130
_cell_formula_units_Z   48
loop_
 _symmetry_equiv_pos_site_id
 _symmetry_equiv_pos_as_xyz
  1  'x, y, z'
loop_
 _atom_site_type_symbol
 _atom_site_label
 _atom_site_symmetry_multiplicity
 _atom_site_fract_x
 _atom_site_fract_y
 _atom_site_fract_z
 _atom_site_occupancy
  Na  Na0  1  0.14069108  0.25134118  0.24314662  1
  Na  Na1  1  0.14048526  0.24944492  0.49446109  1
  Na  Na2  1  0.14087798  0.24894068  0.74419011  1
  Na  Na3  1  0.14087340  0.25051219  0.99336132  1
  Na  Na4  1  0.14089198  0.58282054  0.24406166  1
  Na  Na5  1  0.14022035  0.58373732  0.49504260  1
  Na  Na6  1  0.13999144  0.58131365  0.74338165  1
  Na  Na7  1  0.14083811  0.58229646  0.99304917  1
  Na  Na8  1  0.14042759  0.91732425  0.24468977  1
  Na  Na9  1  0.14067946  0.91694104  0.49402954  1
  Na  Na10  1  0.14102509  0.91578311  0.74436294  1
  Na  Na11  1  0.14089854  0.91752674  0.99335544  1
  Na  Na12  1  0.64011775  0.24984150  0.24347257  1
  Na  Na13  1  0.64047553  0.25130598  0.49457734  1
  Na  Na14  1  0.64011008  0.24950429  0.74268117  1
  Na  Na15  1  0.63989775  0.25095518  0.99277467  1
  Na  Na16  1  0.64062723  0.58288981  0.24548447  1
  Na  Na17  1  0.63999304  0.58415525  0.49374443  1
  Na  Na18  1  0.64005694  0.58340511  0.74178479  1
  Na  Na19  1  0.64067194  0.58323004  0.99271399  1
  Na  Na20  1  0.63978519  0.91641209  0.24454314  1
  Na  Na21  1  0.63975682  0.91645293  0.49327949  1
  Na  Na22  1  0.64054803  0.91644623  0.74172296  1
  Na  Na23  1  0.64015193  0.91725042  0.99315407  1
  Na  Na24  1  0.36022425  0.08400811  0.00685070  1
  Na  Na25  1  0.35996743  0.08354279  0.25682314  1
  Na  Na26  1  0.35973593  0.08347240  0.50675665  1
  Na  Na27  1  0.35931447  0.08297767  0.75800466  1
  Na  Na28  1  0.35946961  0.41540591  0.00595680  1
  Na  Na29  1  0.35987086  0.41641692  0.25500486  1
  Na  Na30  1  0.36027497  0.41748241  0.50756630  1
  Na  Na31  1  0.35995832  0.41555268  0.75692177  1
  Na  Na32  1  0.35952497  0.74974706  0.00487336  1
  Na  Na33  1  0.35950419  0.75113859  0.25688072  1
  Na  Na34  1  0.36006231  0.75170557  0.50739331  1
  Na  Na35  1  0.35978808  0.74880483  0.75612771  1
  Na  Na36  1  0.85926490  0.08481230  0.00498404  1
  Na  Na37  1  0.85924052  0.08315105  0.25639708  1
  Na  Na38  1  0.85929586  0.08338467  0.50732641  1
  Na  Na39  1  0.85934562  0.08264439  0.75479204  1
  Na  Na40  1  0.85973139  0.41700671  0.00503056  1
  Na  Na41  1  0.85972025  0.41671557  0.25631489  1
  Na  Na42  1  0.85951482  0.41766704  0.50794570  1
  Na  Na43  1  0.85946039  0.41632819  0.75628025  1
  Na  Na44  1  0.85945741  0.74932215  0.00461357  1
  Na  Na45  1  0.85940449  0.74947438  0.25743592  1
  Na  Na46  1  0.85892982  0.74958178  0.50687257  1
  Na  Na47  1  0.85881233  0.74842658  0.75539855  1
  Na  Na48  1  0.10988531  0.08465081  0.11875228  1
  Na  Na49  1  0.10973249  0.08405085  0.36885657  1
  Na  Na50  1  0.11026369  0.08208451  0.61939164  1
  Na  Na51  1  0.11035043  0.08392201  0.86823563  1
  Na  Na52  1  0.11051187  0.41671202  0.11804101  1
  Na  Na53  1  0.10976647  0.41695639  0.36992317  1
  Na  Na54  1  0.10986346  0.41506981  0.62020470  1
  Na  Na55  1  0.11021319  0.41658867  0.86803949  1
  Na  Na56  1  0.10971926  0.75080831  0.11965749  1
  Na  Na57  1  0.10992608  0.75054409  0.36941680  1
  Na  Na58  1  0.10981039  0.74811007  0.61927731  1
  Na  Na59  1  0.10971803  0.74977037  0.86758392  1
  Na  Na60  1  0.60903552  0.08403037  0.11874497  1
  Na  Na61  1  0.60919396  0.08299386  0.36982694  1
  Na  Na62  1  0.60947901  0.08403392  0.61816051  1
  Na  Na63  1  0.60990517  0.08356374  0.86839538  1
  Na  Na64  1  0.61013864  0.41551983  0.11819638  1
  Na  Na65  1  0.60986182  0.41649946  0.36986858  1
  Na  Na66  1  0.60965294  0.41806952  0.61750115  1
  Na  Na67  1  0.60941502  0.41659842  0.86731149  1
  Na  Na68  1  0.60974734  0.75071274  0.11918273  1
  Na  Na69  1  0.61004937  0.75074265  0.36902002  1
  Na  Na70  1  0.60939731  0.74987815  0.61649099  1
  Na  Na71  1  0.60958193  0.74887395  0.86673695  1
  Na  Na72  1  0.39004408  0.24917977  0.13109319  1
  Na  Na73  1  0.39068238  0.24965548  0.38108173  1
  Na  Na74  1  0.39038810  0.25164955  0.63266313  1
  Na  Na75  1  0.39030687  0.24872813  0.88287845  1
  Na  Na76  1  0.39036330  0.58272538  0.13032860  1
  Na  Na77  1  0.39086906  0.58342019  0.38249160  1
  Na  Na78  1  0.39040835  0.58406144  0.63149895  1
  Na  Na79  1  0.39046107  0.58161566  0.88051886  1
  Na  Na80  1  0.39066781  0.91834621  0.13117004  1
  Na  Na81  1  0.39010189  0.91690042  0.38269495  1
  Na  Na82  1  0.38995178  0.91733935  0.63167221  1
  Na  Na83  1  0.39045870  0.91745033  0.88191919  1
  Na  Na84  1  0.89006779  0.25134539  0.13042936  1
  Na  Na85  1  0.89071096  0.25131061  0.38134230  1
  Na  Na86  1  0.89028988  0.24913923  0.63215017  1
  Na  Na87  1  0.88970780  0.25027360  0.88015796  1
  Na  Na88  1  0.89055369  0.58346720  0.13107725  1
  Na  Na89  1  0.88977635  0.58310165  0.38245218  1
  Na  Na90  1  0.88965098  0.58146283  0.63266299  1
  Na  Na91  1  0.88949293  0.58231869  0.88037418  1
  Na  Na92  1  0.89019872  0.91677465  0.13097802  1
  Na  Na93  1  0.88998880  0.91649672  0.38199692  1
  Na  Na94  1  0.88976308  0.91567849  0.63143583  1
  Na  Na95  1  0.89027579  0.91696606  0.87927760  1
  Mn  Mn96  1  0.00007190  0.83372022  -0.00085678  1
  Mn  Mn97  1  0.75073196  0.49964604  0.12487149  1
  Mn  Mn98  1  -0.00010961  0.83243146  0.50089483  1
  Mn  Mn99  1  0.49980667  0.33217931  0.24985760  1
  Mn  Mn100  1  0.00031316  0.00010916  0.49951028  1
  Mn  Mn101  1  0.74922299  -0.00076941  0.37570283  1
  Mn  Mn102  1  0.25015711  0.16610436  0.62560256  1
  Mn  Mn103  1  -0.00015694  0.16842399  0.24916413  1
  Mn  Mn104  1  -0.00060513  0.66484212  0.49987746  1
  Mn  Mn105  1  0.50100348  0.49890674  -0.00035206  1
  Mn  Mn106  1  0.24975087  0.66615617  0.12510351  1
  Mn  Mn107  1  0.25098151  0.66782821  0.37435726  1
  Mn  Mn108  1  -0.00003307  0.66669086  0.00011068  1
  Mn  Mn109  1  0.25021179  0.49940367  0.62523321  1
  Mn  Mn110  1  -0.00004436  0.16632112  0.75024498  1
  Mn  Mn111  1  -0.00006261  0.83280104  0.74960748  1
  Mn  Mn112  1  0.50023762  0.49947376  0.25025338  1
  Mn  Mn113  1  0.49999110  0.66718731  0.25036710  1
  Mn  Mn114  1  0.00048817  0.49915247  0.00026836  1
  Mn  Mn115  1  0.25038448  0.50032722  0.37532485  1
  Mn  Mn116  1  0.49910100  0.83488431  0.24975138  1
  Mn  Mn117  1  0.50041479  0.83313119  0.74980445  1
  Mn  Mn118  1  -0.00076483  0.00018488  0.24970020  1
  Mn  Mn119  1  0.50034301  0.33360813  0.74990364  1
  Mn  Mn120  1  0.25036213  0.83396302  0.12520582  1
  Mn  Mn121  1  0.75061538  0.33417241  0.37562391  1
  Mn  Mn122  1  0.75002144  0.00002223  0.12467959  1
  Mn  Mn123  1  0.24999394  0.83348116  0.62579353  1
  Mn  Mn124  1  0.49967140  0.83420068  -0.00081521  1
  Mn  Mn125  1  0.49960992  0.16710509  0.50022832  1
  Mn  Mn126  1  0.74987901  0.83268609  0.12440951  1
  Mn  Mn127  1  0.50037484  0.00106557  0.75038231  1
  Mn  Mn128  1  0.00062601  0.66736279  0.25098553  1
  Mn  Mn129  1  0.75048261  0.00076672  0.87346097  1
  Mn  Mn130  1  0.24982549  0.66566791  0.87540393  1
  Mn  Mn131  1  0.00017276  0.00081533  0.00020244  1
  Mn  Mn132  1  0.74981938  0.66602804  0.12536043  1
  Mn  Mn133  1  0.74998230  0.16698382  0.37551550  1
  Mn  Mn134  1  0.74958668  0.16797351  0.12519201  1
  Mn  Mn135  1  0.25075409  0.16668537  0.37533750  1
  Mn  Mn136  1  0.50029183  0.66633905  -0.00067509  1
  Mn  Mn137  1  -0.00056076  0.16822070  -0.00100427  1
  Mn  Mn138  1  0.75005023  0.83241747  0.87358974  1
  Mn  Mn139  1  0.25039639  0.33375567  0.37438251  1
  Mn  Mn140  1  0.25081139  0.00102629  0.12481113  1
  Mn  Mn141  1  -0.00027766  0.33312151  0.50072323  1
  Mn  Mn142  1  0.00037050  0.49965807  0.25033829  1
  Mn  Mn143  1  0.74959756  0.33377367  0.87394773  1
  Fe  Fe144  1  0.25030588  0.33266746  0.62610851  1
  Fe  Fe145  1  0.24989408  0.66661130  0.62553580  1
  Fe  Fe146  1  0.74959114  0.16704980  0.87354364  1
  Fe  Fe147  1  0.74954570  -0.00031857  0.62453991  1
  Fe  Fe148  1  -0.00037628  0.66532195  0.74963717  1
  Fe  Fe149  1  0.25039759  0.49884845  0.87439745  1
  Fe  Fe150  1  0.74916707  0.66621851  0.87375664  1
  Fe  Fe151  1  0.49963097  0.66686068  0.49986201  1
  Fe  Fe152  1  0.75005580  0.66649912  0.37587414  1
  Fe  Fe153  1  0.50042234  0.16639120  0.25031798  1
  Fe  Fe154  1  0.49988064  0.33228643  -0.00056596  1
  Fe  Fe155  1  0.49985220  0.50026367  0.74860138  1
  Fe  Fe156  1  0.74981374  0.50069582  0.62535641  1
  Fe  Fe157  1  0.74971054  0.50006977  0.37610138  1
  Fe  Fe158  1  -0.00049503  0.49881320  0.75076235  1
  Fe  Fe159  1  0.74954500  0.66642127  0.62427412  1
  Fe  Fe160  1  0.25035764  0.16638943  0.87548265  1
  Fe  Fe161  1  0.00020206  0.33379805  -0.00043090  1
  Fe  Fe162  1  0.49907462  0.00068623  0.50023852  1
  Fe  Fe163  1  0.25006496  0.33352102  0.12386875  1
  Fe  Fe164  1  0.50001898  0.33335442  0.50026661  1
  Fe  Fe165  1  0.24972609  0.00064606  0.37559040  1
  Fe  Fe166  1  0.50058775  0.00097664  0.00070649  1
  Fe  Fe167  1  -0.00044666  0.83374690  0.24996656  1
  Fe  Fe168  1  0.49991804  0.83388872  0.49993962  1
  Fe  Fe169  1  0.75000422  0.33375237  0.62545243  1
  Fe  Fe170  1  0.50025169  0.16617525  0.00076836  1
  Fe  Fe171  1  0.25037873  -0.00023367  0.87561843  1
  Fe  Fe172  1  0.25074055  0.49940884  0.12391210  1
  Fe  Fe173  1  0.24979516  0.16682229  0.12495688  1
  Fe  Fe174  1  0.74965268  0.33408741  0.12450000  1
  Fe  Fe175  1  0.49963208  0.66625108  0.74856124  1
  Fe  Fe176  1  0.74919095  0.50013852  0.87439391  1
  Fe  Fe177  1  0.75014956  0.83317215  0.37539092  1
  Fe  Fe178  1  0.25021716  -0.00039477  0.62614947  1
  Fe  Fe179  1  0.00039074  0.33408198  0.25050142  1
  Fe  Fe180  1  0.00028792  0.49911157  0.50096087  1
  Fe  Fe181  1  0.00050990  0.33282652  0.74968327  1
  Fe  Fe182  1  0.74972405  0.16673291  0.62462660  1
  Fe  Fe183  1  0.25010420  0.83278467  0.87499210  1
  Fe  Fe184  1  0.74943379  0.83261124  0.62424259  1
  Fe  Fe185  1  0.50017336  0.00064859  0.25058504  1
  Fe  Fe186  1  0.24985032  0.83424165  0.37618536  1
  Fe  Fe187  1  0.00031400  -0.00008047  0.74941927  1
  Fe  Fe188  1  0.49985779  0.50005055  0.50006482  1
  Fe  Fe189  1  0.25029446  0.33245196  0.87580747  1
  Fe  Fe190  1  0.00007270  0.16669153  0.50017765  1
  Fe  Fe191  1  0.49943754  0.16687611  0.75076656  1
  P  P192  1  0.04243320  0.25229285  0.10225881  1
  P  P193  1  0.04268836  0.25156175  0.35285968  1
  P  P194  1  0.04227513  0.24846990  0.60306688  1
  P  P195  1  0.04243534  0.25166030  0.85248892  1
  P  P196  1  0.04339585  0.58333393  0.10322412  1
  P  P197  1  0.04322142  0.58268727  0.35401202  1
  P  P198  1  0.04158623  0.58091919  0.60398198  1
  P  P199  1  0.04132119  0.58256665  0.85150385  1
  P  P200  1  0.04295295  0.91668942  0.10338621  1
  P  P201  1  0.04184282  0.91581812  0.35245655  1
  P  P202  1  0.04270691  0.91654632  0.60362760  1
  P  P203  1  0.04243913  0.91792533  0.85184150  1
  P  P204  1  0.54141523  0.24953422  0.10172418  1
  P  P205  1  0.54245054  0.24868397  0.35292433  1
  P  P206  1  0.54205568  0.25152210  0.60286780  1
  P  P207  1  0.54199849  0.24876274  0.85301815  1
  P  P208  1  0.54334662  0.58309921  0.10284945  1
  P  P209  1  0.54215855  0.58339561  0.35443290  1
  P  P210  1  0.54074219  0.58378887  0.60163652  1
  P  P211  1  0.54132778  0.58275865  0.85027421  1
  P  P212  1  0.54232164  0.91863934  0.10267761  1
  P  P213  1  0.54148747  0.91824033  0.35363942  1
  P  P214  1  0.54094970  0.91753247  0.60137998  1
  P  P215  1  0.54319762  0.91726352  0.85309309  1
  P  P216  1  0.45867536  0.08365743  0.14836313  1
  P  P217  1  0.45753105  0.08251200  0.39725531  1
  P  P218  1  0.45743486  0.08507569  0.64794649  1
  P  P219  1  0.45892242  0.08365436  0.89878956  1
  P  P220  1  0.45788868  0.41559659  0.14625254  1
  P  P221  1  0.45855273  0.41620430  0.39872805  1
  P  P222  1  0.45806918  0.41818924  0.64660367  1
  P  P223  1  0.45791371  0.41484830  0.89704850  1
  P  P224  1  0.45689084  0.75061625  0.14668938  1
  P  P225  1  0.45857618  0.75043305  0.39865046  1
  P  P226  1  0.45825973  0.74933790  0.64634385  1
  P  P227  1  0.45745790  0.74934008  0.89567558  1
  P  P228  1  0.95662179  0.08444456  0.14653564  1
  P  P229  1  0.95729472  0.08528011  0.39758132  1
  P  P230  1  0.95801630  0.08224698  0.64693438  1
  P  P231  1  0.95728510  0.08348523  0.89592449  1
  P  P232  1  0.95797303  0.41534647  0.14745829  1
  P  P233  1  0.95743929  0.41760671  0.39816367  1
  P  P234  1  0.95846527  0.41599211  0.64861229  1
  P  P235  1  0.95813041  0.41527541  0.89655221  1
  P  P236  1  0.95742705  0.75127606  0.14788985  1
  P  P237  1  0.95700762  0.74994074  0.39700782  1
  P  P238  1  0.95753731  0.74759640  0.64763250  1
  P  P239  1  0.95742690  0.74929782  0.89570448  1
  P  P240  1  0.20797941  0.08455809  0.22783303  1
  P  P241  1  0.20778055  0.08238515  0.47822587  1
  P  P242  1  0.20838285  0.08141511  0.72895301  1
  P  P243  1  0.20887232  0.08379269  0.97692673  1
  P  P244  1  0.20906994  0.41692683  0.22578253  1
  P  P245  1  0.20772826  0.41641006  0.47889893  1
  P  P246  1  0.20848384  0.41461375  0.72868824  1
  P  P247  1  0.20903202  0.41635456  0.97684559  1
  P  P248  1  0.20750444  0.75078950  0.22877931  1
  P  P249  1  0.20810330  0.75125280  0.47827306  1
  P  P250  1  0.20779544  0.74852594  0.72821406  1
  P  P251  1  0.20750572  0.75085105  0.97734243  1
  P  P252  1  0.70684556  0.08327003  0.22816451  1
  P  P253  1  0.70734892  0.08335159  0.47947891  1
  P  P254  1  0.70838483  0.08348818  0.72599014  1
  P  P255  1  0.70801463  0.08532409  0.97650289  1
  P  P256  1  0.70774467  0.41598081  0.22784974  1
  P  P257  1  0.70822896  0.41827697  0.47909261  1
  P  P258  1  0.70818515  0.41721580  0.72646915  1
  P  P259  1  0.70740495  0.41787852  0.97681714  1
  P  P260  1  0.70738544  0.74976637  0.22920066  1
  P  P261  1  0.70878367  0.75015025  0.47734172  1
  P  P262  1  0.70795125  0.74916020  0.72569706  1
  P  P263  1  0.70707570  0.74841219  0.97626997  1
  P  P264  1  0.29119920  0.24953391  0.02273038  1
  P  P265  1  0.29291650  0.24997556  0.27085617  1
  P  P266  1  0.29263567  0.25100230  0.52342422  1
  P  P267  1  0.29163246  0.24977313  0.77392757  1
  P  P268  1  0.29233114  0.58162586  0.02170657  1
  P  P269  1  0.29359173  0.58290607  0.27132336  1
  P  P270  1  0.29237941  0.58504404  0.52301252  1
  P  P271  1  0.29194753  0.58169020  0.77219218  1
  P  P272  1  0.29307788  0.91713669  0.02111038  1
  P  P273  1  0.29162072  0.91726777  0.27428264  1
  P  P274  1  0.29181221  0.91838368  0.52271632  1
  P  P275  1  0.29181014  0.91630676  0.77377374  1
  P  P276  1  0.79171257  0.25212697  0.02170383  1
  P  P277  1  0.79270690  0.25074546  0.27183885  1
  P  P278  1  0.79160204  0.25072488  0.52394518  1
  P  P279  1  0.79157100  0.24899672  0.77094804  1
  P  P280  1  0.79276065  0.58326636  0.02080074  1
  P  P281  1  0.79145890  0.58267134  0.27446096  1
  P  P282  1  0.79102316  0.58334612  0.52313688  1
  P  P283  1  0.79056314  0.58270238  0.77217444  1
  P  P284  1  0.79282104  0.91649774  0.02099855  1
  P  P285  1  0.79217999  0.91534453  0.27284762  1
  P  P286  1  0.79102047  0.91587582  0.52316250  1
  P  P287  1  0.79209045  0.91619426  0.76975249  1
  O  O288  1  0.03739770  0.25241430  0.18222805  1
  O  O289  1  0.03736627  0.25056859  0.43280480  1
  O  O290  1  0.03698944  0.24907334  0.68298336  1
  O  O291  1  0.03729235  0.25197641  0.93241577  1
  O  O292  1  0.03854636  0.58327737  0.18319986  1
  O  O293  1  0.03805288  0.58181052  0.43401169  1
  O  O294  1  0.03583937  0.58124006  0.68386525  1
  O  O295  1  0.03678771  0.58279328  0.93152225  1
  O  O296  1  0.03747005  0.91613751  0.18334288  1
  O  O297  1  0.03687995  0.91601826  0.43244361  1
  O  O298  1  0.03749228  0.91714147  0.68355604  1
  O  O299  1  0.03747095  0.91779835  0.93181219  1
  O  O300  1  0.53683390  0.24891644  0.18170197  1
  O  O301  1  0.53707108  0.24947995  0.43280626  1
  O  O302  1  0.53696223  0.25118524  0.68274197  1
  O  O303  1  0.53669136  0.24909858  0.93288539  1
  O  O304  1  0.53818376  0.58311715  0.18282406  1
  O  O305  1  0.53634032  0.58347604  0.43432435  1
  O  O306  1  0.53563916  0.58373499  0.68154590  1
  O  O307  1  0.53692123  0.58254293  0.93026777  1
  O  O308  1  0.53676029  0.91884272  0.18264111  1
  O  O309  1  0.53593721  0.91796373  0.43350659  1
  O  O310  1  0.53666402  0.91700985  0.68138653  1
  O  O311  1  0.53825269  0.91752711  0.93302604  1
  O  O312  1  0.46400644  0.08348441  0.06848209  1
  O  O313  1  0.46319023  0.08271681  0.31744801  1
  O  O314  1  0.46233022  0.08444170  0.56802177  1
  O  O315  1  0.46337762  0.08453107  0.81883361  1
  O  O316  1  0.46334173  0.41497697  0.06635526  1
  O  O317  1  0.46344574  0.41603870  0.31873893  1
  O  O318  1  0.46332948  0.41782540  0.56673992  1
  O  O319  1  0.46284827  0.41528302  0.81714952  1
  O  O320  1  0.46207174  0.75073275  0.06670187  1
  O  O321  1  0.46301793  0.75101131  0.31863897  1
  O  O322  1  0.46357774  0.74965990  0.56644446  1
  O  O323  1  0.46278765  0.74882095  0.81569531  1
  O  O324  1  0.96168580  0.08449044  0.06655126  1
  O  O325  1  0.96217325  0.08518821  0.31759308  1
  O  O326  1  0.96336976  0.08330089  0.56702538  1
  O  O327  1  0.96274500  0.08275297  0.81597423  1
  O  O328  1  0.96306152  0.41529146  0.06747686  1
  O  O329  1  0.96264380  0.41717162  0.31825021  1
  O  O330  1  0.96352472  0.41654772  0.56867355  1
  O  O331  1  0.96349291  0.41545726  0.81667165  1
  O  O332  1  0.96253926  0.75087118  0.06786063  1
  O  O333  1  0.96213964  0.75081881  0.31706295  1
  O  O334  1  0.96249588  0.74758792  0.56767872  1
  O  O335  1  0.96273642  0.74850883  0.81575377  1
  O  O336  1  0.21369519  0.08454811  0.05690271  1
  O  O337  1  0.21318271  0.08396067  0.30776733  1
  O  O338  1  0.21268229  0.08232250  0.55820539  1
  O  O339  1  0.21397604  0.08164751  0.80877933  1
  O  O340  1  0.21435601  0.41657493  0.05671606  1
  O  O341  1  0.21373386  0.41674084  0.30577506  1
  O  O342  1  0.21283261  0.41582644  0.55883909  1
  O  O343  1  0.21397227  0.41488269  0.80852909  1
  O  O344  1  0.21272399  0.75062711  0.05728622  1
  O  O345  1  0.21292518  0.75137235  0.30873608  1
  O  O346  1  0.21325556  0.75056649  0.55825937  1
  O  O347  1  0.21286736  0.74901571  0.80812370  1
  O  O348  1  0.71316411  0.08516939  0.05642881  1
  O  O349  1  0.71185192  0.08317895  0.30816266  1
  O  O350  1  0.71268231  0.08296486  0.55937552  1
  O  O351  1  0.71344527  0.08423615  0.80594216  1
  O  O352  1  0.71260839  0.41719844  0.05673231  1
  O  O353  1  0.71294698  0.41662026  0.30778349  1
  O  O354  1  0.71379552  0.41797536  0.55893338  1
  O  O355  1  0.71293706  0.41767272  0.80645249  1
  O  O356  1  0.71197190  0.74853844  0.05625813  1
  O  O357  1  0.71269754  0.75018065  0.30911352  1
  O  O358  1  0.71347393  0.75007216  0.55726423  1
  O  O359  1  0.71290665  0.74864176  0.80562942  1
  O  O360  1  0.28762763  0.24954740  0.19098913  1
  O  O361  1  0.28768884  0.25077671  0.44347287  1
  O  O362  1  0.28676944  0.24968961  0.69397400  1
  O  O363  1  0.28629178  0.24959855  0.94282932  1
  O  O364  1  0.28838173  0.58224151  0.19134910  1
  O  O365  1  0.28762328  0.58493203  0.44302484  1
  O  O366  1  0.28653330  0.58262974  0.69229420  1
  O  O367  1  0.28684318  0.58132452  0.94176734  1
  O  O368  1  0.28702689  0.91749811  0.19426472  1
  O  O369  1  0.28625124  0.91827438  0.44289970  1
  O  O370  1  0.28648889  0.91663169  0.69379563  1
  O  O371  1  0.28767577  0.91702775  0.94123298  1
  O  O372  1  0.78743352  0.25132009  0.19190862  1
  O  O373  1  0.78690648  0.25064695  0.44395166  1
  O  O374  1  0.78617647  0.24952932  0.69112028  1
  O  O375  1  0.78659445  0.25154619  0.94177820  1
  O  O376  1  0.78697349  0.58299549  0.19446565  1
  O  O377  1  0.78625487  0.58303981  0.44328339  1
  O  O378  1  0.78529953  0.58245586  0.69230918  1
  O  O379  1  0.78727635  0.58325316  0.94092390  1
  O  O380  1  0.78742239  0.91571131  0.19282810  1
  O  O381  1  0.78600566  0.91542624  0.44317120  1
  O  O382  1  0.78628133  0.91625498  0.68988995  1
  O  O383  1  0.78782095  0.91660631  0.94097651  1
  O  O384  1  0.22719887  0.24924974  0.05911917  1
  O  O385  1  0.22867224  0.24992042  0.30663861  1
  O  O386  1  0.22826084  0.25097928  0.55892556  1
  O  O387  1  0.22747212  0.25001325  0.80982930  1
  O  O388  1  0.22815726  0.58135920  0.05776591  1
  O  O389  1  0.22918594  0.58362596  0.30663893  1
  O  O390  1  0.22803349  0.58457355  0.55846225  1
  O  O391  1  0.22777388  0.58116454  0.80816850  1
  O  O392  1  0.22886208  0.91768802  0.05693068  1
  O  O393  1  0.22736351  0.91647563  0.31001265  1
  O  O394  1  0.22776571  0.91832283  0.55914754  1
  O  O395  1  0.22776173  0.91638547  0.81007758  1
  O  O396  1  0.72744766  0.25240403  0.05762100  1
  O  O397  1  0.72836817  0.25071261  0.30727297  1
  O  O398  1  0.72733312  0.25155452  0.55950507  1
  O  O399  1  0.72745326  0.24898425  0.80715185  1
  O  O400  1  0.72854024  0.58281741  0.05666625  1
  O  O401  1  0.72725157  0.58224473  0.31022753  1
  O  O402  1  0.72683405  0.58334794  0.55910505  1
  O  O403  1  0.72653329  0.58284796  0.80872742  1
  O  O404  1  0.72834600  0.91651031  0.05606751  1
  O  O405  1  0.72770276  0.91499605  0.30807708  1
  O  O406  1  0.72679181  0.91615089  0.55903896  1
  O  O407  1  0.72806265  0.91650985  0.80593644  1
  O  O408  1  0.27228939  0.08537899  0.19206435  1
  O  O409  1  0.27215803  0.08217081  0.44275575  1
  O  O410  1  0.27243084  0.08163239  0.69250651  1
  O  O411  1  0.27311200  0.08311746  0.94113942  1
  O  O412  1  0.27324901  0.41713161  0.18996511  1
  O  O413  1  0.27214385  0.41678392  0.44363031  1
  O  O414  1  0.27255621  0.41466553  0.69234023  1
  O  O415  1  0.27306379  0.41650235  0.94038792  1
  O  O416  1  0.27179229  0.75009437  0.19325797  1
  O  O417  1  0.27235898  0.75232890  0.44241530  1
  O  O418  1  0.27204533  0.74849565  0.69243057  1
  O  O419  1  0.27183523  0.75072430  0.94175094  1
  O  O420  1  0.77128803  0.08368708  0.19309819  1
  O  O421  1  0.77153152  0.08304142  0.44363611  1
  O  O422  1  0.77247029  0.08257646  0.68996373  1
  O  O423  1  0.77226966  0.08559257  0.94067548  1
  O  O424  1  0.77204423  0.41500974  0.19196928  1
  O  O425  1  0.77234726  0.41868797  0.44283551  1
  O  O426  1  0.77245481  0.41661816  0.69074822  1
  O  O427  1  0.77164312  0.41838828  0.94095840  1
  O  O428  1  0.77164676  0.74970138  0.19337754  1
  O  O429  1  0.77283750  0.75061844  0.44115847  1
  O  O430  1  0.77215335  0.74977692  0.68983663  1
  O  O431  1  0.77148765  0.74784051  0.94084819  1
  O  O432  1  0.02106441  0.08410135  0.18151835  1
  O  O433  1  0.02179114  0.08532694  0.43275007  1
  O  O434  1  0.02221555  0.08175860  0.68283617  1
  O  O435  1  0.02159686  0.08428004  0.93130095  1
  O  O436  1  0.02235737  0.41535649  0.18298610  1
  O  O437  1  0.02177828  0.41769629  0.43379668  1
  O  O438  1  0.02261945  0.41613932  0.68457214  1
  O  O439  1  0.02234588  0.41485603  0.93260561  1
  O  O440  1  0.02182384  0.75182324  0.18331977  1
  O  O441  1  0.02140593  0.74912215  0.43214782  1
  O  O442  1  0.02187094  0.74771220  0.68291325  1
  O  O443  1  0.02176321  0.74973633  0.93104737  1
  O  O444  1  0.52267831  0.08353554  0.18496359  1
  O  O445  1  0.52157700  0.08224096  0.43363827  1
  O  O446  1  0.52188167  0.08574639  0.68326940  1
  O  O447  1  0.52318176  0.08288553  0.93437008  1
  O  O448  1  0.52209909  0.41568237  0.18190395  1
  O  O449  1  0.52273660  0.41599619  0.43452522  1
  O  O450  1  0.52225550  0.41830547  0.68259865  1
  O  O451  1  0.52228003  0.41413569  0.93250839  1
  O  O452  1  0.52125144  0.75099051  0.18190921  1
  O  O453  1  0.52283983  0.74961170  0.43411397  1
  O  O454  1  0.52240174  0.74893692  0.68232975  1
  O  O455  1  0.52176376  0.75005557  0.93102105  1
  O  O456  1  0.47720337  0.25015276  0.06596882  1
  O  O457  1  0.47820425  0.24790513  0.31708210  1
  O  O458  1  0.47775915  0.25180026  0.56724747  1
  O  O459  1  0.47776403  0.24893109  0.81708127  1
  O  O460  1  0.47895007  0.58269572  0.06770490  1
  O  O461  1  0.47810607  0.58332481  0.31826479  1
  O  O462  1  0.47676053  0.58414464  0.56532963  1
  O  O463  1  0.47699359  0.58271581  0.81484303  1
  O  O464  1  0.47813954  0.91903667  0.06666450  1
  O  O465  1  0.47739898  0.91911889  0.31735254  1
  O  O466  1  0.47663760  0.91785530  0.56605546  1
  O  O467  1  0.47873767  0.91708635  0.81809498  1
  O  O468  1  0.97805205  0.25257798  0.06670769  1
  O  O469  1  0.97837518  0.25244550  0.31714701  1
  O  O470  1  0.97801388  0.24807031  0.56728787  1
  O  O471  1  0.97814206  0.25147946  0.81690246  1
  O  O472  1  0.97885513  0.58295398  0.06844613  1
  O  O473  1  0.97883235  0.58318129  0.31887939  1
  O  O474  1  0.97751279  0.58037835  0.56760081  1
  O  O475  1  0.97699198  0.58234005  0.81608080  1
  O  O476  1  0.97856132  0.91694476  0.06812868  1
  O  O477  1  0.97746695  0.91550035  0.31707510  1
  O  O478  1  0.97833838  0.91668300  0.56841882  1
  O  O479  1  0.97812000  0.91786121  0.81635957  1
  O  O480  1  0.07358212  0.31534114  0.07330350  1
  O  O481  1  0.07355809  0.31527188  0.32482168  1
  O  O482  1  0.07331818  0.31205398  0.57510545  1
  O  O483  1  0.07335760  0.31479943  0.82336931  1
  O  O484  1  0.07409981  0.64692560  0.07492655  1
  O  O485  1  0.07432156  0.64640075  0.32638294  1
  O  O486  1  0.07256994  0.64459816  0.57587656  1
  O  O487  1  0.07200447  0.64620150  0.82300401  1
  O  O488  1  0.07398306  0.98049664  0.07573927  1
  O  O489  1  0.07256288  0.97977649  0.32484227  1
  O  O490  1  0.07420087  0.97944260  0.57474762  1
  O  O491  1  0.07298677  0.98156822  0.82340297  1
  O  O492  1  0.57251390  0.31301005  0.07346979  1
  O  O493  1  0.57339914  0.31223834  0.32463765  1
  O  O494  1  0.57270471  0.31515678  0.57431975  1
  O  O495  1  0.57352553  0.31201886  0.82466912  1
  O  O496  1  0.57402831  0.64678101  0.07465068  1
  O  O497  1  0.57335572  0.64684331  0.32622302  1
  O  O498  1  0.57226458  0.64703528  0.57327731  1
  O  O499  1  0.57186376  0.64654135  0.82191335  1
  O  O500  1  0.57358671  0.98182600  0.07407938  1
  O  O501  1  0.57304092  0.98129789  0.32503597  1
  O  O502  1  0.57177351  0.98129189  0.57362828  1
  O  O503  1  0.57418079  0.98061284  0.82441643  1
  O  O504  1  0.42752495  0.02022641  0.17685718  1
  O  O505  1  0.42641316  0.01930789  0.42620431  1
  O  O506  1  0.42675086  0.02142607  0.67642198  1
  O  O507  1  0.42789153  0.02001302  0.92668924  1
  O  O508  1  0.42651842  0.35245216  0.17480219  1
  O  O509  1  0.42763704  0.35255398  0.42686160  1
  O  O510  1  0.42684328  0.35484308  0.67504585  1
  O  O511  1  0.42697223  0.35142749  0.92569704  1
  O  O512  1  0.42612917  0.68697615  0.17475640  1
  O  O513  1  0.42706109  0.68708477  0.42640726  1
  O  O514  1  0.42722252  0.68592345  0.67499872  1
  O  O515  1  0.42652569  0.68588933  0.92416619  1
  O  O516  1  0.92538732  0.02108447  0.17474441  1
  O  O517  1  0.92636488  0.02148310  0.42529170  1
  O  O518  1  0.92721940  0.01849989  0.67482971  1
  O  O519  1  0.92619029  0.02028400  0.92454465  1
  O  O520  1  0.92721019  0.35216208  0.17663117  1
  O  O521  1  0.92622032  0.35416417  0.42635474  1
  O  O522  1  0.92804737  0.35182756  0.67626738  1
  O  O523  1  0.92688564  0.35209105  0.92525117  1
  O  O524  1  0.92678457  0.68738850  0.17585582  1
  O  O525  1  0.92581122  0.68627835  0.42468491  1
  O  O526  1  0.92684214  0.68402920  0.67610638  1
  O  O527  1  0.92633034  0.68612836  0.92459951  1
  O  O528  1  0.17724451  0.02088800  0.19960663  1
  O  O529  1  0.17672648  0.01927273  0.44919279  1
  O  O530  1  0.17762039  0.01795302  0.70028576  1
  O  O531  1  0.17771942  0.02018151  0.94914531  1
  O  O532  1  0.17873725  0.35302771  0.19727316  1
  O  O533  1  0.17663001  0.35323401  0.45009271  1
  O  O534  1  0.17775396  0.35104779  0.70007772  1
  O  O535  1  0.17837560  0.35245029  0.94881215  1
  O  O536  1  0.17624048  0.68722293  0.20099766  1
  O  O537  1  0.17732343  0.68764790  0.45008696  1
  O  O538  1  0.17732314  0.68476500  0.69976039  1
  O  O539  1  0.17628098  0.68721953  0.94977888  1
  O  O540  1  0.67620842  0.01964562  0.19988052  1
  O  O541  1  0.67588401  0.02019980  0.45095432  1
  O  O542  1  0.67689378  0.01996904  0.69843736  1
  O  O543  1  0.67713142  0.02159635  0.94870553  1
  O  O544  1  0.67670120  0.35257791  0.19935915  1
  O  O545  1  0.67719956  0.35469117  0.45091413  1
  O  O546  1  0.67716587  0.35350522  0.69868900  1
  O  O547  1  0.67629379  0.35450820  0.94845918  1
  O  O548  1  0.67638805  0.68610555  0.20115483  1
  O  O549  1  0.67861943  0.68606325  0.44885226  1
  O  O550  1  0.67745710  0.68549962  0.69696906  1
  O  O551  1  0.67615292  0.68507966  0.94754748  1
  O  O552  1  0.32159920  0.31351490  0.05108330  1
  O  O553  1  0.32393823  0.31360707  0.29896937  1
  O  O554  1  0.32324328  0.31450963  0.55202357  1
  O  O555  1  0.32303871  0.31297630  0.80219522  1
  O  O556  1  0.32302892  0.64567776  0.04911034  1
  O  O557  1  0.32484944  0.64644810  0.29911229  1
  O  O558  1  0.32260014  0.64881277  0.55158999  1
  O  O559  1  0.32316523  0.64502380  0.80042987  1
  O  O560  1  0.32448777  0.98037788  0.04962855  1
  O  O561  1  0.32162730  0.98141856  0.30245440  1
  O  O562  1  0.32273044  0.98169580  0.55164083  1
  O  O563  1  0.32315148  0.97961494  0.80197424  1
  O  O564  1  0.82215970  0.31591233  0.05009473  1
  O  O565  1  0.82405779  0.31379847  0.30056296  1
  O  O566  1  0.82312524  0.31394344  0.55196943  1
  O  O567  1  0.82286835  0.31239596  0.79918781  1
  O  O568  1  0.82368250  0.64666015  0.04961183  1
  O  O569  1  0.82163642  0.64662613  0.30304906  1
  O  O570  1  0.82171930  0.64714937  0.55147305  1
  O  O571  1  0.82141141  0.64645778  0.80021243  1
  O  O572  1  0.82374928  0.97999932  0.04926321  1
  O  O573  1  0.82290823  0.97909481  0.30095952  1
  O  O574  1  0.82189997  0.97970663  0.55086814  1
  O  O575  1  0.82367405  0.97941234  0.79793676  1
  O  O576  1  0.42797807  0.14747404  0.17658510  1
  O  O577  1  0.42635553  0.14613012  0.42525742  1
  O  O578  1  0.42664874  0.14859514  0.67653274  1
  O  O579  1  0.42851330  0.14727175  0.92797054  1
  O  O580  1  0.42693110  0.47931151  0.17408864  1
  O  O581  1  0.42791917  0.48008010  0.42672457  1
  O  O582  1  0.42728547  0.48173950  0.67528240  1
  O  O583  1  0.42718626  0.47858372  0.92514130  1
  O  O584  1  0.42561842  0.81401602  0.17489555  1
  O  O585  1  0.42857170  0.81451269  0.42731565  1
  O  O586  1  0.42710286  0.81293259  0.67442573  1
  O  O587  1  0.42611742  0.81283311  0.92347362  1
  O  O588  1  0.92584211  0.14811226  0.17450221  1
  O  O589  1  0.92667572  0.14877522  0.42634476  1
  O  O590  1  0.92682259  0.14561305  0.67532630  1
  O  O591  1  0.92602109  0.14721544  0.92340979  1
  O  O592  1  0.92695682  0.47920754  0.17509377  1
  O  O593  1  0.92684530  0.48114541  0.42691436  1
  O  O594  1  0.92709674  0.47912127  0.67731882  1
  O  O595  1  0.92732518  0.47903623  0.92476020  1
  O  O596  1  0.92646600  0.81473307  0.17616864  1
  O  O597  1  0.92604815  0.81311210  0.42607112  1
  O  O598  1  0.92639304  0.81131688  0.67502319  1
  O  O599  1  0.92635918  0.81311121  0.92319274  1
  O  O600  1  0.07301090  0.18826675  0.07440458  1
  O  O601  1  0.07364280  0.18815386  0.32424324  1
  O  O602  1  0.07312614  0.18491847  0.57470320  1
  O  O603  1  0.07344951  0.18779605  0.82501071  1
  O  O604  1  0.07445415  0.51993786  0.07479593  1
  O  O605  1  0.07440874  0.51955023  0.32518033  1
  O  O606  1  0.07293997  0.51762146  0.57562333  1
  O  O607  1  0.07213788  0.51876285  0.82364146  1
  O  O608  1  0.07418906  0.85363227  0.07440614  1
  O  O609  1  0.07270249  0.85236478  0.32412273  1
  O  O610  1  0.07339674  0.85250233  0.57610242  1
  O  O611  1  0.07353336  0.85421218  0.82423459  1
  O  O612  1  0.57182732  0.18573636  0.07296929  1
  O  O613  1  0.57338108  0.18512594  0.32473622  1
  O  O614  1  0.57317664  0.18807382  0.57474185  1
  O  O615  1  0.57248222  0.18512606  0.82412265  1
  O  O616  1  0.57459988  0.51974680  0.07461033  1
  O  O617  1  0.57346327  0.51989674  0.32643957  1
  O  O618  1  0.57127453  0.51986094  0.57326633  1
  O  O619  1  0.57205563  0.51904741  0.82195853  1
  O  O620  1  0.57309345  0.85469554  0.07507138  1
  O  O621  1  0.57214244  0.85437736  0.32544164  1
  O  O622  1  0.57137095  0.85368174  0.57274410  1
  O  O623  1  0.57422733  0.85382101  0.82462481  1
  O  O624  1  0.32247547  0.18618016  0.05113985  1
  O  O625  1  0.32425555  0.18695412  0.30001343  1
  O  O626  1  0.32364797  0.18731886  0.55127198  1
  O  O627  1  0.32192292  0.18569564  0.80231561  1
  O  O628  1  0.32361395  0.51842813  0.05020208  1
  O  O629  1  0.32441740  0.51958324  0.30033864  1
  O  O630  1  0.32372483  0.52152796  0.55069152  1
  O  O631  1  0.32284476  0.51794332  0.80005129  1
  O  O632  1  0.32399156  0.85361768  0.04956536  1
  O  O633  1  0.32292064  0.85386269  0.30239661  1
  O  O634  1  0.32313094  0.85483791  0.55069206  1
  O  O635  1  0.32228208  0.85207410  0.80125671  1
  O  O636  1  0.82302753  0.18874030  0.04981778  1
  O  O637  1  0.82357129  0.18698144  0.29978959  1
  O  O638  1  0.82147100  0.18640869  0.55208724  1
  O  O639  1  0.82234779  0.18539920  0.79944155  1
  O  O640  1  0.82428427  0.52004929  0.04934391  1
  O  O641  1  0.82261746  0.51913160  0.30235465  1
  O  O642  1  0.82209642  0.52007892  0.55224797  1
  O  O643  1  0.82157968  0.51916827  0.80064799  1
  O  O644  1  0.82365729  0.85282695  0.04900303  1
  O  O645  1  0.82301588  0.85196894  0.30148789  1
  O  O646  1  0.82198444  0.85237916  0.55162121  1
  O  O647  1  0.82323509  0.85263578  0.79781955  1
  O  O648  1  0.17683758  0.14793004  0.19940729  1
  O  O649  1  0.17713081  0.14633414  0.45035748  1
  O  O650  1  0.17698579  0.14492830  0.70095194  1
  O  O651  1  0.17824472  0.14741390  0.94806942  1
  O  O652  1  0.17795869  0.48046609  0.19784856  1
  O  O653  1  0.17679232  0.48015782  0.45098510  1
  O  O654  1  0.17705180  0.47801014  0.70063080  1
  O  O655  1  0.17777227  0.47967111  0.94820692  1
  O  O656  1  0.17654054  0.81416280  0.20028890  1
  O  O657  1  0.17698879  0.81482724  0.45023253  1
  O  O658  1  0.17644826  0.81193166  0.70022154  1
  O  O659  1  0.17703844  0.81450075  0.94878173  1
  O  O660  1  0.67564568  0.14669009  0.20008271  1
  O  O661  1  0.67644206  0.14708768  0.45149641  1
  O  O662  1  0.67807474  0.14736877  0.69730526  1
  O  O663  1  0.67725001  0.14889251  0.94807982  1
  O  O664  1  0.67707531  0.47969919  0.19963346  1
  O  O665  1  0.67707804  0.48158131  0.45049784  1
  O  O666  1  0.67762438  0.48087482  0.69778895  1
  O  O667  1  0.67649325  0.48142122  0.94843626  1
  O  O668  1  0.67607306  0.81290826  0.20022100  1
  O  O669  1  0.67729795  0.81340681  0.44894832  1
  O  O670  1  0.67672866  0.81278189  0.69784056  1
  O  O671  1  0.67639879  0.81226947  0.94839277  1
