# generated using pymatgen
data_Na2MnFe(PO4)2
_symmetry_space_group_name_H-M   'P 1'
_cell_length_a   22.34965825
_cell_length_b   20.10037887
_cell_length_c   19.44292413
_cell_angle_alpha   89.98170423
_cell_angle_beta   90.01302486
_cell_angle_gamma   89.97675997
_symmetry_Int_Tables_number   1
_chemical_formula_structural   Na2MnFe(PO4)2
_chemical_formula_sum   'Na96 Mn48 Fe48 P96 O384'
_cell_volume   8734.47170831
_cell_formula_units_Z   48
loop_
 _symmetry_equiv_pos_site_id
 _symmetry_equiv_pos_as_xyz
  1  'x, y, z'
loop_
 _atom_site_type_symbol
 _atom_site_label
 _atom_site_symmetry_multiplicity
 _atom_site_fract_x
 _atom_site_fract_y
 _atom_site_fract_z
 _atom_site_occupancy
  Na  Na0  1  0.14030990  0.24955885  0.24268354  1
  Na  Na1  1  0.13996326  0.25076681  0.49360168  1
  Na  Na2  1  0.14028739  0.25139291  0.74382058  1
  Na  Na3  1  0.14044043  0.25163416  0.99479011  1
  Na  Na4  1  0.14025825  0.58276474  0.24293696  1
  Na  Na5  1  0.14094298  0.58447499  0.49470857  1
  Na  Na6  1  0.14111783  0.58411409  0.74358682  1
  Na  Na7  1  0.14073942  0.58421675  0.99306265  1
  Na  Na8  1  0.13988741  0.91731054  0.24369358  1
  Na  Na9  1  0.13989209  0.91665258  0.49325292  1
  Na  Na10  1  0.14043139  0.91581149  0.74354043  1
  Na  Na11  1  0.14028388  0.91660180  0.99404656  1
  Na  Na12  1  0.63977792  0.24904964  0.24262087  1
  Na  Na13  1  0.63930276  0.24879693  0.49321348  1
  Na  Na14  1  0.64005451  0.24920368  0.74255226  1
  Na  Na15  1  0.64014029  0.25033544  0.99518777  1
  Na  Na16  1  0.64001003  0.58378608  0.24266493  1
  Na  Na17  1  0.64028263  0.58359873  0.49389344  1
  Na  Na18  1  0.64082670  0.58420849  0.74428338  1
  Na  Na19  1  0.64062034  0.58561273  0.99498322  1
  Na  Na20  1  0.64013943  0.91547677  0.24254204  1
  Na  Na21  1  0.64012179  0.91464070  0.49447407  1
  Na  Na22  1  0.64048733  0.91487586  0.74293751  1
  Na  Na23  1  0.64013577  0.91631519  0.99469787  1
  Na  Na24  1  0.35922832  0.08425232  0.00692146  1
  Na  Na25  1  0.35948557  0.08328636  0.25610763  1
  Na  Na26  1  0.35922795  0.08278695  0.50596337  1
  Na  Na27  1  0.35921989  0.08289267  0.75518589  1
  Na  Na28  1  0.35974902  0.41707825  0.00648419  1
  Na  Na29  1  0.36023005  0.41616234  0.25680862  1
  Na  Na30  1  0.35977917  0.41708170  0.50677966  1
  Na  Na31  1  0.35968365  0.41728121  0.75570063  1
  Na  Na32  1  0.36066099  0.75084943  0.00620283  1
  Na  Na33  1  0.36053540  0.75134837  0.25719473  1
  Na  Na34  1  0.35956387  0.75004927  0.50721954  1
  Na  Na35  1  0.36012411  0.74923845  0.75734962  1
  Na  Na36  1  0.85870957  0.08303824  0.00729723  1
  Na  Na37  1  0.85934456  0.08230490  0.25544270  1
  Na  Na38  1  0.85941559  0.08141567  0.50684228  1
  Na  Na39  1  0.85931623  0.08192008  0.75513637  1
  Na  Na40  1  0.86031978  0.41686151  0.00805577  1
  Na  Na41  1  0.86026693  0.41635363  0.25633611  1
  Na  Na42  1  0.85957770  0.41598100  0.50578308  1
  Na  Na43  1  0.85952209  0.41655030  0.75606157  1
  Na  Na44  1  0.86054963  0.75178871  0.00699561  1
  Na  Na45  1  0.86049777  0.74990651  0.25568807  1
  Na  Na46  1  0.85952746  0.74981724  0.50574949  1
  Na  Na47  1  0.86009276  0.75005770  0.75582245  1
  Na  Na48  1  0.11003118  0.08275697  0.11823323  1
  Na  Na49  1  0.10928001  0.08228320  0.36774703  1
  Na  Na50  1  0.10902837  0.08359995  0.61845566  1
  Na  Na51  1  0.10945048  0.08390128  0.87031355  1
  Na  Na52  1  0.10972051  0.41661842  0.11859637  1
  Na  Na53  1  0.10940790  0.41671905  0.36906933  1
  Na  Na54  1  0.11005935  0.41709289  0.61858641  1
  Na  Na55  1  0.10986387  0.41848063  0.86902054  1
  Na  Na56  1  0.10989909  0.74926260  0.11887916  1
  Na  Na57  1  0.10969216  0.75020096  0.36784637  1
  Na  Na58  1  0.11078236  0.75043052  0.61845497  1
  Na  Na59  1  0.11053026  0.75141647  0.86766420  1
  Na  Na60  1  0.60940833  0.08322790  0.11832697  1
  Na  Na61  1  0.60920992  0.08339032  0.36862408  1
  Na  Na62  1  0.60935933  0.08285996  0.61752802  1
  Na  Na63  1  0.60932751  0.08281454  0.86854874  1
  Na  Na64  1  0.60957953  0.41725918  0.11951485  1
  Na  Na65  1  0.60885879  0.41578469  0.36781302  1
  Na  Na66  1  0.60904539  0.41530278  0.61863725  1
  Na  Na67  1  0.60969575  0.41745754  0.86931221  1
  Na  Na68  1  0.61005981  0.75003874  0.11916359  1
  Na  Na69  1  0.60945488  0.74924284  0.36840798  1
  Na  Na70  1  0.61019097  0.74927456  0.61909280  1
  Na  Na71  1  0.61044767  0.75052701  0.86930254  1
  Na  Na72  1  0.39022878  0.25102709  0.13284399  1
  Na  Na73  1  0.39028468  0.24998736  0.38032968  1
  Na  Na74  1  0.39011941  0.25006701  0.63031095  1
  Na  Na75  1  0.39033541  0.25081320  0.88051161  1
  Na  Na76  1  0.39119716  0.58444135  0.13151130  1
  Na  Na77  1  0.39094814  0.58324404  0.38143837  1
  Na  Na78  1  0.39009927  0.58317456  0.63330936  1
  Na  Na79  1  0.39032709  0.58487558  0.88136884  1
  Na  Na80  1  0.39038844  0.91661778  0.13228429  1
  Na  Na81  1  0.38979750  0.91682878  0.38173747  1
  Na  Na82  1  0.38993749  0.91446571  0.63115873  1
  Na  Na83  1  0.39038973  0.91511125  0.88138966  1
  Na  Na84  1  0.89010577  0.25028343  0.13257025  1
  Na  Na85  1  0.89033742  0.24927566  0.38024575  1
  Na  Na86  1  0.89025664  0.24915052  0.63077322  1
  Na  Na87  1  0.89026865  0.25073331  0.88197511  1
  Na  Na88  1  0.89149638  0.58309698  0.13256230  1
  Na  Na89  1  0.89044712  0.58303019  0.38001759  1
  Na  Na90  1  0.89021297  0.58373190  0.63081638  1
  Na  Na91  1  0.89131696  0.58461023  0.88163849  1
  Na  Na92  1  0.89043041  0.91526702  0.13183697  1
  Na  Na93  1  0.88987049  0.91610625  0.38018215  1
  Na  Na94  1  0.88996662  0.91628397  0.63167499  1
  Na  Na95  1  0.88994703  0.91670226  0.88075110  1
  Mn  Mn96  1  -0.00035594  0.16642806  0.49963281  1
  Mn  Mn97  1  0.24982606  0.50065786  0.37543480  1
  Mn  Mn98  1  0.49981027  0.33409892  0.00045477  1
  Mn  Mn99  1  0.00039325  0.16655209  0.75022347  1
  Mn  Mn100  1  0.49931910  -0.00132203  0.74898698  1
  Mn  Mn101  1  0.75051853  0.50076763  0.87573781  1
  Mn  Mn102  1  0.24925812  -0.00125491  0.62562684  1
  Mn  Mn103  1  0.75056257  0.50060100  0.12525513  1
  Mn  Mn104  1  0.00027402  0.66653272  0.49885186  1
  Mn  Mn105  1  0.74940253  0.16542426  0.37449554  1
  Mn  Mn106  1  0.25009612  0.16604456  0.37432746  1
  Mn  Mn107  1  0.24873274  0.16687879  0.62492906  1
  Mn  Mn108  1  0.25072103  0.66770111  0.37550552  1
  Mn  Mn109  1  0.74983494  0.16601907  0.87536517  1
  Mn  Mn110  1  0.00041366  0.49943735  0.49992642  1
  Mn  Mn111  1  0.74935362  0.50063267  0.37521693  1
  Mn  Mn112  1  0.49921805  -0.00113090  -0.00038529  1
  Mn  Mn113  1  0.49945755  0.16715809  0.74880365  1
  Mn  Mn114  1  0.74948430  0.50046629  0.62499014  1
  Mn  Mn115  1  0.00054918  0.66700827  0.00051849  1
  Mn  Mn116  1  0.74993300  0.33301372  0.87523877  1
  Mn  Mn117  1  0.75112134  0.66815555  0.87457030  1
  Mn  Mn118  1  0.74995379  0.33248363  0.37514388  1
  Mn  Mn119  1  0.24964267  0.83436871  0.12526043  1
  Mn  Mn120  1  0.00015855  0.16627660  0.25030194  1
  Mn  Mn121  1  -0.00076366  -0.00087932  -0.00015713  1
  Mn  Mn122  1  0.49997658  0.16698314  -0.00068225  1
  Mn  Mn123  1  0.74917806  -0.00098148  0.37491165  1
  Mn  Mn124  1  0.00029372  0.83417130  0.74929918  1
  Mn  Mn125  1  0.50009340  -0.00007193  0.25039599  1
  Mn  Mn126  1  0.25070591  0.33449108  0.87456257  1
  Mn  Mn127  1  -0.00062013  0.50119988  0.74980579  1
  Mn  Mn128  1  0.74892161  -0.00105728  0.87527290  1
  Mn  Mn129  1  -0.00080328  0.83398408  0.49940812  1
  Mn  Mn130  1  0.25140007  0.49996070  0.12435297  1
  Mn  Mn131  1  0.50013809  0.50013603  0.75032850  1
  Mn  Mn132  1  0.74940854  0.33227937  0.62534420  1
  Mn  Mn133  1  0.49989160  0.50153218  -0.00024234  1
  Mn  Mn134  1  0.25062667  0.66737896  0.12477896  1
  Mn  Mn135  1  -0.00089204  0.16725300  0.00013661  1
  Mn  Mn136  1  0.75004834  0.83199892  0.37432215  1
  Mn  Mn137  1  0.50017047  0.49917453  0.50054207  1
  Mn  Mn138  1  0.24978042  0.33359202  0.37507235  1
  Mn  Mn139  1  -0.00021194  0.33409436  0.75067585  1
  Mn  Mn140  1  0.50005259  -0.00088930  0.49934993  1
  Mn  Mn141  1  0.24938410  -0.00059980  0.87557469  1
  Mn  Mn142  1  0.49996220  0.66693605  0.50038235  1
  Mn  Mn143  1  0.24998897  0.16721648  0.87552752  1
  Fe  Fe144  1  0.49933134  0.33272292  0.49876095  1
  Fe  Fe145  1  0.25000890  0.16673790  0.12521151  1
  Fe  Fe146  1  0.75017827  0.83312922  0.12491606  1
  Fe  Fe147  1  0.25022532  0.83286428  0.62488035  1
  Fe  Fe148  1  0.00052625  0.33329996  0.25001566  1
  Fe  Fe149  1  0.00037975  0.49907770  0.25019620  1
  Fe  Fe150  1  0.24933808  -0.00012949  0.37506795  1
  Fe  Fe151  1  -0.00049052  -0.00059332  0.24949547  1
  Fe  Fe152  1  0.50014115  0.33350647  0.25023522  1
  Fe  Fe153  1  0.74973722  -0.00048855  0.12456250  1
  Fe  Fe154  1  0.25093213  0.83309807  0.87498719  1
  Fe  Fe155  1  0.25051617  0.00006164  0.12521017  1
  Fe  Fe156  1  0.75078338  0.66672618  0.62483805  1
  Fe  Fe157  1  -0.00008944  -0.00021127  0.49920776  1
  Fe  Fe158  1  0.24997934  0.33384393  0.12473084  1
  Fe  Fe159  1  -0.00006832  0.00030001  0.75024940  1
  Fe  Fe160  1  0.25048668  0.66705140  0.62589489  1
  Fe  Fe161  1  0.49997249  0.66705557  0.25035451  1
  Fe  Fe162  1  0.25027564  0.66704748  0.87443607  1
  Fe  Fe163  1  0.00079941  0.83331582  -0.00011215  1
  Fe  Fe164  1  0.50040148  0.83220583  0.75084520  1
  Fe  Fe165  1  0.00067812  0.50026558  0.00093632  1
  Fe  Fe166  1  0.74995985  0.83238965  0.62470113  1
  Fe  Fe167  1  0.25017474  0.50084966  0.62551151  1
  Fe  Fe168  1  0.49985429  0.33324487  0.74931838  1
  Fe  Fe169  1  0.49937915  0.16671412  0.49905707  1
  Fe  Fe170  1  0.49998028  0.50038546  0.25030952  1
  Fe  Fe171  1  0.74959663  0.16636511  0.12498770  1
  Fe  Fe172  1  0.24943596  0.83391766  0.37547491  1
  Fe  Fe173  1  0.75048295  0.83366886  0.87524590  1
  Fe  Fe174  1  0.74947688  -0.00130206  0.62532125  1
  Fe  Fe175  1  0.50067155  0.83263351  0.00060806  1
  Fe  Fe176  1  0.00008426  0.33416530  0.00093865  1
  Fe  Fe177  1  0.00067448  0.66764822  0.75027634  1
  Fe  Fe178  1  0.74981924  0.33324305  0.12538254  1
  Fe  Fe179  1  0.74978881  0.16552482  0.62494406  1
  Fe  Fe180  1  0.00054308  0.66616992  0.24924544  1
  Fe  Fe181  1  0.74980290  0.66669928  0.37455788  1
  Fe  Fe182  1  -0.00048924  0.33327542  0.49968845  1
  Fe  Fe183  1  0.50067144  0.66757561  0.00116789  1
  Fe  Fe184  1  0.25011014  0.50044215  0.87455013  1
  Fe  Fe185  1  0.50006225  0.83311364  0.25037075  1
  Fe  Fe186  1  0.75098754  0.66743566  0.12459104  1
  Fe  Fe187  1  0.49953910  0.83260528  0.50012984  1
  Fe  Fe188  1  0.49965045  0.16678666  0.24973342  1
  Fe  Fe189  1  0.50092129  0.66700386  0.75075258  1
  Fe  Fe190  1  0.00020827  0.83310097  0.24981481  1
  Fe  Fe191  1  0.25025096  0.33412626  0.62500932  1
  P  P192  1  0.04163044  0.25146941  0.10317695  1
  P  P193  1  0.04231972  0.25117182  0.35259333  1
  P  P194  1  0.04215592  0.25116451  0.60212288  1
  P  P195  1  0.04265087  0.25086179  0.85406403  1
  P  P196  1  0.04280504  0.58205957  0.10341389  1
  P  P197  1  0.04174966  0.58272148  0.35107401  1
  P  P198  1  0.04278098  0.58391188  0.60328656  1
  P  P199  1  0.04264083  0.58527490  0.85271764  1
  P  P200  1  0.04195829  0.91491187  0.10324612  1
  P  P201  1  0.04091055  0.91680071  0.35140322  1
  P  P202  1  0.04189271  0.91831728  0.60231733  1
  P  P203  1  0.04246941  0.91800270  0.85256315  1
  P  P204  1  0.54200696  0.25015631  0.10404609  1
  P  P205  1  0.54100653  0.24950101  0.35169815  1
  P  P206  1  0.54078749  0.25016910  0.60088485  1
  P  P207  1  0.54240297  0.25134713  0.85178759  1
  P  P208  1  0.54220312  0.58492181  0.10378990  1
  P  P209  1  0.54150319  0.58333259  0.35176581  1
  P  P210  1  0.54247519  0.58333861  0.60385141  1
  P  P211  1  0.54276135  0.58529539  0.85330350  1
  P  P212  1  0.54189799  0.91490510  0.10323932  1
  P  P213  1  0.54214658  0.91494395  0.35286477  1
  P  P214  1  0.54169070  0.91421560  0.60269193  1
  P  P215  1  0.54224773  0.91487790  0.85270259  1
  P  P216  1  0.45766676  0.08416960  0.14755370  1
  P  P217  1  0.45767290  0.08446877  0.39684310  1
  P  P218  1  0.45706189  0.08305373  0.64548236  1
  P  P219  1  0.45653581  0.08298888  0.89638768  1
  P  P220  1  0.45866010  0.41754301  0.14883355  1
  P  P221  1  0.45793585  0.41557533  0.39660366  1
  P  P222  1  0.45769733  0.41515985  0.64701950  1
  P  P223  1  0.45716905  0.41737917  0.89655801  1
  P  P224  1  0.45900162  0.75037869  0.14828300  1
  P  P225  1  0.45758294  0.75107345  0.39716854  1
  P  P226  1  0.45857152  0.74955692  0.64880928  1
  P  P227  1  0.45943072  0.74988992  0.89831828  1
  P  P228  1  0.95791866  0.08199297  0.14756339  1
  P  P229  1  0.95739625  0.08170474  0.39677033  1
  P  P230  1  0.95787688  0.08188985  0.64706837  1
  P  P231  1  0.95650851  0.08310393  0.89671903  1
  P  P232  1  0.95888880  0.41659170  0.14805839  1
  P  P233  1  0.95771175  0.41522154  0.39662143  1
  P  P234  1  0.95698942  0.41659790  0.64652507  1
  P  P235  1  0.95859667  0.41777565  0.89927331  1
  P  P236  1  0.95941073  0.75007623  0.14794998  1
  P  P237  1  0.95756267  0.75004144  0.39523784  1
  P  P238  1  0.95819352  0.74912782  0.64733267  1
  P  P239  1  0.95846324  0.75151359  0.89738925  1
  P  P240  1  0.20851046  0.08270088  0.22668452  1
  P  P241  1  0.20713109  0.08214808  0.47708879  1
  P  P242  1  0.20640636  0.08286632  0.72848332  1
  P  P243  1  0.20736166  0.08371598  0.97954545  1
  P  P244  1  0.20795533  0.41597161  0.22703868  1
  P  P245  1  0.20760132  0.41744388  0.47931879  1
  P  P246  1  0.20868621  0.41777274  0.72680282  1
  P  P247  1  0.20828726  0.41819426  0.97739598  1
  P  P248  1  0.20766017  0.75091240  0.22865226  1
  P  P249  1  0.20773347  0.75173809  0.47831350  1
  P  P250  1  0.20941337  0.75014111  0.72754415  1
  P  P251  1  0.20887608  0.75036180  0.97627184  1
  P  P252  1  0.70809570  0.08243038  0.22598794  1
  P  P253  1  0.70697634  0.08212786  0.47899085  1
  P  P254  1  0.70782979  0.08238721  0.72640549  1
  P  P255  1  0.70683564  0.08285930  0.97919089  1
  P  P256  1  0.70799311  0.41573146  0.22745162  1
  P  P257  1  0.70663773  0.41639833  0.47806840  1
  P  P258  1  0.70680022  0.41668961  0.72833368  1
  P  P259  1  0.70780559  0.41684985  0.97917404  1
  P  P260  1  0.70892150  0.74940279  0.22648659  1
  P  P261  1  0.70774475  0.74831623  0.47782575  1
  P  P262  1  0.70894770  0.74984573  0.72666733  1
  P  P263  1  0.70883875  0.75202397  0.97829467  1
  P  P264  1  0.29186694  0.25052636  0.02379323  1
  P  P265  1  0.29203644  0.24994170  0.27071304  1
  P  P266  1  0.29164720  0.25116142  0.52254620  1
  P  P267  1  0.29238827  0.25064910  0.77113866  1
  P  P268  1  0.29319931  0.58420111  0.02058972  1
  P  P269  1  0.29329255  0.58374630  0.27217247  1
  P  P270  1  0.29198613  0.58407341  0.52426469  1
  P  P271  1  0.29160251  0.58349429  0.77277462  1
  P  P272  1  0.29257009  0.91779896  0.02259613  1
  P  P273  1  0.29120889  0.91740330  0.27351543  1
  P  P274  1  0.29162912  0.91525251  0.52199381  1
  P  P275  1  0.29226823  0.91495876  0.77239093  1
  P  P276  1  0.79154474  0.24985547  0.02402441  1
  P  P277  1  0.79215737  0.24922292  0.27076379  1
  P  P278  1  0.79182307  0.24778769  0.52263070  1
  P  P279  1  0.79256772  0.24880754  0.77157233  1
  P  P280  1  0.79337176  0.58543032  0.02278336  1
  P  P281  1  0.79191121  0.58489320  0.27194681  1
  P  P282  1  0.79217502  0.58480568  0.52192462  1
  P  P283  1  0.79346469  0.58388489  0.77151738  1
  P  P284  1  0.79156470  0.91635000  0.02329115  1
  P  P285  1  0.79199070  0.91602503  0.27066965  1
  P  P286  1  0.79121561  0.91551271  0.52347520  1
  P  P287  1  0.79167105  0.91503978  0.77172121  1
  O  O288  1  0.03643787  0.25148306  0.18318006  1
  O  O289  1  0.03699028  0.25103261  0.43254242  1
  O  O290  1  0.03717522  0.25067423  0.68214102  1
  O  O291  1  0.03722922  0.25139100  0.93404481  1
  O  O292  1  0.03744394  0.58202815  0.18329692  1
  O  O293  1  0.03676307  0.58295079  0.43105747  1
  O  O294  1  0.03760454  0.58463936  0.68325516  1
  O  O295  1  0.03772804  0.58496421  0.93267519  1
  O  O296  1  0.03645217  0.91506375  0.18315416  1
  O  O297  1  0.03581742  0.91758294  0.43138229  1
  O  O298  1  0.03686535  0.91834812  0.68231309  1
  O  O299  1  0.03738913  0.91690726  0.93253053  1
  O  O300  1  0.53668235  0.24969952  0.18397146  1
  O  O301  1  0.53578748  0.24958372  0.43162785  1
  O  O302  1  0.53590717  0.25056703  0.68088649  1
  O  O303  1  0.53736636  0.25105461  0.93181327  1
  O  O304  1  0.53662981  0.58439888  0.18367445  1
  O  O305  1  0.53666449  0.58343964  0.43179303  1
  O  O306  1  0.53737910  0.58378098  0.68382755  1
  O  O307  1  0.53733400  0.58563277  0.93329097  1
  O  O308  1  0.53660959  0.91503436  0.18321934  1
  O  O309  1  0.53679202  0.91477181  0.43282278  1
  O  O310  1  0.53634387  0.91412327  0.68265265  1
  O  O311  1  0.53702405  0.91500412  0.93272699  1
  O  O312  1  0.46264080  0.08367913  0.06756172  1
  O  O313  1  0.46309601  0.08452357  0.31686430  1
  O  O314  1  0.46256482  0.08348919  0.56551484  1
  O  O315  1  0.46154244  0.08288205  0.81635464  1
  O  O316  1  0.46325403  0.41776724  0.06879994  1
  O  O317  1  0.46373035  0.41631720  0.31673608  1
  O  O318  1  0.46291417  0.41497934  0.56701696  1
  O  O319  1  0.46227531  0.41685903  0.81659575  1
  O  O320  1  0.46419743  0.75010865  0.06836085  1
  O  O321  1  0.46274156  0.75095171  0.31727023  1
  O  O322  1  0.46320502  0.74978804  0.56878006  1
  O  O323  1  0.46476867  0.74974692  0.81841154  1
  O  O324  1  0.96252182  0.08232234  0.06759566  1
  O  O325  1  0.96277530  0.08174970  0.31679354  1
  O  O326  1  0.96330667  0.08174489  0.56706834  1
  O  O327  1  0.96201073  0.08280207  0.81676430  1
  O  O328  1  0.96418808  0.41678464  0.06813111  1
  O  O329  1  0.96342508  0.41553847  0.31671128  1
  O  O330  1  0.96207289  0.41592306  0.56654105  1
  O  O331  1  0.96316316  0.41793982  0.81922091  1
  O  O332  1  0.96428005  0.75022600  0.06795179  1
  O  O333  1  0.96311009  0.75018167  0.31533451  1
  O  O334  1  0.96286180  0.74943695  0.56731789  1
  O  O335  1  0.96358947  0.75095072  0.81740884  1
  O  O336  1  0.21304080  0.08369730  0.05948113  1
  O  O337  1  0.21340248  0.08223125  0.30671974  1
  O  O338  1  0.21181078  0.08227279  0.55709285  1
  O  O339  1  0.21171846  0.08295466  0.80845946  1
  O  O340  1  0.21373536  0.41724680  0.05732252  1
  O  O341  1  0.21256365  0.41635742  0.30707353  1
  O  O342  1  0.21313728  0.41736899  0.55924096  1
  O  O343  1  0.21381889  0.41811428  0.80681512  1
  O  O344  1  0.21335298  0.75051133  0.05633778  1
  O  O345  1  0.21266832  0.75139176  0.30862476  1
  O  O346  1  0.21281765  0.75145802  0.55825615  1
  O  O347  1  0.21459780  0.74981966  0.80746556  1
  O  O348  1  0.71226829  0.08290868  0.05910236  1
  O  O349  1  0.71266902  0.08247868  0.30606026  1
  O  O350  1  0.71210773  0.08219127  0.55892408  1
  O  O351  1  0.71224560  0.08231222  0.80649908  1
  O  O352  1  0.71328778  0.41629062  0.05917976  1
  O  O353  1  0.71270701  0.41592568  0.30746796  1
  O  O354  1  0.71153961  0.41637790  0.55807205  1
  O  O355  1  0.71210710  0.41680524  0.80835040  1
  O  O356  1  0.71426873  0.75174407  0.05819575  1
  O  O357  1  0.71350038  0.74879772  0.30650172  1
  O  O358  1  0.71309701  0.74858452  0.55771723  1
  O  O359  1  0.71421820  0.75057597  0.80661111  1
  O  O360  1  0.28657408  0.24998936  0.19079178  1
  O  O361  1  0.28677905  0.25082832  0.44249672  1
  O  O362  1  0.28676411  0.25119891  0.69121026  1
  O  O363  1  0.28717791  0.25053860  0.94370878  1
  O  O364  1  0.28863258  0.58369989  0.19214793  1
  O  O365  1  0.28728906  0.58448324  0.44423807  1
  O  O366  1  0.28622902  0.58358377  0.69286142  1
  O  O367  1  0.28767527  0.58422281  0.94066517  1
  O  O368  1  0.28646348  0.91784913  0.19348757  1
  O  O369  1  0.28615953  0.91563646  0.44208589  1
  O  O370  1  0.28695304  0.91447900  0.69241954  1
  O  O371  1  0.28752546  0.91695341  0.94264946  1
  O  O372  1  0.78683139  0.24961540  0.19081143  1
  O  O373  1  0.78678923  0.24809087  0.44259613  1
  O  O374  1  0.78735697  0.24819256  0.69158011  1
  O  O375  1  0.78688055  0.24982706  0.94394758  1
  O  O376  1  0.78691473  0.58493631  0.19195642  1
  O  O377  1  0.78671431  0.58497532  0.44194330  1
  O  O378  1  0.78809338  0.58401321  0.69154362  1
  O  O379  1  0.78844135  0.58509864  0.94276872  1
  O  O380  1  0.78674309  0.91619231  0.19076211  1
  O  O381  1  0.78644526  0.91581463  0.44345613  1
  O  O382  1  0.78619136  0.91498060  0.69184019  1
  O  O383  1  0.78647008  0.91596031  0.94326977  1
  O  O384  1  0.22759068  0.25069680  0.05935516  1
  O  O385  1  0.22792309  0.24985406  0.30660591  1
  O  O386  1  0.22733059  0.25169105  0.55785875  1
  O  O387  1  0.22824824  0.25068994  0.80691733  1
  O  O388  1  0.22903222  0.58376824  0.05644418  1
  O  O389  1  0.22874445  0.58425005  0.30687878  1
  O  O390  1  0.22775178  0.58371234  0.55983787  1
  O  O391  1  0.22767948  0.58347785  0.80940691  1
  O  O392  1  0.22818126  0.91871612  0.05800615  1
  O  O393  1  0.22696008  0.91727900  0.30929896  1
  O  O394  1  0.22750638  0.91460734  0.55815357  1
  O  O395  1  0.22803958  0.91461805  0.80812685  1
  O  O396  1  0.72726024  0.24999416  0.05948160  1
  O  O397  1  0.72789313  0.24923334  0.30635824  1
  O  O398  1  0.72749177  0.24727312  0.55808610  1
  O  O399  1  0.72816135  0.24928382  0.80674673  1
  O  O400  1  0.72895495  0.58560388  0.05797788  1
  O  O401  1  0.72759215  0.58512769  0.30753004  1
  O  O402  1  0.72800642  0.58520723  0.55788294  1
  O  O403  1  0.72917747  0.58408703  0.80698247  1
  O  O404  1  0.72742435  0.91665272  0.05928942  1
  O  O405  1  0.72779449  0.91556066  0.30641192  1
  O  O406  1  0.72706264  0.91479122  0.55925271  1
  O  O407  1  0.72756172  0.91431306  0.80797398  1
  O  O408  1  0.27265600  0.08302458  0.19068593  1
  O  O409  1  0.27158115  0.08163231  0.44192494  1
  O  O410  1  0.27069057  0.08303704  0.69315152  1
  O  O411  1  0.27145377  0.08328296  0.94353436  1
  O  O412  1  0.27245871  0.41530920  0.19201287  1
  O  O413  1  0.27180043  0.41734586  0.44351052  1
  O  O414  1  0.27277570  0.41769048  0.69069727  1
  O  O415  1  0.27250336  0.41906805  0.94157867  1
  O  O416  1  0.27202719  0.75097740  0.19345110  1
  O  O417  1  0.27200409  0.75215962  0.44256050  1
  O  O418  1  0.27338762  0.75073678  0.69114588  1
  O  O419  1  0.27321441  0.75001820  0.94086666  1
  O  O420  1  0.77233718  0.08210144  0.19042303  1
  O  O421  1  0.77123196  0.08219790  0.44337509  1
  O  O422  1  0.77210643  0.08310981  0.69097153  1
  O  O423  1  0.77106349  0.08235793  0.94349310  1
  O  O424  1  0.77235812  0.41574410  0.19224375  1
  O  O425  1  0.77112223  0.41666584  0.44322301  1
  O  O426  1  0.77114937  0.41657158  0.69316116  1
  O  O427  1  0.77210764  0.41664350  0.94376074  1
  O  O428  1  0.77320092  0.74968161  0.19085155  1
  O  O429  1  0.77194365  0.74775460  0.44178126  1
  O  O430  1  0.77306243  0.75002580  0.69050013  1
  O  O431  1  0.77297035  0.75234111  0.94214458  1
  O  O432  1  0.02226154  0.08213304  0.18280349  1
  O  O433  1  0.02164796  0.08171856  0.43256652  1
  O  O434  1  0.02202510  0.08160804  0.68319667  1
  O  O435  1  0.02077046  0.08331492  0.93220605  1
  O  O436  1  0.02294154  0.41701639  0.18446062  1
  O  O437  1  0.02181093  0.41471515  0.43297058  1
  O  O438  1  0.02133486  0.41725972  0.68180897  1
  O  O439  1  0.02289838  0.41752158  0.93482804  1
  O  O440  1  0.02344025  0.75065476  0.18398762  1
  O  O441  1  0.02169999  0.75072471  0.43114541  1
  O  O442  1  0.02258511  0.74935815  0.68263716  1
  O  O443  1  0.02275844  0.75154390  0.93308302  1
  O  O444  1  0.52197559  0.08428112  0.18306035  1
  O  O445  1  0.52182240  0.08432712  0.43275167  1
  O  O446  1  0.52125200  0.08285383  0.68116681  1
  O  O447  1  0.52099235  0.08268423  0.93140322  1
  O  O448  1  0.52283748  0.41809338  0.18457001  1
  O  O449  1  0.52194958  0.41488933  0.43305461  1
  O  O450  1  0.52188662  0.41528694  0.68293694  1
  O  O451  1  0.52151143  0.41751806  0.93188178  1
  O  O452  1  0.52297490  0.75066138  0.18473664  1
  O  O453  1  0.52182499  0.75122421  0.43306705  1
  O  O454  1  0.52290078  0.74939023  0.68450097  1
  O  O455  1  0.52339433  0.75004834  0.93499601  1
  O  O456  1  0.47783150  0.25015304  0.06821026  1
  O  O457  1  0.47702997  0.24937292  0.31533161  1
  O  O458  1  0.47666084  0.25039298  0.56480023  1
  O  O459  1  0.47796063  0.25159799  0.81647262  1
  O  O460  1  0.47818110  0.58557411  0.06739305  1
  O  O461  1  0.47732930  0.58279405  0.31600718  1
  O  O462  1  0.47818037  0.58313076  0.56846276  1
  O  O463  1  0.47858411  0.58528816  0.81735076  1
  O  O464  1  0.47775028  0.91435364  0.06728049  1
  O  O465  1  0.47790007  0.91519770  0.31710144  1
  O  O466  1  0.47754794  0.91453622  0.56666240  1
  O  O467  1  0.47796515  0.91451712  0.81701013  1
  O  O468  1  0.97741194  0.25189445  0.06739779  1
  O  O469  1  0.97811828  0.25103142  0.31678874  1
  O  O470  1  0.97785092  0.25134319  0.56648946  1
  O  O471  1  0.97834992  0.25033155  0.81865335  1
  O  O472  1  0.97866092  0.58218773  0.06731962  1
  O  O473  1  0.97765937  0.58195331  0.31511163  1
  O  O474  1  0.97851492  0.58334125  0.56782519  1
  O  O475  1  0.97830398  0.58594129  0.81711251  1
  O  O476  1  0.97781534  0.91415419  0.06710313  1
  O  O477  1  0.97683371  0.91598540  0.31533758  1
  O  O478  1  0.97754605  0.91860085  0.56672742  1
  O  O479  1  0.97818011  0.91835609  0.81684802  1
  O  O480  1  0.07285305  0.31465976  0.07458516  1
  O  O481  1  0.07330764  0.31439793  0.32383116  1
  O  O482  1  0.07285112  0.31472796  0.57395127  1
  O  O483  1  0.07371787  0.31421806  0.82556814  1
  O  O484  1  0.07412620  0.64557930  0.07545198  1
  O  O485  1  0.07185371  0.64684163  0.32279834  1
  O  O486  1  0.07385201  0.64710439  0.57447132  1
  O  O487  1  0.07346505  0.64876237  0.82409221  1
  O  O488  1  0.07262407  0.97873519  0.07521906  1
  O  O489  1  0.07126222  0.98053344  0.32249275  1
  O  O490  1  0.07309934  0.98130112  0.57336581  1
  O  O491  1  0.07309329  0.98176701  0.82462684  1
  O  O492  1  0.57302647  0.31384208  0.07614713  1
  O  O493  1  0.57161838  0.31332534  0.32314175  1
  O  O494  1  0.57208651  0.31335372  0.57235382  1
  O  O495  1  0.57309195  0.31485039  0.82330739  1
  O  O496  1  0.57339461  0.64828189  0.07537372  1
  O  O497  1  0.57154591  0.64744872  0.32349650  1
  O  O498  1  0.57359606  0.64652825  0.57517675  1
  O  O499  1  0.57384896  0.64851879  0.82459560  1
  O  O500  1  0.57244051  0.97885572  0.07540514  1
  O  O501  1  0.57321301  0.97877210  0.32535436  1
  O  O502  1  0.57286663  0.97789777  0.57509818  1
  O  O503  1  0.57295366  0.97865756  0.82457640  1
  O  O504  1  0.42673423  0.02051489  0.17552688  1
  O  O505  1  0.42664471  0.02066770  0.42439222  1
  O  O506  1  0.42598394  0.01938572  0.67323287  1
  O  O507  1  0.42542511  0.01963749  0.92469267  1
  O  O508  1  0.42866714  0.35333203  0.17695315  1
  O  O509  1  0.42655477  0.35220540  0.42463660  1
  O  O510  1  0.42689270  0.35180334  0.67567168  1
  O  O511  1  0.42590326  0.35425203  0.92529428  1
  O  O512  1  0.42845587  0.68665337  0.17709218  1
  O  O513  1  0.42657819  0.68745082  0.42543091  1
  O  O514  1  0.42804981  0.68575335  0.67715770  1
  O  O515  1  0.42849782  0.68639572  0.92683537  1
  O  O516  1  0.92756106  0.01811168  0.17577989  1
  O  O517  1  0.92635809  0.01843218  0.42532320  1
  O  O518  1  0.92667734  0.01877293  0.67578856  1
  O  O519  1  0.92526253  0.01982377  0.92506925  1
  O  O520  1  0.92828165  0.35279824  0.17635122  1
  O  O521  1  0.92648970  0.35193830  0.42510720  1
  O  O522  1  0.92597652  0.35339418  0.67539362  1
  O  O523  1  0.92773356  0.35407278  0.92732688  1
  O  O524  1  0.92953918  0.68564315  0.17598511  1
  O  O525  1  0.92683470  0.68631957  0.42334527  1
  O  O526  1  0.92784505  0.68556313  0.67607327  1
  O  O527  1  0.92707071  0.68834058  0.92579700  1
  O  O528  1  0.17766421  0.01923199  0.19816707  1
  O  O529  1  0.17625579  0.01880635  0.44839810  1
  O  O530  1  0.17561222  0.01924403  0.70050475  1
  O  O531  1  0.17575279  0.02053110  0.95132218  1
  O  O532  1  0.17705536  0.35257632  0.19854643  1
  O  O533  1  0.17622346  0.35433940  0.45067939  1
  O  O534  1  0.17808345  0.35383968  0.69888461  1
  O  O535  1  0.17742606  0.35463632  0.94913455  1
  O  O536  1  0.17695424  0.68720810  0.20052412  1
  O  O537  1  0.17687427  0.68799543  0.45014402  1
  O  O538  1  0.17910816  0.68622925  0.69881804  1
  O  O539  1  0.17790107  0.68685341  0.94811660  1
  O  O540  1  0.67687085  0.01898402  0.19808529  1
  O  O541  1  0.67595716  0.01861911  0.45055800  1
  O  O542  1  0.67799322  0.01808274  0.69823153  1
  O  O543  1  0.67540847  0.01966217  0.95064825  1
  O  O544  1  0.67733805  0.35216744  0.19902032  1
  O  O545  1  0.67590599  0.35282282  0.44984767  1
  O  O546  1  0.67574346  0.35319423  0.70031205  1
  O  O547  1  0.67614469  0.35391616  0.95064244  1
  O  O548  1  0.67811746  0.68607251  0.19757500  1
  O  O549  1  0.67644715  0.68528088  0.44886993  1
  O  O550  1  0.67857740  0.68574502  0.69891996  1
  O  O551  1  0.67783686  0.68841744  0.95016378  1
  O  O552  1  0.32268951  0.31429922  0.05170630  1
  O  O553  1  0.32332095  0.31317814  0.29914412  1
  O  O554  1  0.32260243  0.31458348  0.55091884  1
  O  O555  1  0.32378636  0.31380684  0.79956700  1
  O  O556  1  0.32407573  0.64769250  0.04919175  1
  O  O557  1  0.32447417  0.64702163  0.30045346  1
  O  O558  1  0.32231280  0.64792104  0.55281967  1
  O  O559  1  0.32246661  0.64716866  0.80108603  1
  O  O560  1  0.32363465  0.98113108  0.05104848  1
  O  O561  1  0.32210262  0.98090886  0.30196938  1
  O  O562  1  0.32246428  0.97897904  0.55012045  1
  O  O563  1  0.32290640  0.97898571  0.79979626  1
  O  O564  1  0.82245709  0.31345690  0.05211915  1
  O  O565  1  0.82346241  0.31236104  0.29956811  1
  O  O566  1  0.82254200  0.31165935  0.55029567  1
  O  O567  1  0.82365219  0.31243909  0.79950991  1
  O  O568  1  0.82413193  0.64899682  0.05099164  1
  O  O569  1  0.82302074  0.64803419  0.30060503  1
  O  O570  1  0.82346620  0.64787288  0.55071409  1
  O  O571  1  0.82479405  0.64713097  0.79972688  1
  O  O572  1  0.82246931  0.98007359  0.05116932  1
  O  O573  1  0.82284190  0.97944966  0.29932996  1
  O  O574  1  0.82120752  0.97948289  0.55215172  1
  O  O575  1  0.82215443  0.97895936  0.79985606  1
  O  O576  1  0.42691597  0.14769850  0.17583883  1
  O  O577  1  0.42665443  0.14777761  0.42541654  1
  O  O578  1  0.42573646  0.14627816  0.67383996  1
  O  O579  1  0.42581297  0.14670613  0.92442970  1
  O  O580  1  0.42719648  0.48079446  0.17693845  1
  O  O581  1  0.42696920  0.47914147  0.42505916  1
  O  O582  1  0.42672883  0.47895497  0.67465763  1
  O  O583  1  0.42639159  0.48112125  0.92452357  1
  O  O584  1  0.42759115  0.81379029  0.17638785  1
  O  O585  1  0.42668928  0.81438392  0.42609241  1
  O  O586  1  0.42775906  0.81301992  0.67741430  1
  O  O587  1  0.42835018  0.81344365  0.92662387  1
  O  O588  1  0.92668402  0.14539494  0.17554675  1
  O  O589  1  0.92648580  0.14552371  0.42456819  1
  O  O590  1  0.92722466  0.14596795  0.67447683  1
  O  O591  1  0.92543314  0.14664939  0.92482260  1
  O  O592  1  0.92755587  0.47991357  0.17654324  1
  O  O593  1  0.92681346  0.47901660  0.42455475  1
  O  O594  1  0.92583318  0.48021967  0.67434754  1
  O  O595  1  0.92814630  0.48161114  0.92759050  1
  O  O596  1  0.92756601  0.81296531  0.17625135  1
  O  O597  1  0.92584213  0.81304782  0.42389634  1
  O  O598  1  0.92701939  0.81273174  0.67507756  1
  O  O599  1  0.92805247  0.81532972  0.92576369  1
  O  O600  1  0.07231605  0.18747856  0.07566955  1
  O  O601  1  0.07338681  0.18734371  0.32491612  1
  O  O602  1  0.07306384  0.18744473  0.57418679  1
  O  O603  1  0.07388009  0.18736913  0.82608242  1
  O  O604  1  0.07354181  0.51870542  0.07434168  1
  O  O605  1  0.07334086  0.51934524  0.32355220  1
  O  O606  1  0.07388699  0.52029502  0.57547203  1
  O  O607  1  0.07334871  0.52156277  0.82459295  1
  O  O608  1  0.07332968  0.85180684  0.07436310  1
  O  O609  1  0.07236455  0.85326859  0.32393951  1
  O  O610  1  0.07240109  0.85424836  0.57452053  1
  O  O611  1  0.07362308  0.85468244  0.82400039  1
  O  O612  1  0.57338732  0.18706844  0.07521579  1
  O  O613  1  0.57234968  0.18609896  0.32342743  1
  O  O614  1  0.57107458  0.18599912  0.57292979  1
  O  O615  1  0.57320360  0.18755281  0.82387010  1
  O  O616  1  0.57319843  0.52137077  0.07545686  1
  O  O617  1  0.57288169  0.51997002  0.32386934  1
  O  O618  1  0.57349587  0.51971520  0.57591587  1
  O  O619  1  0.57378438  0.52149917  0.82580590  1
  O  O620  1  0.57330518  0.85179596  0.07475570  1
  O  O621  1  0.57310784  0.85174881  0.32398692  1
  O  O622  1  0.57248670  0.85082826  0.57402653  1
  O  O623  1  0.57341198  0.85159604  0.82426551  1
  O  O624  1  0.32243059  0.18674632  0.05205728  1
  O  O625  1  0.32321730  0.18646837  0.29906800  1
  O  O626  1  0.32231952  0.18719270  0.55010880  1
  O  O627  1  0.32335763  0.18692853  0.79895180  1
  O  O628  1  0.32479526  0.52102038  0.04898096  1
  O  O629  1  0.32374763  0.52003327  0.30059464  1
  O  O630  1  0.32313416  0.52053250  0.55216457  1
  O  O631  1  0.32269785  0.51992331  0.80091878  1
  O  O632  1  0.32319216  0.85410767  0.05109699  1
  O  O633  1  0.32183406  0.85355957  0.30165391  1
  O  O634  1  0.32296895  0.85210091  0.55075700  1
  O  O635  1  0.32354656  0.85189487  0.80140005  1
  O  O636  1  0.82205380  0.18591614  0.05213651  1
  O  O637  1  0.82320240  0.18561095  0.29889634  1
  O  O638  1  0.82285701  0.18435810  0.55088169  1
  O  O639  1  0.82354792  0.18552477  0.80035607  1
  O  O640  1  0.82421362  0.52178553  0.05089778  1
  O  O641  1  0.82256815  0.52089578  0.29970996  1
  O  O642  1  0.82289199  0.52072991  0.54931579  1
  O  O643  1  0.82431260  0.52027772  0.79983161  1
  O  O644  1  0.82243566  0.85286384  0.05185556  1
  O  O645  1  0.82338834  0.85276874  0.29911169  1
  O  O646  1  0.82271417  0.85208070  0.55110863  1
  O  O647  1  0.82326838  0.85210136  0.80061982  1
  O  O648  1  0.17772494  0.14660139  0.19881378  1
  O  O649  1  0.17655303  0.14600684  0.44908502  1
  O  O650  1  0.17519236  0.14627363  0.70037376  1
  O  O651  1  0.17639146  0.14734521  0.95133055  1
  O  O652  1  0.17748930  0.47980034  0.19887750  1
  O  O653  1  0.17659438  0.48106078  0.45099548  1
  O  O654  1  0.17758266  0.48125961  0.69854839  1
  O  O655  1  0.17720551  0.48166477  0.94917205  1
  O  O656  1  0.17635522  0.81404601  0.19999577  1
  O  O657  1  0.17658980  0.81489512  0.44928376  1
  O  O658  1  0.17775462  0.81331576  0.69930879  1
  O  O659  1  0.17844737  0.81426324  0.94803244  1
  O  O660  1  0.67784918  0.14650167  0.19784689  1
  O  O661  1  0.67570778  0.14531739  0.45011488  1
  O  O662  1  0.67645960  0.14565465  0.69814037  1
  O  O663  1  0.67592339  0.14635681  0.95059860  1
  O  O664  1  0.67698306  0.47943961  0.19973052  1
  O  O665  1  0.67556604  0.47990352  0.44994722  1
  O  O666  1  0.67574417  0.48016589  0.70026274  1
  O  O667  1  0.67716523  0.48090993  0.95160214  1
  O  O668  1  0.67826049  0.81333128  0.19858316  1
  O  O669  1  0.67701540  0.81208135  0.44946268  1
  O  O670  1  0.67750859  0.81294017  0.69801878  1
  O  O671  1  0.67778912  0.81529894  0.94946973  1
