# generated using pymatgen
data_Na2MnFe(PO4)2
_symmetry_space_group_name_H-M   'P 1'
_cell_length_a   22.34707830
_cell_length_b   20.09608731
_cell_length_c   19.44748261
_cell_angle_alpha   90.04182107
_cell_angle_beta   89.97200649
_cell_angle_gamma   89.95902042
_symmetry_Int_Tables_number   1
_chemical_formula_structural   Na2MnFe(PO4)2
_chemical_formula_sum   'Na96 Mn48 Fe48 P96 O384'
_cell_volume   8733.64173391
_cell_formula_units_Z   48
loop_
 _symmetry_equiv_pos_site_id
 _symmetry_equiv_pos_as_xyz
  1  'x, y, z'
loop_
 _atom_site_type_symbol
 _atom_site_label
 _atom_site_symmetry_multiplicity
 _atom_site_fract_x
 _atom_site_fract_y
 _atom_site_fract_z
 _atom_site_occupancy
  Na  Na0  1  0.14050119  0.24954036  0.24338271  1
  Na  Na1  1  0.14033990  0.25091704  0.49473829  1
  Na  Na2  1  0.14067368  0.25060820  0.74357028  1
  Na  Na3  1  0.14082168  0.24890626  0.99480454  1
  Na  Na4  1  0.13995663  0.58317520  0.24301621  1
  Na  Na5  1  0.14080506  0.58374753  0.49330494  1
  Na  Na6  1  0.14028017  0.58343120  0.74477400  1
  Na  Na7  1  0.13966856  0.58326774  0.99291404  1
  Na  Na8  1  0.14057143  0.91628037  0.24415498  1
  Na  Na9  1  0.14007291  0.91688573  0.49368633  1
  Na  Na10  1  0.14014260  0.91731212  0.74435429  1
  Na  Na11  1  0.14091609  0.91676218  0.99354438  1
  Na  Na12  1  0.64046202  0.25049107  0.24408937  1
  Na  Na13  1  0.64045349  0.25056766  0.49489019  1
  Na  Na14  1  0.64054159  0.25041203  0.74315194  1
  Na  Na15  1  0.64081346  0.25092001  0.99307826  1
  Na  Na16  1  0.64013433  0.58293075  0.24329113  1
  Na  Na17  1  0.64045204  0.58140653  0.49350716  1
  Na  Na18  1  0.64037682  0.58259648  0.74338102  1
  Na  Na19  1  0.64007324  0.58398988  0.99316896  1
  Na  Na20  1  0.64045543  0.91567618  0.24368692  1
  Na  Na21  1  0.63986406  0.91545505  0.49372416  1
  Na  Na22  1  0.64025283  0.91640998  0.74286476  1
  Na  Na23  1  0.64102470  0.91670690  0.99244097  1
  Na  Na24  1  0.36002945  0.08347772  0.00664757  1
  Na  Na25  1  0.35995716  0.08306448  0.25575009  1
  Na  Na26  1  0.35962885  0.08358056  0.50677153  1
  Na  Na27  1  0.35956079  0.08347522  0.75725173  1
  Na  Na28  1  0.35988137  0.41629997  0.00615540  1
  Na  Na29  1  0.36001461  0.41743045  0.25591493  1
  Na  Na30  1  0.35987215  0.41738918  0.50637562  1
  Na  Na31  1  0.35965912  0.41743560  0.75590727  1
  Na  Na32  1  0.35966824  0.75066191  0.00473558  1
  Na  Na33  1  0.35972024  0.75021597  0.25606591  1
  Na  Na34  1  0.35957455  0.75084708  0.50663615  1
  Na  Na35  1  0.35970810  0.75102422  0.75721410  1
  Na  Na36  1  0.85901439  0.08354778  0.00492085  1
  Na  Na37  1  0.85893815  0.08339832  0.25641602  1
  Na  Na38  1  0.85962705  0.08332829  0.50756830  1
  Na  Na39  1  0.85977653  0.08375739  0.75677971  1
  Na  Na40  1  0.85936301  0.41840958  0.00712020  1
  Na  Na41  1  0.85981600  0.41701538  0.25758364  1
  Na  Na42  1  0.85929482  0.41602677  0.50629048  1
  Na  Na43  1  0.85905134  0.41688211  0.75608333  1
  Na  Na44  1  0.85944954  0.74927434  0.00694691  1
  Na  Na45  1  0.85977750  0.74844486  0.25611598  1
  Na  Na46  1  0.85934213  0.74808711  0.50495461  1
  Na  Na47  1  0.85896583  0.74883672  0.75646162  1
  Na  Na48  1  0.11000552  0.08298339  0.11903799  1
  Na  Na49  1  0.10910274  0.08312863  0.36906773  1
  Na  Na50  1  0.10962010  0.08380103  0.61950377  1
  Na  Na51  1  0.11006547  0.08287362  0.86899590  1
  Na  Na52  1  0.10937324  0.41694691  0.11917865  1
  Na  Na53  1  0.10943212  0.41667811  0.36886698  1
  Na  Na54  1  0.11014006  0.41653268  0.61852716  1
  Na  Na55  1  0.10976338  0.41615517  0.86895209  1
  Na  Na56  1  0.10975678  0.74916972  0.11916842  1
  Na  Na57  1  0.10983162  0.74899130  0.36755542  1
  Na  Na58  1  0.10947553  0.75093406  0.61903611  1
  Na  Na59  1  0.10965735  0.75013783  0.86843011  1
  Na  Na60  1  0.60987136  0.08424202  0.11827880  1
  Na  Na61  1  0.60930293  0.08276135  0.37011374  1
  Na  Na62  1  0.60969820  0.08336394  0.61964214  1
  Na  Na63  1  0.61003920  0.08324375  0.86722363  1
  Na  Na64  1  0.60986715  0.41802041  0.11887911  1
  Na  Na65  1  0.61039283  0.41639028  0.36829326  1
  Na  Na66  1  0.61021286  0.41621854  0.61832641  1
  Na  Na67  1  0.60961016  0.41786249  0.86777405  1
  Na  Na68  1  0.61009875  0.74989800  0.11722999  1
  Na  Na69  1  0.60974356  0.74892497  0.36867619  1
  Na  Na70  1  0.60945924  0.74900350  0.61867110  1
  Na  Na71  1  0.60993285  0.74905527  0.86846455  1
  Na  Na72  1  0.39044544  0.25059033  0.13183153  1
  Na  Na73  1  0.39066360  0.24956009  0.38061160  1
  Na  Na74  1  0.39072483  0.25030194  0.63248232  1
  Na  Na75  1  0.39047546  0.25073634  0.88166057  1
  Na  Na76  1  0.39028794  0.58394784  0.12972629  1
  Na  Na77  1  0.39033064  0.58387079  0.38134729  1
  Na  Na78  1  0.39017909  0.58306657  0.63123597  1
  Na  Na79  1  0.39031174  0.58409997  0.88063608  1
  Na  Na80  1  0.39054636  0.91843761  0.13065800  1
  Na  Na81  1  0.39040676  0.91645218  0.38173287  1
  Na  Na82  1  0.39032117  0.91684974  0.63186140  1
  Na  Na83  1  0.39017464  0.91600259  0.88177752  1
  Na  Na84  1  0.88992268  0.25167374  0.13167577  1
  Na  Na85  1  0.89007677  0.25012443  0.38179522  1
  Na  Na86  1  0.88992068  0.24955464  0.63198193  1
  Na  Na87  1  0.89030014  0.24983791  0.88093682  1
  Na  Na88  1  0.89057167  0.58360969  0.13192400  1
  Na  Na89  1  0.88974575  0.58201243  0.38114646  1
  Na  Na90  1  0.88954591  0.58282750  0.63134724  1
  Na  Na91  1  0.88945666  0.58346064  0.88225666  1
  Na  Na92  1  0.89013826  0.91491962  0.13104219  1
  Na  Na93  1  0.89044041  0.91545446  0.37980707  1
  Na  Na94  1  0.89048322  0.91792769  0.63112064  1
  Na  Na95  1  0.88993918  0.91661340  0.88146616  1
  Mn  Mn96  1  -0.00118760  0.83413683  0.74947206  1
  Mn  Mn97  1  0.74934705  0.16762961  0.37558204  1
  Mn  Mn98  1  -0.00002317  0.66637982  0.49939372  1
  Mn  Mn99  1  0.00041598  0.49920074  0.50001820  1
  Mn  Mn100  1  0.50048724  0.83388354  0.24916028  1
  Mn  Mn101  1  0.75026320  0.83148089  0.62446364  1
  Mn  Mn102  1  0.74940832  -0.00046223  0.12461109  1
  Mn  Mn103  1  -0.00048626  -0.00088869  0.24953735  1
  Mn  Mn104  1  -0.00026994  0.16670425  0.49993404  1
  Mn  Mn105  1  0.74990295  0.50039384  0.12546661  1
  Mn  Mn106  1  0.24938238  0.50069522  0.37500684  1
  Mn  Mn107  1  0.25015655  0.16682548  0.37515301  1
  Mn  Mn108  1  0.24920580  0.83425848  0.62581308  1
  Mn  Mn109  1  0.00006909  0.49985808  0.75036813  1
  Mn  Mn110  1  0.24981057  0.83391983  0.12498383  1
  Mn  Mn111  1  -0.00086494  0.16710191  0.25049354  1
  Mn  Mn112  1  -0.00038895  -0.00019771  0.00032616  1
  Mn  Mn113  1  0.50113184  0.00097031  0.25089223  1
  Mn  Mn114  1  0.74993847  0.83264739  0.87435679  1
  Mn  Mn115  1  0.50073251  0.33462056  0.00042675  1
  Mn  Mn116  1  0.24946629  -0.00013928  0.37525110  1
  Mn  Mn117  1  -0.00016171  0.66662457  0.75024606  1
  Mn  Mn118  1  0.25053952  0.33358671  0.37490753  1
  Mn  Mn119  1  0.74994506  0.16788820  0.12558591  1
  Mn  Mn120  1  0.24961373  0.49943912  0.87452432  1
  Mn  Mn121  1  0.75015780  0.00028874  0.62477396  1
  Mn  Mn122  1  0.25038306  0.16683869  0.87536543  1
  Mn  Mn123  1  0.50001435  0.50021051  0.74982151  1
  Mn  Mn124  1  0.00039290  0.33413398  0.00060274  1
  Mn  Mn125  1  0.74998170  0.83123501  0.37421415  1
  Mn  Mn126  1  0.50000651  0.66658282  0.49991828  1
  Mn  Mn127  1  0.24918429  0.66707972  0.62519540  1
  Mn  Mn128  1  0.50038248  0.83350887  -0.00038291  1
  Mn  Mn129  1  0.50036793  0.16593183  0.50096323  1
  Mn  Mn130  1  0.00082406  0.83232373  0.00017636  1
  Mn  Mn131  1  0.50102808  0.16684396  -0.00022108  1
  Mn  Mn132  1  0.25022770  0.16712253  0.62573931  1
  Mn  Mn133  1  0.74982659  0.33410983  0.87453507  1
  Mn  Mn134  1  0.49955548  0.66622190  0.24941846  1
  Mn  Mn135  1  0.50002366  -0.00089075  0.74973246  1
  Mn  Mn136  1  0.50042363  0.33348131  0.49968598  1
  Mn  Mn137  1  -0.00065775  0.83386450  0.49948007  1
  Mn  Mn138  1  0.74979429  -0.00059111  0.37508100  1
  Mn  Mn139  1  -0.00083279  0.33280617  0.75041153  1
  Mn  Mn140  1  -0.00028767  0.16674064  0.00033365  1
  Mn  Mn141  1  0.50009487  0.33408648  0.24996450  1
  Mn  Mn142  1  0.25056249  0.49945373  0.12397473  1
  Mn  Mn143  1  0.24973135  0.66709979  0.12451906  1
  Fe  Fe144  1  0.74983881  0.66605599  0.87520013  1
  Fe  Fe145  1  0.75041264  0.33353004  0.37577324  1
  Fe  Fe146  1  0.25019165  0.50062761  0.62515493  1
  Fe  Fe147  1  -0.00021779  0.00014267  0.49992724  1
  Fe  Fe148  1  0.00053977  0.16657517  0.75001670  1
  Fe  Fe149  1  0.25057419  0.33410738  0.62499142  1
  Fe  Fe150  1  0.75023521  0.00036149  0.87443371  1
  Fe  Fe151  1  0.00077226  0.83246590  0.25021698  1
  Fe  Fe152  1  0.75022807  0.16742342  0.87484089  1
  Fe  Fe153  1  0.75021907  0.66612719  0.12492122  1
  Fe  Fe154  1  0.49985352  0.83300312  0.50021324  1
  Fe  Fe155  1  -0.00014480  0.50000116  0.24980186  1
  Fe  Fe156  1  0.50059493  0.00032072  -0.00055745  1
  Fe  Fe157  1  -0.00038079  0.50025927  0.00074543  1
  Fe  Fe158  1  0.49964918  0.16635866  0.75034776  1
  Fe  Fe159  1  -0.00026105  0.66625886  0.00066303  1
  Fe  Fe160  1  0.25014133  0.33278950  0.12506826  1
  Fe  Fe161  1  0.74911805  0.66544274  0.37482003  1
  Fe  Fe162  1  0.75016059  0.83240118  0.12413274  1
  Fe  Fe163  1  0.25040285  0.66690679  0.37501504  1
  Fe  Fe164  1  0.49989786  0.49980447  0.49999524  1
  Fe  Fe165  1  0.25007327  0.00022606  0.87570094  1
  Fe  Fe166  1  0.00003644  0.00045962  0.75020524  1
  Fe  Fe167  1  0.49977929  0.33377320  0.74995981  1
  Fe  Fe168  1  -0.00001801  0.66582665  0.24978987  1
  Fe  Fe169  1  0.24994688  0.83411588  0.87514310  1
  Fe  Fe170  1  0.50009750  0.50069180  0.24937181  1
  Fe  Fe171  1  0.25001502  0.66701325  0.87446989  1
  Fe  Fe172  1  0.50018000  0.66666988  0.74950926  1
  Fe  Fe173  1  0.24998924  0.00021242  0.62544746  1
  Fe  Fe174  1  0.25052759  -0.00022308  0.12502754  1
  Fe  Fe175  1  0.74977275  0.49949336  0.37521205  1
  Fe  Fe176  1  -0.00030365  0.33303610  0.50015156  1
  Fe  Fe177  1  0.00022725  0.33390291  0.25049855  1
  Fe  Fe178  1  0.50044096  0.83279653  0.75018655  1
  Fe  Fe179  1  0.74993092  0.33420997  0.12486199  1
  Fe  Fe180  1  0.49987621  0.50097275  -0.00108862  1
  Fe  Fe181  1  0.50018601  0.16671734  0.25026445  1
  Fe  Fe182  1  0.74971730  0.16697734  0.62545955  1
  Fe  Fe183  1  0.75000032  0.33362293  0.62519021  1
  Fe  Fe184  1  0.74997893  0.49970773  0.62464127  1
  Fe  Fe185  1  0.74979999  0.50026994  0.87490306  1
  Fe  Fe186  1  0.49981799  0.66697200  -0.00083781  1
  Fe  Fe187  1  0.25040823  0.16614495  0.12450956  1
  Fe  Fe188  1  0.74963353  0.66488569  0.62515570  1
  Fe  Fe189  1  0.49937953  -0.00049861  0.50057659  1
  Fe  Fe190  1  0.25017130  0.33325469  0.87517890  1
  Fe  Fe191  1  0.25036695  0.83355775  0.37504223  1
  P  P192  1  0.04243839  0.25070258  0.10407420  1
  P  P193  1  0.04206883  0.25142920  0.35299400  1
  P  P194  1  0.04192711  0.25071442  0.60294390  1
  P  P195  1  0.04269649  0.24879022  0.85264196  1
  P  P196  1  0.04143415  0.58312960  0.10254812  1
  P  P197  1  0.04148565  0.58246580  0.35125774  1
  P  P198  1  0.04305971  0.58327567  0.60295350  1
  P  P199  1  0.04234075  0.58331564  0.85451150  1
  P  P200  1  0.04308578  0.91572084  0.10361122  1
  P  P201  1  0.04236701  0.91548008  0.35267375  1
  P  P202  1  0.04179712  0.91865599  0.60272437  1
  P  P203  1  0.04185698  0.91754496  0.85228514  1
  P  P204  1  0.54316137  0.25050518  0.10349130  1
  P  P205  1  0.54239253  0.24885526  0.35249114  1
  P  P206  1  0.54228976  0.25012599  0.60432206  1
  P  P207  1  0.54139012  0.25042264  0.85134180  1
  P  P208  1  0.54130620  0.58348844  0.10109859  1
  P  P209  1  0.54213495  0.58193501  0.35251499  1
  P  P210  1  0.54205494  0.58209655  0.60241471  1
  P  P211  1  0.54192865  0.58498972  0.85257523  1
  P  P212  1  0.54295475  0.91845774  0.10185335  1
  P  P213  1  0.54288343  0.91618444  0.35419560  1
  P  P214  1  0.54131758  0.91607162  0.60207746  1
  P  P215  1  0.54255694  0.91525565  0.85238603  1
  P  P216  1  0.45838770  0.08463500  0.14739847  1
  P  P217  1  0.45766727  0.08220215  0.39788574  1
  P  P218  1  0.45770753  0.08368897  0.64786353  1
  P  P219  1  0.45834438  0.08250736  0.89709717  1
  P  P220  1  0.45794496  0.41903545  0.14689016  1
  P  P221  1  0.45812215  0.41823409  0.39701162  1
  P  P222  1  0.45796587  0.41586918  0.64724083  1
  P  P223  1  0.45797772  0.41796782  0.89697934  1
  P  P224  1  0.45747308  0.75007785  0.14582535  1
  P  P225  1  0.45767890  0.75089529  0.39755827  1
  P  P226  1  0.45849676  0.75024144  0.64812248  1
  P  P227  1  0.45821636  0.74904856  0.89638984  1
  P  P228  1  0.95640534  0.08334275  0.14702193  1
  P  P229  1  0.95698124  0.08196410  0.39770977  1
  P  P230  1  0.95855566  0.08344575  0.64829347  1
  P  P231  1  0.95752307  0.08332140  0.89600990  1
  P  P232  1  0.95822226  0.41740945  0.14850238  1
  P  P233  1  0.95794147  0.41498901  0.39701551  1
  P  P234  1  0.95711786  0.41621226  0.64667522  1
  P  P235  1  0.95734801  0.41779410  0.89823095  1
  P  P236  1  0.95922451  0.74919119  0.14836576  1
  P  P237  1  0.95752176  0.74953118  0.39547244  1
  P  P238  1  0.95655132  0.75007128  0.64660628  1
  P  P239  1  0.95741487  0.74856921  0.89803367  1
  P  P240  1  0.20878160  0.08298771  0.22644439  1
  P  P241  1  0.20703316  0.08353957  0.47888625  1
  P  P242  1  0.20827085  0.08211728  0.72832917  1
  P  P243  1  0.20833725  0.08240851  0.97846136  1
  P  P244  1  0.20801375  0.41573924  0.22697009  1
  P  P245  1  0.20751081  0.41690483  0.47900474  1
  P  P246  1  0.20858472  0.41694931  0.72670787  1
  P  P247  1  0.20797868  0.41463168  0.97775520  1
  P  P248  1  0.20770479  0.75025609  0.22897558  1
  P  P249  1  0.20832366  0.75044506  0.47644979  1
  P  P250  1  0.20707121  0.75054609  0.72934899  1
  P  P251  1  0.20856254  0.75030880  0.97618822  1
  P  P252  1  0.70689263  0.08359116  0.22807945  1
  P  P253  1  0.70732706  0.08373871  0.47889902  1
  P  P254  1  0.70826113  0.08487443  0.72825404  1
  P  P255  1  0.70861774  0.08385784  0.97604903  1
  P  P256  1  0.70805554  0.41558981  0.22821075  1
  P  P257  1  0.70878291  0.41637043  0.47748250  1
  P  P258  1  0.70850738  0.41728763  0.72665849  1
  P  P259  1  0.70757384  0.41851281  0.97739769  1
  P  P260  1  0.70841120  0.74887223  0.22621289  1
  P  P261  1  0.70753627  0.74691854  0.47770962  1
  P  P262  1  0.70781588  0.74750883  0.72754198  1
  P  P263  1  0.70810718  0.74857299  0.97776416  1
  P  P264  1  0.29194346  0.24998280  0.02328011  1
  P  P265  1  0.29280948  0.24975310  0.27077160  1
  P  P266  1  0.29292616  0.25142090  0.52312613  1
  P  P267  1  0.29233499  0.25184641  0.77247619  1
  P  P268  1  0.29217482  0.58376744  0.02054971  1
  P  P269  1  0.29232083  0.58452345  0.27233452  1
  P  P270  1  0.29202417  0.58311217  0.52233258  1
  P  P271  1  0.29202025  0.58436775  0.77207143  1
  P  P272  1  0.29233861  0.91792502  0.02180556  1
  P  P273  1  0.29257507  0.91596675  0.27255429  1
  P  P274  1  0.29195261  0.91764358  0.52282034  1
  P  P275  1  0.29137472  0.91770320  0.77361316  1
  P  P276  1  0.79200697  0.25176183  0.02229191  1
  P  P277  1  0.79218481  0.25202305  0.27275991  1
  P  P278  1  0.79119609  0.25032220  0.52374097  1
  P  P279  1  0.79198996  0.24930087  0.77190100  1
  P  P280  1  0.79212351  0.58444116  0.02227141  1
  P  P281  1  0.79090653  0.58299061  0.27325476  1
  P  P282  1  0.79132202  0.58231979  0.52255895  1
  P  P283  1  0.79116781  0.58289935  0.77291942  1
  P  P284  1  0.79197821  0.91529501  0.02183407  1
  P  P285  1  0.79230798  0.91533378  0.27092698  1
  P  P286  1  0.79264389  0.91544836  0.52161081  1
  P  P287  1  0.79181303  0.91758029  0.77232124  1
  O  O288  1  0.03703219  0.25124791  0.18401052  1
  O  O289  1  0.03684038  0.25131408  0.43300065  1
  O  O290  1  0.03671270  0.24987261  0.68290658  1
  O  O291  1  0.03768701  0.24935994  0.93261692  1
  O  O292  1  0.03619539  0.58290988  0.18249035  1
  O  O293  1  0.03705254  0.58274717  0.43124103  1
  O  O294  1  0.03813742  0.58334411  0.68294782  1
  O  O295  1  0.03703706  0.58332316  0.93447652  1
  O  O296  1  0.03799168  0.91516303  0.18355369  1
  O  O297  1  0.03676194  0.91642651  0.43260103  1
  O  O298  1  0.03638010  0.91893751  0.68269429  1
  O  O299  1  0.03720648  0.91701499  0.93228565  1
  O  O300  1  0.53780508  0.24998089  0.18340672  1
  O  O301  1  0.53719792  0.24914446  0.43246212  1
  O  O302  1  0.53661312  0.25036841  0.68419772  1
  O  O303  1  0.53697138  0.25055793  0.93143220  1
  O  O304  1  0.53627059  0.58317023  0.18111976  1
  O  O305  1  0.53703943  0.58196713  0.43246985  1
  O  O306  1  0.53691225  0.58277422  0.68232987  1
  O  O307  1  0.53645519  0.58489323  0.93244054  1
  O  O308  1  0.53812798  0.91821596  0.18186492  1
  O  O309  1  0.53723072  0.91582831  0.43410143  1
  O  O310  1  0.53620544  0.91547064  0.68209824  1
  O  O311  1  0.53751394  0.91623537  0.93230800  1
  O  O312  1  0.46364008  0.08399605  0.06745642  1
  O  O313  1  0.46322168  0.08321113  0.31797174  1
  O  O314  1  0.46278989  0.08284573  0.56792125  1
  O  O315  1  0.46346681  0.08306940  0.81714076  1
  O  O316  1  0.46327762  0.41916481  0.06693520  1
  O  O317  1  0.46344649  0.41842857  0.31704526  1
  O  O318  1  0.46294225  0.41625338  0.56729097  1
  O  O319  1  0.46327192  0.41691391  0.81703065  1
  O  O320  1  0.46278774  0.74962848  0.06587174  1
  O  O321  1  0.46260773  0.75051723  0.31757645  1
  O  O322  1  0.46367773  0.75087580  0.56812157  1
  O  O323  1  0.46359913  0.74923091  0.81649240  1
  O  O324  1  0.96154480  0.08340641  0.06702563  1
  O  O325  1  0.96182379  0.08239971  0.31773051  1
  O  O326  1  0.96337191  0.08313690  0.56825194  1
  O  O327  1  0.96315671  0.08338477  0.81607162  1
  O  O328  1  0.96333944  0.41801033  0.06853073  1
  O  O329  1  0.96343927  0.41516241  0.31711456  1
  O  O330  1  0.96233686  0.41572203  0.56672944  1
  O  O331  1  0.96219515  0.41710686  0.81823513  1
  O  O332  1  0.96416301  0.74838059  0.06838431  1
  O  O333  1  0.96307799  0.74952326  0.31556947  1
  O  O334  1  0.96178109  0.75012457  0.56663599  1
  O  O335  1  0.96191072  0.74908152  0.81801398  1
  O  O336  1  0.21376604  0.08274042  0.05834678  1
  O  O337  1  0.21353250  0.08334685  0.30648031  1
  O  O338  1  0.21224378  0.08330310  0.55884071  1
  O  O339  1  0.21373105  0.08217876  0.80826853  1
  O  O340  1  0.21344443  0.41452470  0.05764144  1
  O  O341  1  0.21278436  0.41641153  0.30696305  1
  O  O342  1  0.21295781  0.41725630  0.55892262  1
  O  O343  1  0.21341847  0.41639822  0.80672086  1
  O  O344  1  0.21319009  0.75069891  0.05622313  1
  O  O345  1  0.21320382  0.75013496  0.30886851  1
  O  O346  1  0.21279306  0.75038985  0.55655036  1
  O  O347  1  0.21249932  0.75058277  0.80920279  1
  O  O348  1  0.71334176  0.08342691  0.05603497  1
  O  O349  1  0.71199218  0.08355818  0.30804126  1
  O  O350  1  0.71274572  0.08431186  0.55885580  1
  O  O351  1  0.71385914  0.08469491  0.80812545  1
  O  O352  1  0.71267502  0.41803029  0.05731816  1
  O  O353  1  0.71326072  0.41560350  0.30808421  1
  O  O354  1  0.71380900  0.41698349  0.55736456  1
  O  O355  1  0.71320655  0.41760361  0.80662367  1
  O  O356  1  0.71359484  0.74916504  0.05763541  1
  O  O357  1  0.71325796  0.74828140  0.30621474  1
  O  O358  1  0.71297879  0.74672762  0.55761569  1
  O  O359  1  0.71312264  0.74781826  0.80748026  1
  O  O360  1  0.28743262  0.24947389  0.19084349  1
  O  O361  1  0.28799177  0.25074575  0.44311439  1
  O  O362  1  0.28707028  0.25193319  0.69256246  1
  O  O363  1  0.28700120  0.25012349  0.94326651  1
  O  O364  1  0.28747045  0.58419209  0.19232276  1
  O  O365  1  0.28673417  0.58383886  0.44233969  1
  O  O366  1  0.28667017  0.58372804  0.69211881  1
  O  O367  1  0.28662083  0.58394915  0.94065274  1
  O  O368  1  0.28749968  0.91667161  0.19259250  1
  O  O369  1  0.28674174  0.91652918  0.44290127  1
  O  O370  1  0.28665054  0.91780955  0.69362358  1
  O  O371  1  0.28680936  0.91765827  0.94193603  1
  O  O372  1  0.78700332  0.25219871  0.19281638  1
  O  O373  1  0.78633556  0.25088090  0.44378076  1
  O  O374  1  0.78662431  0.24931633  0.69206088  1
  O  O375  1  0.78663795  0.25111435  0.94236263  1
  O  O376  1  0.78621894  0.58315131  0.19329861  1
  O  O377  1  0.78602482  0.58222673  0.44267857  1
  O  O378  1  0.78588443  0.58268943  0.69302646  1
  O  O379  1  0.78712527  0.58405761  0.94241247  1
  O  O380  1  0.78682614  0.91499988  0.19096742  1
  O  O381  1  0.78743848  0.91539122  0.44162830  1
  O  O382  1  0.78722629  0.91748621  0.69235606  1
  O  O383  1  0.78682334  0.91565106  0.94186951  1
  O  O384  1  0.22783567  0.24979701  0.05936167  1
  O  O385  1  0.22856592  0.25005103  0.30655804  1
  O  O386  1  0.22855464  0.25169655  0.55849565  1
  O  O387  1  0.22812212  0.25147785  0.80835603  1
  O  O388  1  0.22799560  0.58325010  0.05627059  1
  O  O389  1  0.22792210  0.58526780  0.30768189  1
  O  O390  1  0.22778854  0.58239868  0.55808446  1
  O  O391  1  0.22789037  0.58461776  0.80807343  1
  O  O392  1  0.22821967  0.91854964  0.05806662  1
  O  O393  1  0.22825227  0.91518578  0.30821538  1
  O  O394  1  0.22763679  0.91865831  0.55856650  1
  O  O395  1  0.22719358  0.91795239  0.80943819  1
  O  O396  1  0.72780355  0.25231675  0.05825117  1
  O  O397  1  0.72788599  0.25233029  0.30846464  1
  O  O398  1  0.72709768  0.24968355  0.55979214  1
  O  O399  1  0.72787726  0.24913754  0.80818255  1
  O  O400  1  0.72786224  0.58479299  0.05810602  1
  O  O401  1  0.72672016  0.58320635  0.30910917  1
  O  O402  1  0.72727595  0.58213530  0.55910805  1
  O  O403  1  0.72714845  0.58299113  0.80950292  1
  O  O404  1  0.72774209  0.91481242  0.05757470  1
  O  O405  1  0.72811284  0.91545590  0.30665582  1
  O  O406  1  0.72832693  0.91562758  0.55692462  1
  O  O407  1  0.72748525  0.91707530  0.80754081  1
  O  O408  1  0.27298459  0.08267652  0.19062625  1
  O  O409  1  0.27142597  0.08334511  0.44364830  1
  O  O410  1  0.27238975  0.08213253  0.69218827  1
  O  O411  1  0.27245145  0.08221060  0.94224544  1
  O  O412  1  0.27240169  0.41529139  0.19166900  1
  O  O413  1  0.27172981  0.41740628  0.44322863  1
  O  O414  1  0.27277195  0.41706765  0.69072511  1
  O  O415  1  0.27218561  0.41504524  0.94182278  1
  O  O416  1  0.27183100  0.75037835  0.19298932  1
  O  O417  1  0.27268334  0.75042508  0.44102636  1
  O  O418  1  0.27125911  0.75055528  0.69355308  1
  O  O419  1  0.27275372  0.74998031  0.94049125  1
  O  O420  1  0.77126286  0.08341086  0.19289666  1
  O  O421  1  0.77155880  0.08379023  0.44332611  1
  O  O422  1  0.77229888  0.08514891  0.69186375  1
  O  O423  1  0.77280492  0.08456820  0.94026924  1
  O  O424  1  0.77222163  0.41548885  0.19208928  1
  O  O425  1  0.77278214  0.41607656  0.44103470  1
  O  O426  1  0.77263207  0.41768794  0.69070732  1
  O  O427  1  0.77185808  0.41857909  0.94169488  1
  O  O428  1  0.77266508  0.74883153  0.19032434  1
  O  O429  1  0.77168943  0.74661972  0.44165443  1
  O  O430  1  0.77204294  0.74722826  0.69176503  1
  O  O431  1  0.77217199  0.74826862  0.94146111  1
  O  O432  1  0.02085612  0.08341722  0.18193756  1
  O  O433  1  0.02141109  0.08204489  0.43293259  1
  O  O434  1  0.02271374  0.08345238  0.68427746  1
  O  O435  1  0.02169565  0.08320256  0.93186438  1
  O  O436  1  0.02241070  0.41760617  0.18445119  1
  O  O437  1  0.02206223  0.41444777  0.43319126  1
  O  O438  1  0.02145040  0.41608319  0.68194196  1
  O  O439  1  0.02179123  0.41849097  0.93337168  1
  O  O440  1  0.02327432  0.74972932  0.18441783  1
  O  O441  1  0.02168237  0.75000356  0.43130076  1
  O  O442  1  0.02095373  0.75038132  0.68166574  1
  O  O443  1  0.02195566  0.74788178  0.93293937  1
  O  O444  1  0.52263749  0.08536496  0.18315953  1
  O  O445  1  0.52178915  0.08105802  0.43393908  1
  O  O446  1  0.52195590  0.08393761  0.68346277  1
  O  O447  1  0.52270738  0.08213846  0.93256630  1
  O  O448  1  0.52213290  0.41883773  0.18279549  1
  O  O449  1  0.52236415  0.41832357  0.43281118  1
  O  O450  1  0.52223285  0.41568927  0.68282513  1
  O  O451  1  0.52223246  0.41885387  0.93270055  1
  O  O452  1  0.52178109  0.74978768  0.18120524  1
  O  O453  1  0.52200556  0.75094343  0.43296215  1
  O  O454  1  0.52266568  0.74990540  0.68417447  1
  O  O455  1  0.52228677  0.74888277  0.93257628  1
  O  O456  1  0.47889732  0.25053638  0.06805757  1
  O  O457  1  0.47818858  0.24899108  0.31673259  1
  O  O458  1  0.47825274  0.25017192  0.56826474  1
  O  O459  1  0.47709461  0.25049502  0.81600596  1
  O  O460  1  0.47721848  0.58337963  0.06495378  1
  O  O461  1  0.47781992  0.58178440  0.31690382  1
  O  O462  1  0.47782916  0.58194902  0.56666354  1
  O  O463  1  0.47787120  0.58502743  0.81632913  1
  O  O464  1  0.47856878  0.91854133  0.06656775  1
  O  O465  1  0.47877820  0.91674365  0.31820878  1
  O  O466  1  0.47720481  0.91650272  0.56600021  1
  O  O467  1  0.47820204  0.91485662  0.81696561  1
  O  O468  1  0.97817931  0.25069190  0.06861383  1
  O  O469  1  0.97774711  0.25158993  0.31753063  1
  O  O470  1  0.97770635  0.25107895  0.56710407  1
  O  O471  1  0.97828887  0.24795567  0.81733250  1
  O  O472  1  0.97732437  0.58320092  0.06627679  1
  O  O473  1  0.97714652  0.58194344  0.31590864  1
  O  O474  1  0.97855932  0.58301960  0.56817414  1
  O  O475  1  0.97807440  0.58320026  0.81890260  1
  O  O476  1  0.97868584  0.91550936  0.06848801  1
  O  O477  1  0.97824073  0.91444649  0.31664443  1
  O  O478  1  0.97759136  0.91862127  0.56685372  1
  O  O479  1  0.97743323  0.91822501  0.81715553  1
  O  O480  1  0.07371734  0.31387484  0.07555407  1
  O  O481  1  0.07309562  0.31457218  0.32413925  1
  O  O482  1  0.07259796  0.31436402  0.57475511  1
  O  O483  1  0.07309462  0.31273603  0.82467237  1
  O  O484  1  0.07238508  0.64674892  0.07430659  1
  O  O485  1  0.07162689  0.64636404  0.32262901  1
  O  O486  1  0.07388655  0.64681775  0.57470160  1
  O  O487  1  0.07346347  0.64660622  0.82593341  1
  O  O488  1  0.07362340  0.97958620  0.07570582  1
  O  O489  1  0.07315845  0.97916770  0.32455034  1
  O  O490  1  0.07268607  0.98186590  0.57382501  1
  O  O491  1  0.07285433  0.98092890  0.82400278  1
  O  O492  1  0.57395643  0.31430217  0.07565056  1
  O  O493  1  0.57353789  0.31245910  0.32484546  1
  O  O494  1  0.57367815  0.31325936  0.57562928  1
  O  O495  1  0.57221653  0.31412496  0.82329232  1
  O  O496  1  0.57179439  0.64745783  0.07315442  1
  O  O497  1  0.57273778  0.64585940  0.32455890  1
  O  O498  1  0.57321308  0.64548323  0.57424801  1
  O  O499  1  0.57281379  0.64822598  0.82358053  1
  O  O500  1  0.57348355  0.98202804  0.07326007  1
  O  O501  1  0.57447343  0.97947903  0.32624700  1
  O  O502  1  0.57204431  0.98002677  0.57450184  1
  O  O503  1  0.57378174  0.97847494  0.82385078  1
  O  O504  1  0.42749814  0.02110679  0.17566478  1
  O  O505  1  0.42652756  0.01872015  0.42588186  1
  O  O506  1  0.42636345  0.02041350  0.67607560  1
  O  O507  1  0.42786946  0.01876319  0.92545966  1
  O  O508  1  0.42698490  0.35524612  0.17452280  1
  O  O509  1  0.42726426  0.35425918  0.42437189  1
  O  O510  1  0.42731935  0.35237316  0.67597761  1
  O  O511  1  0.42721335  0.35449686  0.92560699  1
  O  O512  1  0.42595089  0.68705474  0.17434358  1
  O  O513  1  0.42677587  0.68724307  0.42554021  1
  O  O514  1  0.42785904  0.68618824  0.67562812  1
  O  O515  1  0.42721374  0.68575272  0.92513078  1
  O  O516  1  0.92550039  0.01972348  0.17483191  1
  O  O517  1  0.92652654  0.01829092  0.42600076  1
  O  O518  1  0.92746890  0.02006671  0.67671408  1
  O  O519  1  0.92622630  0.01999003  0.92430305  1
  O  O520  1  0.92789826  0.35339826  0.17642735  1
  O  O521  1  0.92668478  0.35196227  0.42601680  1
  O  O522  1  0.92567461  0.35320029  0.67529888  1
  O  O523  1  0.92678649  0.35394783  0.92623813  1
  O  O524  1  0.92867846  0.68545815  0.17707552  1
  O  O525  1  0.92664058  0.68586599  0.42365961  1
  O  O526  1  0.92572340  0.68655870  0.67476676  1
  O  O527  1  0.92648645  0.68531682  0.92668486  1
  O  O528  1  0.17793299  0.01916916  0.19878834  1
  O  O529  1  0.17563455  0.02050203  0.45019189  1
  O  O530  1  0.17738284  0.01883386  0.69964371  1
  O  O531  1  0.17720037  0.01915125  0.94974282  1
  O  O532  1  0.17720318  0.35216141  0.19887164  1
  O  O533  1  0.17680618  0.35324305  0.45063921  1
  O  O534  1  0.17765272  0.35348451  0.69820796  1
  O  O535  1  0.17731012  0.35118167  0.94896056  1
  O  O536  1  0.17654961  0.68686354  0.20045467  1
  O  O537  1  0.17774711  0.68662166  0.44821064  1
  O  O538  1  0.17574677  0.68731330  0.70084315  1
  O  O539  1  0.17754760  0.68668057  0.94842776  1
  O  O540  1  0.67572213  0.02024049  0.19990507  1
  O  O541  1  0.67652317  0.01989909  0.45122232  1
  O  O542  1  0.67711151  0.02116547  0.70038153  1
  O  O543  1  0.67871426  0.01972739  0.94736590  1
  O  O544  1  0.67711716  0.35242834  0.19899018  1
  O  O545  1  0.67763117  0.35275965  0.44956366  1
  O  O546  1  0.67857349  0.35294828  0.69853060  1
  O  O547  1  0.67630069  0.35517632  0.94907294  1
  O  O548  1  0.67735878  0.68543702  0.19774622  1
  O  O549  1  0.67627219  0.68384353  0.44889846  1
  O  O550  1  0.67672520  0.68427287  0.69899191  1
  O  O551  1  0.67715890  0.68508048  0.94933954  1
  O  O552  1  0.32285903  0.31353954  0.05156079  1
  O  O553  1  0.32415201  0.31312744  0.29901070  1
  O  O554  1  0.32365872  0.31507193  0.55119337  1
  O  O555  1  0.32299028  0.31523839  0.80135638  1
  O  O556  1  0.32326384  0.64710440  0.04885056  1
  O  O557  1  0.32337240  0.64784130  0.30090002  1
  O  O558  1  0.32300962  0.64668202  0.55047014  1
  O  O559  1  0.32267843  0.64809398  0.80027374  1
  O  O560  1  0.32354464  0.98110861  0.05059463  1
  O  O561  1  0.32337743  0.97956414  0.30085031  1
  O  O562  1  0.32291282  0.98120117  0.55091555  1
  O  O563  1  0.32283645  0.98077370  0.80217106  1
  O  O564  1  0.82274574  0.31546904  0.05046036  1
  O  O565  1  0.82340723  0.31496085  0.30184554  1
  O  O566  1  0.82149954  0.31417309  0.55241193  1
  O  O567  1  0.82296122  0.31310200  0.79975348  1
  O  O568  1  0.82315604  0.64767829  0.05125309  1
  O  O569  1  0.82215876  0.64626072  0.30155066  1
  O  O570  1  0.82213868  0.64591767  0.55110433  1
  O  O571  1  0.82219404  0.64642779  0.80127698  1
  O  O572  1  0.82306892  0.97887743  0.04972709  1
  O  O573  1  0.82333219  0.97897939  0.29885763  1
  O  O574  1  0.82382445  0.97886024  0.54964802  1
  O  O575  1  0.82174197  0.98150584  0.80120326  1
  O  O576  1  0.42745025  0.14819599  0.17578863  1
  O  O577  1  0.42676046  0.14585174  0.42608119  1
  O  O578  1  0.42716571  0.14749994  0.67625404  1
  O  O579  1  0.42714123  0.14596264  0.92534118  1
  O  O580  1  0.42696006  0.48235289  0.17559356  1
  O  O581  1  0.42705163  0.48141129  0.42601484  1
  O  O582  1  0.42670842  0.47936471  0.67527766  1
  O  O583  1  0.42689657  0.48164240  0.92471469  1
  O  O584  1  0.42681022  0.81399965  0.17369979  1
  O  O585  1  0.42691072  0.81436134  0.42618298  1
  O  O586  1  0.42749200  0.81363684  0.67687527  1
  O  O587  1  0.42703303  0.81265130  0.92450781  1
  O  O588  1  0.92530002  0.14679767  0.17522686  1
  O  O589  1  0.92591533  0.14558089  0.42580319  1
  O  O590  1  0.92812827  0.14747872  0.67638868  1
  O  O591  1  0.92628933  0.14673869  0.92438613  1
  O  O592  1  0.92689804  0.48071402  0.17711304  1
  O  O593  1  0.92711287  0.47892549  0.42485005  1
  O  O594  1  0.92634736  0.48000958  0.67469651  1
  O  O595  1  0.92632223  0.48117481  0.92662612  1
  O  O596  1  0.92814331  0.81289268  0.17606587  1
  O  O597  1  0.92584445  0.81262420  0.42390446  1
  O  O598  1  0.92538039  0.81357917  0.67466372  1
  O  O599  1  0.92692284  0.81249907  0.92617683  1
  O  O600  1  0.07343190  0.18699645  0.07620501  1
  O  O601  1  0.07293316  0.18743243  0.32533796  1
  O  O602  1  0.07318127  0.18727309  0.57471108  1
  O  O603  1  0.07390262  0.18550537  0.82426897  1
  O  O604  1  0.07233062  0.51951144  0.07399057  1
  O  O605  1  0.07275780  0.51901596  0.32320602  1
  O  O606  1  0.07412820  0.51983247  0.57472077  1
  O  O607  1  0.07361412  0.51988916  0.82604833  1
  O  O608  1  0.07460757  0.85268564  0.07483555  1
  O  O609  1  0.07359527  0.85197235  0.32475819  1
  O  O610  1  0.07279825  0.85470031  0.57524747  1
  O  O611  1  0.07236637  0.85365647  0.82413521  1
  O  O612  1  0.57468270  0.18754417  0.07462138  1
  O  O613  1  0.57293135  0.18504937  0.32440312  1
  O  O614  1  0.57356626  0.18660323  0.57627757  1
  O  O615  1  0.57182116  0.18643930  0.82320364  1
  O  O616  1  0.57248615  0.52006722  0.07271026  1
  O  O617  1  0.57326770  0.51881432  0.32357677  1
  O  O618  1  0.57266120  0.51832644  0.57411659  1
  O  O619  1  0.57319926  0.52134434  0.82471174  1
  O  O620  1  0.57397372  0.85476612  0.07404244  1
  O  O621  1  0.57393239  0.85281060  0.32524711  1
  O  O622  1  0.57222026  0.85247679  0.57367020  1
  O  O623  1  0.57323445  0.85151027  0.82408638  1
  O  O624  1  0.32274161  0.18609632  0.05112916  1
  O  O625  1  0.32378947  0.18636304  0.29952012  1
  O  O626  1  0.32388505  0.18786551  0.55134433  1
  O  O627  1  0.32351877  0.18811519  0.80007119  1
  O  O628  1  0.32345628  0.52021974  0.04839904  1
  O  O629  1  0.32291262  0.52064010  0.30017949  1
  O  O630  1  0.32300147  0.51961840  0.55066081  1
  O  O631  1  0.32337193  0.52093840  0.79997224  1
  O  O632  1  0.32324412  0.85414786  0.04972584  1
  O  O633  1  0.32351179  0.85245473  0.30090437  1
  O  O634  1  0.32272161  0.85409846  0.55144765  1
  O  O635  1  0.32152473  0.85349975  0.80188001  1
  O  O636  1  0.82312266  0.18826610  0.05045571  1
  O  O637  1  0.82282676  0.18796223  0.30041013  1
  O  O638  1  0.82244044  0.18674613  0.55153810  1
  O  O639  1  0.82310566  0.18617321  0.80090556  1
  O  O640  1  0.82302654  0.52094066  0.05092364  1
  O  O641  1  0.82116007  0.51897817  0.30168728  1
  O  O642  1  0.82247598  0.51884587  0.55098369  1
  O  O643  1  0.82202590  0.51925353  0.80141264  1
  O  O644  1  0.82282958  0.85170180  0.05027997  1
  O  O645  1  0.82355707  0.85200448  0.29915728  1
  O  O646  1  0.82353672  0.85178467  0.54947272  1
  O  O647  1  0.82350083  0.85422994  0.79987554  1
  O  O648  1  0.17811668  0.14668625  0.19810984  1
  O  O649  1  0.17634466  0.14731168  0.45073138  1
  O  O650  1  0.17725091  0.14602013  0.70095540  1
  O  O651  1  0.17721346  0.14601460  0.95031869  1
  O  O652  1  0.17726330  0.47945802  0.19880764  1
  O  O653  1  0.17582733  0.47993605  0.45032149  1
  O  O654  1  0.17802173  0.48104161  0.69904349  1
  O  O655  1  0.17664537  0.47822941  0.95011842  1
  O  O656  1  0.17645014  0.81354773  0.20049369  1
  O  O657  1  0.17768018  0.81424348  0.44848303  1
  O  O658  1  0.17584838  0.81392170  0.70080147  1
  O  O659  1  0.17820795  0.81431989  0.94799735  1
  O  O660  1  0.67618538  0.14727723  0.19995459  1
  O  O661  1  0.67578715  0.14688546  0.45058497  1
  O  O662  1  0.67708826  0.14813984  0.69961859  1
  O  O663  1  0.67724312  0.14736304  0.94840439  1
  O  O664  1  0.67695232  0.47926947  0.20019368  1
  O  O665  1  0.67814863  0.47989865  0.44830736  1
  O  O666  1  0.67687738  0.48023748  0.69807285  1
  O  O667  1  0.67703025  0.48217500  0.94891341  1
  O  O668  1  0.67790184  0.81281891  0.19813705  1
  O  O669  1  0.67680281  0.81087632  0.45007956  1
  O  O670  1  0.67705415  0.81142984  0.69970107  1
  O  O671  1  0.67675694  0.81192420  0.94939010  1
