# generated using pymatgen
data_Na2MnFe(PO4)2
_symmetry_space_group_name_H-M   'P 1'
_cell_length_a   22.34695334
_cell_length_b   20.09639847
_cell_length_c   19.44706164
_cell_angle_alpha   89.94391665
_cell_angle_beta   90.01301508
_cell_angle_gamma   89.93337580
_symmetry_Int_Tables_number   1
_chemical_formula_structural   Na2MnFe(PO4)2
_chemical_formula_sum   'Na96 Mn48 Fe48 P96 O384'
_cell_volume   8733.53436143
_cell_formula_units_Z   48
loop_
 _symmetry_equiv_pos_site_id
 _symmetry_equiv_pos_as_xyz
  1  'x, y, z'
loop_
 _atom_site_type_symbol
 _atom_site_label
 _atom_site_symmetry_multiplicity
 _atom_site_fract_x
 _atom_site_fract_y
 _atom_site_fract_z
 _atom_site_occupancy
  Na  Na0  1  0.14030288  0.25077836  0.24365776  1
  Na  Na1  1  0.14066594  0.24989832  0.49370895  1
  Na  Na2  1  0.14087386  0.25008740  0.74240512  1
  Na  Na3  1  0.14015976  0.25198935  0.99360497  1
  Na  Na4  1  0.14074896  0.58282606  0.24353353  1
  Na  Na5  1  0.14004134  0.58346843  0.49396829  1
  Na  Na6  1  0.13993679  0.58290442  0.74303969  1
  Na  Na7  1  0.14073258  0.58439437  0.99291414  1
  Na  Na8  1  0.13965840  0.91653357  0.24390338  1
  Na  Na9  1  0.14002803  0.91796048  0.49256185  1
  Na  Na10  1  0.14004956  0.91611891  0.74309782  1
  Na  Na11  1  0.13932751  0.91541863  0.99215215  1
  Na  Na12  1  0.64064674  0.25098271  0.24360056  1
  Na  Na13  1  0.64048005  0.25000576  0.49370880  1
  Na  Na14  1  0.64039048  0.24998418  0.74415058  1
  Na  Na15  1  0.64045566  0.24967841  0.99459888  1
  Na  Na16  1  0.64099995  0.58358574  0.24443350  1
  Na  Na17  1  0.64061699  0.58453851  0.49418579  1
  Na  Na18  1  0.64027456  0.58293808  0.74448549  1
  Na  Na19  1  0.64079086  0.58273849  0.99383522  1
  Na  Na20  1  0.63952464  0.91753348  0.24343362  1
  Na  Na21  1  0.64040411  0.91707190  0.49344068  1
  Na  Na22  1  0.64028829  0.91510775  0.74520583  1
  Na  Na23  1  0.63956513  0.91693094  0.99439988  1
  Na  Na24  1  0.35903656  0.08332985  0.00631622  1
  Na  Na25  1  0.35900681  0.08195834  0.25681462  1
  Na  Na26  1  0.35895498  0.08389585  0.50524208  1
  Na  Na27  1  0.35906351  0.08243674  0.75523282  1
  Na  Na28  1  0.35945397  0.41737965  0.00655976  1
  Na  Na29  1  0.35957518  0.41539899  0.25550672  1
  Na  Na30  1  0.36013184  0.41539299  0.50800461  1
  Na  Na31  1  0.36002553  0.41697193  0.75654508  1
  Na  Na32  1  0.35973787  0.74902017  0.00666985  1
  Na  Na33  1  0.35951933  0.75021347  0.25580723  1
  Na  Na34  1  0.35941478  0.75031782  0.50638280  1
  Na  Na35  1  0.35911054  0.74887562  0.75750980  1
  Na  Na36  1  0.85964677  0.08265506  0.00652547  1
  Na  Na37  1  0.85960265  0.08313173  0.25616629  1
  Na  Na38  1  0.85949813  0.08276675  0.50494179  1
  Na  Na39  1  0.85926576  0.08205970  0.75560159  1
  Na  Na40  1  0.86007866  0.41500324  0.00646543  1
  Na  Na41  1  0.86041536  0.41690287  0.25628089  1
  Na  Na42  1  0.86059980  0.41745550  0.50667816  1
  Na  Na43  1  0.86044005  0.41692819  0.75578775  1
  Na  Na44  1  0.86040297  0.75035821  0.00656708  1
  Na  Na45  1  0.85971209  0.75136464  0.25637776  1
  Na  Na46  1  0.85994425  0.75174128  0.50721037  1
  Na  Na47  1  0.86058481  0.74963488  0.75642633  1
  Na  Na48  1  0.10914102  0.08275434  0.11905009  1
  Na  Na49  1  0.10991222  0.08372480  0.36839139  1
  Na  Na50  1  0.10986498  0.08343863  0.61669720  1
  Na  Na51  1  0.10899940  0.08184245  0.86830431  1
  Na  Na52  1  0.11011273  0.41709753  0.11771390  1
  Na  Na53  1  0.11000896  0.41718113  0.36981100  1
  Na  Na54  1  0.10993199  0.41829560  0.61786617  1
  Na  Na55  1  0.11005701  0.41752890  0.86839322  1
  Na  Na56  1  0.10956341  0.75022625  0.11724732  1
  Na  Na57  1  0.10952666  0.75104686  0.36911234  1
  Na  Na58  1  0.10922346  0.75052688  0.61856209  1
  Na  Na59  1  0.10967268  0.74916098  0.86784943  1
  Na  Na60  1  0.60940360  0.08289927  0.11873249  1
  Na  Na61  1  0.60936048  0.08270947  0.36716419  1
  Na  Na62  1  0.60953034  0.08360077  0.61847289  1
  Na  Na63  1  0.60901591  0.08314388  0.87000537  1
  Na  Na64  1  0.61003883  0.41687737  0.11878808  1
  Na  Na65  1  0.61012373  0.41622300  0.36912514  1
  Na  Na66  1  0.60953088  0.41736339  0.61933694  1
  Na  Na67  1  0.60954884  0.41566405  0.86944458  1
  Na  Na68  1  0.60902454  0.75141743  0.11875491  1
  Na  Na69  1  0.60927300  0.75070082  0.36923046  1
  Na  Na70  1  0.60974546  0.74954923  0.61924095  1
  Na  Na71  1  0.60973086  0.74951193  0.86990874  1
  Na  Na72  1  0.39013537  0.24996012  0.13142500  1
  Na  Na73  1  0.39007756  0.24987051  0.38116972  1
  Na  Na74  1  0.39002991  0.25128345  0.63170066  1
  Na  Na75  1  0.39014242  0.24986907  0.88064513  1
  Na  Na76  1  0.39002576  0.58371025  0.13113501  1
  Na  Na77  1  0.39053374  0.58232609  0.38075039  1
  Na  Na78  1  0.39044546  0.58251935  0.63212834  1
  Na  Na79  1  0.38992426  0.58235832  0.88245740  1
  Na  Na80  1  0.39006976  0.91681326  0.13082160  1
  Na  Na81  1  0.38933646  0.91566916  0.38128046  1
  Na  Na82  1  0.38967776  0.91674233  0.63064985  1
  Na  Na83  1  0.39019112  0.91542234  0.88200251  1
  Na  Na84  1  0.89080198  0.24959423  0.13146819  1
  Na  Na85  1  0.89074617  0.25137396  0.38138661  1
  Na  Na86  1  0.89087716  0.25125621  0.63077975  1
  Na  Na87  1  0.89075672  0.24946548  0.88163297  1
  Na  Na88  1  0.89086099  0.58293659  0.13096955  1
  Na  Na89  1  0.89144374  0.58393721  0.38251016  1
  Na  Na90  1  0.89106140  0.58488481  0.63132294  1
  Na  Na91  1  0.89111096  0.58319747  0.88118182  1
  Na  Na92  1  0.89028479  0.91712258  0.13109137  1
  Na  Na93  1  0.89001702  0.91666844  0.38213954  1
  Na  Na94  1  0.89019611  0.91626595  0.63067817  1
  Na  Na95  1  0.89054220  0.91500142  0.88159859  1
  Mn  Mn96  1  0.25075627  0.66690958  0.37460235  1
  Mn  Mn97  1  -0.00033904  -0.00126149  0.74894654  1
  Mn  Mn98  1  0.24948542  0.66601166  0.62530910  1
  Mn  Mn99  1  0.00005726  0.16745199  0.49913987  1
  Mn  Mn100  1  0.25000437  0.83224282  0.12451928  1
  Mn  Mn101  1  0.50020244  -0.00012102  0.75025261  1
  Mn  Mn102  1  0.00021957  0.16652345  0.74974772  1
  Mn  Mn103  1  0.74995028  0.16662827  0.37493751  1
  Mn  Mn104  1  0.49972341  0.16771315  0.49897696  1
  Mn  Mn105  1  0.49968255  -0.00034949  0.49945049  1
  Mn  Mn106  1  0.50054552  0.49924370  0.25068414  1
  Mn  Mn107  1  0.50003227  0.49970064  0.50034691  1
  Mn  Mn108  1  0.50045079  0.66729281  0.25023691  1
  Mn  Mn109  1  0.74953003  0.16649588  0.87517054  1
  Mn  Mn110  1  0.00009837  0.66735860  0.25047799  1
  Mn  Mn111  1  0.75036813  0.33334329  0.12509821  1
  Mn  Mn112  1  -0.00075663  0.83430890  0.24938819  1
  Mn  Mn113  1  0.24909973  -0.00047707  0.12524391  1
  Mn  Mn114  1  0.50002903  0.83232558  0.50030145  1
  Mn  Mn115  1  0.00046464  0.16605964  0.00030338  1
  Mn  Mn116  1  0.49987274  0.16685637  0.24950137  1
  Mn  Mn117  1  0.75136767  0.50034331  0.37534490  1
  Mn  Mn118  1  0.75050453  0.16554682  0.62426804  1
  Mn  Mn119  1  0.75118660  0.66799017  0.37447492  1
  Mn  Mn120  1  0.24945315  0.16688322  0.87449240  1
  Mn  Mn121  1  0.24946325  0.33253048  0.37572704  1
  Mn  Mn122  1  0.49929756  0.66565395  0.75055334  1
  Mn  Mn123  1  0.25042122  0.49937740  0.37447659  1
  Mn  Mn124  1  0.49989870  0.49943949  0.00083730  1
  Mn  Mn125  1  0.75010818  0.83337448  0.62506905  1
  Mn  Mn126  1  0.00108178  0.49972280  0.25051241  1
  Mn  Mn127  1  0.24912573  -0.00075978  0.87489790  1
  Mn  Mn128  1  0.00008778  0.16697159  0.24993692  1
  Mn  Mn129  1  0.74949417  0.83450782  0.12602577  1
  Mn  Mn130  1  0.00101484  0.33448994  0.75017826  1
  Mn  Mn131  1  0.24883686  0.16739014  0.12528345  1
  Mn  Mn132  1  0.75075417  0.49893077  0.87443570  1
  Mn  Mn133  1  0.49941981  0.16749679  0.74981005  1
  Mn  Mn134  1  0.74989311  0.50083937  0.62555884  1
  Mn  Mn135  1  0.49953934  0.16675706  0.00035118  1
  Mn  Mn136  1  0.75033002  0.33320023  0.62490418  1
  Mn  Mn137  1  0.74940068  -0.00080476  0.87568243  1
  Mn  Mn138  1  0.24947323  0.83394299  0.62522454  1
  Mn  Mn139  1  0.00020151  0.50000523  -0.00014149  1
  Mn  Mn140  1  0.25041019  0.33465588  0.87386182  1
  Mn  Mn141  1  0.74981663  0.66641778  0.12565945  1
  Mn  Mn142  1  0.75090679  0.66685206  0.87555971  1
  Mn  Mn143  1  0.49939986  0.83272261  0.75076596  1
  Fe  Fe144  1  0.00036090  0.33323940  -0.00029720  1
  Fe  Fe145  1  0.75027990  0.16665147  0.12546616  1
  Fe  Fe146  1  0.00009031  0.66658332  -0.00075463  1
  Fe  Fe147  1  0.74912700  0.00053381  0.37471865  1
  Fe  Fe148  1  0.25000090  0.33322690  0.62514693  1
  Fe  Fe149  1  0.24946442  0.66651549  0.12445335  1
  Fe  Fe150  1  -0.00026528  0.00024203  0.49967787  1
  Fe  Fe151  1  0.49891731  0.83354838  0.24933062  1
  Fe  Fe152  1  -0.00005007  0.50069247  0.74936724  1
  Fe  Fe153  1  0.00015854  0.83283709  -0.00036455  1
  Fe  Fe154  1  0.00026014  0.66692057  0.74951332  1
  Fe  Fe155  1  0.74951504  -0.00066336  0.62522462  1
  Fe  Fe156  1  0.50032893  0.33363418  0.75055375  1
  Fe  Fe157  1  0.00021419  0.66750812  0.50085875  1
  Fe  Fe158  1  0.75052962  0.33374421  0.37455402  1
  Fe  Fe159  1  0.25093418  0.50003918  0.62517863  1
  Fe  Fe160  1  0.25015848  0.66593309  0.87500004  1
  Fe  Fe161  1  0.50038297  0.66636790  0.00062996  1
  Fe  Fe162  1  0.24912361  0.83333855  0.37508969  1
  Fe  Fe163  1  -0.00042550  -0.00076345  -0.00052566  1
  Fe  Fe164  1  0.50047037  0.49972661  0.75081148  1
  Fe  Fe165  1  0.25025779  0.33373768  0.12458510  1
  Fe  Fe166  1  0.75012069  0.00017567  0.12524613  1
  Fe  Fe167  1  0.00010108  -0.00017926  0.24971251  1
  Fe  Fe168  1  0.49993778  0.33332323  0.25022460  1
  Fe  Fe169  1  0.49948158  0.66624128  0.50033175  1
  Fe  Fe170  1  0.24971368  0.16599225  0.62433675  1
  Fe  Fe171  1  0.74926237  0.83450411  0.37558022  1
  Fe  Fe172  1  0.49912017  -0.00046279  0.24894560  1
  Fe  Fe173  1  0.00039236  0.83285561  0.75004113  1
  Fe  Fe174  1  0.49910663  -0.00030860  0.00011331  1
  Fe  Fe175  1  0.75029636  0.83302018  0.87520893  1
  Fe  Fe176  1  0.00018710  0.83367561  0.49993763  1
  Fe  Fe177  1  0.00016622  0.33405331  0.25054971  1
  Fe  Fe178  1  0.00060012  0.33442790  0.50030120  1
  Fe  Fe179  1  0.24940824  0.50038356  0.87520479  1
  Fe  Fe180  1  0.49979326  0.83323748  0.00064263  1
  Fe  Fe181  1  0.24994855  0.50029424  0.12449794  1
  Fe  Fe182  1  0.24980938  -0.00008188  0.62405566  1
  Fe  Fe183  1  0.49987406  0.33315740  -0.00007145  1
  Fe  Fe184  1  0.24928464  0.00003677  0.37518320  1
  Fe  Fe185  1  0.75047243  0.33250023  0.87552104  1
  Fe  Fe186  1  0.75067788  0.49960805  0.12510981  1
  Fe  Fe187  1  0.50011423  0.33380824  0.50057545  1
  Fe  Fe188  1  0.00029297  0.50083837  0.50020577  1
  Fe  Fe189  1  0.25014312  0.16673216  0.37521814  1
  Fe  Fe190  1  0.75003111  0.66751684  0.62494035  1
  Fe  Fe191  1  0.25032153  0.83274135  0.87437007  1
  P  P192  1  0.04214727  0.25143157  0.10283506  1
  P  P193  1  0.04233345  0.25190334  0.35280187  1
  P  P194  1  0.04252809  0.25181458  0.60204419  1
  P  P195  1  0.04337551  0.24990107  0.85327481  1
  P  P196  1  0.04252692  0.58468966  0.10184845  1
  P  P197  1  0.04310714  0.58379964  0.35421207  1
  P  P198  1  0.04157049  0.58412669  0.60226232  1
  P  P199  1  0.04118188  0.58355852  0.85133132  1
  P  P200  1  0.04128259  0.91680503  0.10123983  1
  P  P201  1  0.04153807  0.91799541  0.35297404  1
  P  P202  1  0.04130859  0.91636590  0.60129860  1
  P  P203  1  0.04198206  0.91476639  0.85273609  1
  P  P204  1  0.54198803  0.25144037  0.10287585  1
  P  P205  1  0.54232413  0.25141099  0.35252263  1
  P  P206  1  0.54213096  0.25178264  0.60276051  1
  P  P207  1  0.54212768  0.25116460  0.85302766  1
  P  P208  1  0.54262595  0.58444292  0.10285944  1
  P  P209  1  0.54306776  0.58333347  0.35386639  1
  P  P210  1  0.54221790  0.58408288  0.60308556  1
  P  P211  1  0.54217175  0.58186590  0.85361991  1
  P  P212  1  0.54060784  0.91695425  0.10232010  1
  P  P213  1  0.54063041  0.91615335  0.35099309  1
  P  P214  1  0.54287887  0.91632085  0.60314720  1
  P  P215  1  0.54217974  0.91608574  0.85471065  1
  P  P216  1  0.45728406  0.08216280  0.14690581  1
  P  P217  1  0.45724364  0.08300086  0.39565729  1
  P  P218  1  0.45702841  0.08374075  0.64658777  1
  P  P219  1  0.45709196  0.08233768  0.89778199  1
  P  P220  1  0.45804346  0.41532319  0.14751488  1
  P  P221  1  0.45760773  0.41495560  0.39765552  1
  P  P222  1  0.45879272  0.41689103  0.64876666  1
  P  P223  1  0.45784988  0.41528481  0.89730372  1
  P  P224  1  0.45772022  0.75140713  0.14664465  1
  P  P225  1  0.45726268  0.74851116  0.39744129  1
  P  P226  1  0.45652449  0.74931841  0.64709968  1
  P  P227  1  0.45850386  0.74930708  0.89926807  1
  P  P228  1  0.95801719  0.08181545  0.14717999  1
  P  P229  1  0.95808919  0.08232326  0.39674924  1
  P  P230  1  0.95748146  0.08317447  0.64578887  1
  P  P231  1  0.95760875  0.08162764  0.89737011  1
  P  P232  1  0.95841469  0.41553903  0.14740625  1
  P  P233  1  0.95908914  0.41718045  0.39854632  1
  P  P234  1  0.95852095  0.41881162  0.64658961  1
  P  P235  1  0.95814015  0.41589246  0.89721951  1
  P  P236  1  0.95734738  0.75015549  0.14592986  1
  P  P237  1  0.95852256  0.75033355  0.39895552  1
  P  P238  1  0.95911107  0.75050336  0.64778849  1
  P  P239  1  0.95903991  0.74957037  0.89749028  1
  P  P240  1  0.20697496  0.08329491  0.22920137  1
  P  P241  1  0.20840683  0.08377375  0.47698428  1
  P  P242  1  0.20797841  0.08260101  0.72570610  1
  P  P243  1  0.20629765  0.08359000  0.97785830  1
  P  P244  1  0.20857466  0.41661304  0.22606722  1
  P  P245  1  0.20810914  0.41664023  0.47931941  1
  P  P246  1  0.20863309  0.41735190  0.72647711  1
  P  P247  1  0.20814934  0.41841574  0.97791372  1
  P  P248  1  0.20732348  0.74869799  0.22724101  1
  P  P249  1  0.20757772  0.75103129  0.47739751  1
  P  P250  1  0.20741258  0.74964714  0.72893725  1
  P  P251  1  0.20889292  0.74943452  0.97609000  1
  P  P252  1  0.70841649  0.08331321  0.22693325  1
  P  P253  1  0.70707224  0.08191390  0.47747711  1
  P  P254  1  0.70737252  0.08161211  0.72746782  1
  P  P255  1  0.70714147  0.08319179  0.97944796  1
  P  P256  1  0.70826336  0.41788670  0.22787020  1
  P  P257  1  0.70837182  0.41587917  0.47734688  1
  P  P258  1  0.70743109  0.41611346  0.72866388  1
  P  P259  1  0.70832314  0.41508118  0.97777107  1
  P  P260  1  0.70696381  0.75086864  0.22889521  1
  P  P261  1  0.70801146  0.75148832  0.47776244  1
  P  P262  1  0.70792006  0.74894389  0.72808725  1
  P  P263  1  0.70813793  0.75128714  0.97800227  1
  P  P264  1  0.29208604  0.25155532  0.02237283  1
  P  P265  1  0.29188402  0.24909448  0.27246964  1
  P  P266  1  0.29115841  0.24947944  0.52345859  1
  P  P267  1  0.29238455  0.25000741  0.77052475  1
  P  P268  1  0.29129448  0.58355768  0.02263939  1
  P  P269  1  0.29281554  0.58309014  0.27061316  1
  P  P270  1  0.29268060  0.58228446  0.52270435  1
  P  P271  1  0.29128233  0.58242669  0.77331024  1
  P  P272  1  0.29199297  0.91590089  0.02136050  1
  P  P273  1  0.29057948  0.91616903  0.27361368  1
  P  P274  1  0.29151998  0.91806279  0.52135385  1
  P  P275  1  0.29213286  0.91560171  0.77203288  1
  P  P276  1  0.79265886  0.24850487  0.02269094  1
  P  P277  1  0.79240099  0.25093588  0.27223701  1
  P  P278  1  0.79323771  0.24992590  0.52114203  1
  P  P279  1  0.79278994  0.25056231  0.77265832  1
  P  P280  1  0.79257332  0.58181190  0.02281463  1
  P  P281  1  0.79401762  0.58336525  0.27155504  1
  P  P282  1  0.79267673  0.58536134  0.52286320  1
  P  P283  1  0.79320191  0.58384094  0.77153989  1
  P  P284  1  0.79205436  0.91753257  0.02275049  1
  P  P285  1  0.79099784  0.91759093  0.27361666  1
  P  P286  1  0.79172478  0.91830703  0.52186320  1
  P  P287  1  0.79241222  0.91515728  0.77259822  1
  O  O288  1  0.03654436  0.25167753  0.18277835  1
  O  O289  1  0.03690760  0.25196107  0.43273581  1
  O  O290  1  0.03766998  0.25130774  0.68202635  1
  O  O291  1  0.03812872  0.24989460  0.93326341  1
  O  O292  1  0.03768903  0.58434604  0.18180207  1
  O  O293  1  0.03758001  0.58366847  0.43409433  1
  O  O294  1  0.03627671  0.58363010  0.68215318  1
  O  O295  1  0.03618721  0.58404613  0.93127244  1
  O  O296  1  0.03646177  0.91694293  0.18125755  1
  O  O297  1  0.03623519  0.91785411  0.43283025  1
  O  O298  1  0.03654083  0.91547069  0.68127295  1
  O  O299  1  0.03667485  0.91527417  0.93260380  1
  O  O300  1  0.53661955  0.25134918  0.18281433  1
  O  O301  1  0.53721589  0.25130424  0.43250474  1
  O  O302  1  0.53680907  0.25178865  0.68273175  1
  O  O303  1  0.53694941  0.25092108  0.93298541  1
  O  O304  1  0.53767394  0.58422748  0.18280878  1
  O  O305  1  0.53757341  0.58355810  0.43380285  1
  O  O306  1  0.53689782  0.58311016  0.68306039  1
  O  O307  1  0.53696144  0.58250550  0.93356079  1
  O  O308  1  0.53498602  0.91685085  0.18222395  1
  O  O309  1  0.53604982  0.91596577  0.43100142  1
  O  O310  1  0.53792432  0.91623721  0.68313354  1
  O  O311  1  0.53664993  0.91609188  0.93464071  1
  O  O312  1  0.46239779  0.08211390  0.06693909  1
  O  O313  1  0.46261881  0.08270286  0.31567699  1
  O  O314  1  0.46208150  0.08390213  0.56657861  1
  O  O315  1  0.46246747  0.08280081  0.81782889  1
  O  O316  1  0.46316977  0.41534046  0.06756314  1
  O  O317  1  0.46276272  0.41493926  0.31769323  1
  O  O318  1  0.46367487  0.41674205  0.56875921  1
  O  O319  1  0.46365626  0.41589829  0.81745548  1
  O  O320  1  0.46352578  0.75118376  0.06679159  1
  O  O321  1  0.46238251  0.74940519  0.31750288  1
  O  O322  1  0.46152567  0.74878077  0.56712371  1
  O  O323  1  0.46303076  0.74910162  0.81922804  1
  O  O324  1  0.96348962  0.08167072  0.06725582  1
  O  O325  1  0.96351591  0.08223078  0.31680651  1
  O  O326  1  0.96288305  0.08320544  0.56583394  1
  O  O327  1  0.96285423  0.08201038  0.81737623  1
  O  O328  1  0.96348840  0.41544238  0.06744531  1
  O  O329  1  0.96419734  0.41661248  0.31854893  1
  O  O330  1  0.96396301  0.41855782  0.56669368  1
  O  O331  1  0.96330513  0.41692008  0.81729970  1
  O  O332  1  0.96264283  0.74999660  0.06603681  1
  O  O333  1  0.96295664  0.75080020  0.31894015  1
  O  O334  1  0.96409786  0.75023665  0.56792120  1
  O  O335  1  0.96405392  0.75002762  0.81759554  1
  O  O336  1  0.21123021  0.08360712  0.05786313  1
  O  O337  1  0.21252892  0.08328855  0.30910362  1
  O  O338  1  0.21341106  0.08330998  0.55690974  1
  O  O339  1  0.21245833  0.08289000  0.80571519  1
  O  O340  1  0.21369100  0.41802608  0.05777556  1
  O  O341  1  0.21343211  0.41620503  0.30609903  1
  O  O342  1  0.21362894  0.41672703  0.55918793  1
  O  O343  1  0.21344911  0.41786368  0.80650909  1
  O  O344  1  0.21342522  0.74852749  0.05609195  1
  O  O345  1  0.21251238  0.74952928  0.30715208  1
  O  O346  1  0.21251306  0.75096239  0.55736446  1
  O  O347  1  0.21294087  0.74960159  0.80881426  1
  O  O348  1  0.71263310  0.08346874  0.05935902  1
  O  O349  1  0.71334288  0.08289711  0.30695557  1
  O  O350  1  0.71220044  0.08151401  0.55743209  1
  O  O351  1  0.71252872  0.08219461  0.80744940  1
  O  O352  1  0.71355651  0.41595842  0.05773768  1
  O  O353  1  0.71360238  0.41724838  0.30779619  1
  O  O354  1  0.71323282  0.41623823  0.55734023  1
  O  O355  1  0.71274539  0.41530990  0.80859509  1
  O  O356  1  0.71292501  0.75102967  0.05797626  1
  O  O357  1  0.71232405  0.75144879  0.30882332  1
  O  O358  1  0.71344016  0.75069317  0.55773985  1
  O  O359  1  0.71323008  0.74962420  0.80802639  1
  O  O360  1  0.28654831  0.25017292  0.19256641  1
  O  O361  1  0.28628513  0.24900709  0.44345724  1
  O  O362  1  0.28702793  0.24996911  0.69062876  1
  O  O363  1  0.28717554  0.25144404  0.94237809  1
  O  O364  1  0.28710790  0.58316035  0.19072780  1
  O  O365  1  0.28797509  0.58255143  0.44271473  1
  O  O366  1  0.28683003  0.58236351  0.69331067  1
  O  O367  1  0.28601110  0.58341715  0.94272373  1
  O  O368  1  0.28585321  0.91612386  0.19359813  1
  O  O369  1  0.28579830  0.91775168  0.44147244  1
  O  O370  1  0.28696943  0.91650155  0.69206836  1
  O  O371  1  0.28703645  0.91545498  0.94139949  1
  O  O372  1  0.78714026  0.25032552  0.19228498  1
  O  O373  1  0.78796932  0.25053166  0.44117195  1
  O  O374  1  0.78783431  0.25012905  0.69265124  1
  O  O375  1  0.78737134  0.24915927  0.94274696  1
  O  O376  1  0.78859838  0.58255070  0.19161445  1
  O  O377  1  0.78797490  0.58515775  0.44284735  1
  O  O378  1  0.78774614  0.58471226  0.69160831  1
  O  O379  1  0.78743375  0.58197334  0.94283435  1
  O  O380  1  0.78602227  0.91818034  0.19363785  1
  O  O381  1  0.78607395  0.91808227  0.44201166  1
  O  O382  1  0.78729066  0.91563612  0.69263876  1
  O  O383  1  0.78708675  0.91655304  0.94282261  1
  O  O384  1  0.22769518  0.25201938  0.05768386  1
  O  O385  1  0.22766981  0.24813951  0.30836342  1
  O  O386  1  0.22706175  0.25047212  0.55936742  1
  O  O387  1  0.22818894  0.25059752  0.80633825  1
  O  O388  1  0.22728722  0.58357203  0.05914316  1
  O  O389  1  0.22870377  0.58337619  0.30660901  1
  O  O390  1  0.22822862  0.58145151  0.55788070  1
  O  O391  1  0.22698754  0.58236561  0.80888224  1
  O  O392  1  0.22759923  0.91586758  0.05648427  1
  O  O393  1  0.22638951  0.91600381  0.30933228  1
  O  O394  1  0.22742335  0.91852792  0.55765676  1
  O  O395  1  0.22779973  0.91465895  0.80760218  1
  O  O396  1  0.72844022  0.24828152  0.05849921  1
  O  O397  1  0.72819289  0.25136111  0.30803918  1
  O  O398  1  0.72888965  0.24944983  0.55643753  1
  O  O399  1  0.72835701  0.25131675  0.80797195  1
  O  O400  1  0.72827556  0.58150110  0.05843207  1
  O  O401  1  0.72968431  0.58381983  0.30680573  1
  O  O402  1  0.72825480  0.58560976  0.55810519  1
  O  O403  1  0.72897800  0.58347422  0.80708233  1
  O  O404  1  0.72772042  0.91857151  0.05825191  1
  O  O405  1  0.72673490  0.91687647  0.30940337  1
  O  O406  1  0.72768127  0.91801165  0.55824600  1
  O  O407  1  0.72809971  0.91458074  0.80824268  1
  O  O408  1  0.27108679  0.08338998  0.19324129  1
  O  O409  1  0.27234784  0.08397741  0.44048372  1
  O  O410  1  0.27227742  0.08184384  0.69023531  1
  O  O411  1  0.27077635  0.08319564  0.94297228  1
  O  O412  1  0.27274769  0.41692191  0.19027089  1
  O  O413  1  0.27222975  0.41604008  0.44341285  1
  O  O414  1  0.27290130  0.41679639  0.69070930  1
  O  O415  1  0.27221167  0.41895274  0.94161090  1
  O  O416  1  0.27165597  0.74778801  0.19161884  1
  O  O417  1  0.27190583  0.75171481  0.44195157  1
  O  O418  1  0.27152670  0.74980753  0.69304788  1
  O  O419  1  0.27309184  0.75004803  0.94037256  1
  O  O420  1  0.77258965  0.08329431  0.19096272  1
  O  O421  1  0.77137843  0.08189707  0.44186782  1
  O  O422  1  0.77171560  0.08106275  0.69188624  1
  O  O423  1  0.77129441  0.08304466  0.94359289  1
  O  O424  1  0.77253284  0.41805492  0.19212431  1
  O  O425  1  0.77280262  0.41534869  0.44213762  1
  O  O426  1  0.77177808  0.41681560  0.69339640  1
  O  O427  1  0.77258652  0.41445573  0.94202767  1
  O  O428  1  0.77131125  0.75053050  0.19368186  1
  O  O429  1  0.77225312  0.75266633  0.44199935  1
  O  O430  1  0.77216069  0.74863492  0.69223525  1
  O  O431  1  0.77253615  0.75156022  0.94268251  1
  O  O432  1  0.02213473  0.08188389  0.18329893  1
  O  O433  1  0.02222460  0.08244526  0.43275897  1
  O  O434  1  0.02178618  0.08285227  0.68125541  1
  O  O435  1  0.02188387  0.08122399  0.93300697  1
  O  O436  1  0.02273521  0.41520386  0.18309222  1
  O  O437  1  0.02318373  0.41756607  0.43461203  1
  O  O438  1  0.02263425  0.41922055  0.68281114  1
  O  O439  1  0.02240534  0.41572098  0.93295190  1
  O  O440  1  0.02156852  0.75072344  0.18166732  1
  O  O441  1  0.02280717  0.74957925  0.43447030  1
  O  O442  1  0.02311915  0.75097708  0.68414990  1
  O  O443  1  0.02306843  0.74886980  0.93387080  1
  O  O444  1  0.52154592  0.08191216  0.18255274  1
  O  O445  1  0.52149663  0.08343221  0.43115982  1
  O  O446  1  0.52143395  0.08385855  0.68172051  1
  O  O447  1  0.52131690  0.08201194  0.93352408  1
  O  O448  1  0.52235427  0.41506120  0.18315965  1
  O  O449  1  0.52196141  0.41509522  0.43321141  1
  O  O450  1  0.52289417  0.41716849  0.68486013  1
  O  O451  1  0.52192273  0.41498080  0.93370858  1
  O  O452  1  0.52175307  0.75221952  0.18304783  1
  O  O453  1  0.52158187  0.74770683  0.43320035  1
  O  O454  1  0.52095048  0.74924785  0.68216839  1
  O  O455  1  0.52275032  0.74939024  0.93488015  1
  O  O456  1  0.47776604  0.25161175  0.06697387  1
  O  O457  1  0.47799033  0.25124810  0.31695911  1
  O  O458  1  0.47786714  0.25194792  0.56692057  1
  O  O459  1  0.47784747  0.25146962  0.81734579  1
  O  O460  1  0.47823475  0.58443009  0.06751554  1
  O  O461  1  0.47883999  0.58314907  0.31827081  1
  O  O462  1  0.47796258  0.58446877  0.56725289  1
  O  O463  1  0.47789937  0.58110657  0.81787778  1
  O  O464  1  0.47671602  0.91671533  0.06563595  1
  O  O465  1  0.47634564  0.91614973  0.31536526  1
  O  O466  1  0.47838501  0.91609283  0.56824439  1
  O  O467  1  0.47798937  0.91647032  0.81885144  1
  O  O468  1  0.97807706  0.25113603  0.06659996  1
  O  O469  1  0.97815430  0.25202722  0.31680857  1
  O  O470  1  0.97819481  0.25180298  0.56668527  1
  O  O471  1  0.97901310  0.25038048  0.81799529  1
  O  O472  1  0.97817077  0.58497474  0.06640546  1
  O  O473  1  0.97891605  0.58335007  0.31837454  1
  O  O474  1  0.97764381  0.58475639  0.56558688  1
  O  O475  1  0.97714997  0.58298533  0.81517572  1
  O  O476  1  0.97712063  0.91687259  0.06534620  1
  O  O477  1  0.97738329  0.91855352  0.31675934  1
  O  O478  1  0.97713445  0.91685175  0.56548031  1
  O  O479  1  0.97783366  0.91449033  0.81660254  1
  O  O480  1  0.07288182  0.31477145  0.07389509  1
  O  O481  1  0.07349071  0.31512683  0.32429128  1
  O  O482  1  0.07301481  0.31561414  0.57394702  1
  O  O483  1  0.07494285  0.31303310  0.82502456  1
  O  O484  1  0.07330356  0.64803288  0.07310056  1
  O  O485  1  0.07391586  0.64735233  0.32576328  1
  O  O486  1  0.07294167  0.64764625  0.57436351  1
  O  O487  1  0.07162604  0.64724733  0.82250894  1
  O  O488  1  0.07243648  0.98013249  0.07288606  1
  O  O489  1  0.07276173  0.98111576  0.32408813  1
  O  O490  1  0.07209994  0.98020536  0.57343895  1
  O  O491  1  0.07304529  0.97821216  0.82413183  1
  O  O492  1  0.57310652  0.31457376  0.07418111  1
  O  O493  1  0.57305190  0.31481354  0.32383074  1
  O  O494  1  0.57310687  0.31514446  0.57422096  1
  O  O495  1  0.57312474  0.31440604  0.82432466  1
  O  O496  1  0.57312873  0.64811093  0.07441923  1
  O  O497  1  0.57436896  0.64651166  0.32548176  1
  O  O498  1  0.57279262  0.64781315  0.57489817  1
  O  O499  1  0.57304269  0.64546872  0.82541877  1
  O  O500  1  0.57143917  0.98067263  0.07416758  1
  O  O501  1  0.57121732  0.97996243  0.32276648  1
  O  O502  1  0.57356100  0.97987088  0.57476497  1
  O  O503  1  0.57365992  0.97931229  0.82640119  1
  O  O504  1  0.42619388  0.01894144  0.17567090  1
  O  O505  1  0.42618034  0.01961870  0.42390238  1
  O  O506  1  0.42621694  0.02014733  0.67467311  1
  O  O507  1  0.42615273  0.01887295  0.92599465  1
  O  O508  1  0.42698089  0.35213098  0.17626676  1
  O  O509  1  0.42685536  0.35166330  0.42667592  1
  O  O510  1  0.42800309  0.35325633  0.67697711  1
  O  O511  1  0.42679527  0.35186367  0.92566367  1
  O  O512  1  0.42699799  0.68762913  0.17466364  1
  O  O513  1  0.42646679  0.68492731  0.42574342  1
  O  O514  1  0.42520492  0.68626940  0.67600043  1
  O  O515  1  0.42793810  0.68544461  0.92739075  1
  O  O516  1  0.92704307  0.01860132  0.17597470  1
  O  O517  1  0.92713523  0.01911432  0.42564497  1
  O  O518  1  0.92609486  0.01990922  0.67393649  1
  O  O519  1  0.92669601  0.01807069  0.92541722  1
  O  O520  1  0.92717079  0.35251690  0.17633590  1
  O  O521  1  0.92834419  0.35361901  0.42712175  1
  O  O522  1  0.92754608  0.35518416  0.67475904  1
  O  O523  1  0.92779728  0.35199457  0.92544338  1
  O  O524  1  0.92648490  0.68679671  0.17474158  1
  O  O525  1  0.92731479  0.68699627  0.42707265  1
  O  O526  1  0.92882254  0.68663321  0.67666711  1
  O  O527  1  0.92763930  0.68614626  0.92559797  1
  O  O528  1  0.17585698  0.01986050  0.20084098  1
  O  O529  1  0.17770233  0.02015958  0.44827779  1
  O  O530  1  0.17675695  0.01922188  0.69766551  1
  O  O531  1  0.17518197  0.02024649  0.94964213  1
  O  O532  1  0.17811085  0.35282534  0.19779558  1
  O  O533  1  0.17654374  0.35343515  0.45107528  1
  O  O534  1  0.17772746  0.35361601  0.69869794  1
  O  O535  1  0.17723997  0.35494674  0.94945207  1
  O  O536  1  0.17628930  0.68536796  0.19884631  1
  O  O537  1  0.17718708  0.68708807  0.44969869  1
  O  O538  1  0.17644499  0.68615638  0.70053124  1
  O  O539  1  0.17850050  0.68577515  0.94711615  1
  O  O540  1  0.67736606  0.01995463  0.19851112  1
  O  O541  1  0.67597116  0.01895633  0.44824602  1
  O  O542  1  0.67653862  0.01802307  0.69957049  1
  O  O543  1  0.67588813  0.01987127  0.95120106  1
  O  O544  1  0.67695266  0.35459030  0.19972639  1
  O  O545  1  0.67763390  0.35246197  0.44876795  1
  O  O546  1  0.67634959  0.35303860  0.69987153  1
  O  O547  1  0.67773065  0.35128335  0.94981603  1
  O  O548  1  0.67601620  0.68724298  0.20099375  1
  O  O549  1  0.67731030  0.68792553  0.44956139  1
  O  O550  1  0.67722359  0.68531383  0.69981068  1
  O  O551  1  0.67735616  0.68749771  0.95032490  1
  O  O552  1  0.32288459  0.31498525  0.05086655  1
  O  O553  1  0.32255989  0.31264901  0.30102495  1
  O  O554  1  0.32262065  0.31281296  0.55141045  1
  O  O555  1  0.32385575  0.31319323  0.79883690  1
  O  O556  1  0.32210313  0.64718993  0.05093764  1
  O  O557  1  0.32427847  0.64623968  0.29906700  1
  O  O558  1  0.32285134  0.64625639  0.55079496  1
  O  O559  1  0.32154838  0.64637333  0.80187902  1
  O  O560  1  0.32269487  0.97956942  0.04954112  1
  O  O561  1  0.32116881  0.97993886  0.30164963  1
  O  O562  1  0.32267587  0.98137373  0.54978534  1
  O  O563  1  0.32287130  0.97914150  0.80039097  1
  O  O564  1  0.82395059  0.31182954  0.05079894  1
  O  O565  1  0.82303736  0.31464165  0.30044622  1
  O  O566  1  0.82439744  0.31304052  0.54978793  1
  O  O567  1  0.82374907  0.31392507  0.80101698  1
  O  O568  1  0.82328292  0.64567711  0.05034386  1
  O  O569  1  0.82509655  0.64704677  0.29915192  1
  O  O570  1  0.82330361  0.64890763  0.55124448  1
  O  O571  1  0.82447162  0.64684079  0.80039120  1
  O  O572  1  0.82302656  0.98099770  0.05101354  1
  O  O573  1  0.82149754  0.98122951  0.30215623  1
  O  O574  1  0.82228150  0.98177236  0.55071876  1
  O  O575  1  0.82335966  0.97865462  0.80070715  1
  O  O576  1  0.42643450  0.14605026  0.17453839  1
  O  O577  1  0.42603840  0.14655103  0.42359463  1
  O  O578  1  0.42592821  0.14719025  0.67471874  1
  O  O579  1  0.42607706  0.14608989  0.92549371  1
  O  O580  1  0.42735728  0.47931808  0.17519192  1
  O  O581  1  0.42652207  0.47864968  0.42549920  1
  O  O582  1  0.42799084  0.48064772  0.67690804  1
  O  O583  1  0.42666104  0.47877590  0.92561864  1
  O  O584  1  0.42618678  0.81458233  0.17516680  1
  O  O585  1  0.42638371  0.81210799  0.42573477  1
  O  O586  1  0.42571379  0.81307058  0.67513686  1
  O  O587  1  0.42766287  0.81301270  0.92719260  1
  O  O588  1  0.92703620  0.14571532  0.17465709  1
  O  O589  1  0.92691212  0.14620650  0.42397512  1
  O  O590  1  0.92665542  0.14683198  0.67401681  1
  O  O591  1  0.92670701  0.14530212  0.92532784  1
  O  O592  1  0.92789324  0.47958952  0.17523462  1
  O  O593  1  0.92801531  0.48094391  0.42625263  1
  O  O594  1  0.92737711  0.48216454  0.67512603  1
  O  O595  1  0.92668775  0.47909534  0.92564110  1
  O  O596  1  0.92581983  0.81346439  0.17431760  1
  O  O597  1  0.92846418  0.81441922  0.42742766  1
  O  O598  1  0.92759818  0.81376967  0.67606209  1
  O  O599  1  0.92865810  0.81331981  0.92654058  1
  O  O600  1  0.07347486  0.18758923  0.07574690  1
  O  O601  1  0.07311975  0.18797452  0.32516161  1
  O  O602  1  0.07367271  0.18833649  0.57396185  1
  O  O603  1  0.07398813  0.18611254  0.82495923  1
  O  O604  1  0.07327308  0.52087564  0.07395452  1
  O  O605  1  0.07467678  0.52062279  0.32562793  1
  O  O606  1  0.07213892  0.52044517  0.57350385  1
  O  O607  1  0.07240589  0.51993904  0.82355450  1
  O  O608  1  0.07172191  0.85277620  0.07297106  1
  O  O609  1  0.07232367  0.85418387  0.32482952  1
  O  O610  1  0.07213170  0.85285608  0.57251791  1
  O  O611  1  0.07299126  0.85132187  0.82429115  1
  O  O612  1  0.57278707  0.18743618  0.07537096  1
  O  O613  1  0.57346334  0.18775078  0.32458769  1
  O  O614  1  0.57308366  0.18803983  0.57483253  1
  O  O615  1  0.57300680  0.18733433  0.82512997  1
  O  O616  1  0.57374623  0.52084362  0.07510811  1
  O  O617  1  0.57412330  0.51964548  0.32594026  1
  O  O618  1  0.57355626  0.52073199  0.57486808  1
  O  O619  1  0.57320583  0.51838537  0.82532889  1
  O  O620  1  0.57196384  0.85347102  0.07415709  1
  O  O621  1  0.57143048  0.85248269  0.32286701  1
  O  O622  1  0.57400580  0.85289399  0.57494423  1
  O  O623  1  0.57306020  0.85246930  0.82636370  1
  O  O624  1  0.32281535  0.18772468  0.05034929  1
  O  O625  1  0.32309096  0.18556175  0.30047306  1
  O  O626  1  0.32134390  0.18540114  0.55188741  1
  O  O627  1  0.32314138  0.18634178  0.79911262  1
  O  O628  1  0.32242805  0.52000754  0.05104948  1
  O  O629  1  0.32391177  0.51951523  0.29895789  1
  O  O630  1  0.32392467  0.51900891  0.55128197  1
  O  O631  1  0.32249850  0.51916500  0.80190224  1
  O  O632  1  0.32330493  0.85270922  0.05004640  1
  O  O633  1  0.32147969  0.85243159  0.30169336  1
  O  O634  1  0.32260480  0.85443952  0.54956077  1
  O  O635  1  0.32319447  0.85200522  0.80021437  1
  O  O636  1  0.82337047  0.18483445  0.05114903  1
  O  O637  1  0.82361286  0.18740240  0.30025527  1
  O  O638  1  0.82422587  0.18612342  0.54897610  1
  O  O639  1  0.82337409  0.18659314  0.80057906  1
  O  O640  1  0.82350512  0.51821959  0.05100370  1
  O  O641  1  0.82527092  0.52027332  0.30058587  1
  O  O642  1  0.82344763  0.52147836  0.55059390  1
  O  O643  1  0.82433847  0.52006526  0.79906756  1
  O  O644  1  0.82290478  0.85400729  0.05133515  1
  O  O645  1  0.82208532  0.85385893  0.30156021  1
  O  O646  1  0.82333695  0.85490599  0.54991409  1
  O  O647  1  0.82315592  0.85151283  0.80117957  1
  O  O648  1  0.17555352  0.14662770  0.20082417  1
  O  O649  1  0.17728420  0.14739904  0.44880514  1
  O  O650  1  0.17788367  0.14668688  0.69706039  1
  O  O651  1  0.17565013  0.14729947  0.94959247  1
  O  O652  1  0.17749757  0.48031611  0.19825360  1
  O  O653  1  0.17714113  0.48007158  0.45057396  1
  O  O654  1  0.17798465  0.48100732  0.69783713  1
  O  O655  1  0.17683918  0.48179746  0.94941901  1
  O  O656  1  0.17654911  0.81240370  0.19873684  1
  O  O657  1  0.17645588  0.81442468  0.44892975  1
  O  O658  1  0.17588999  0.81287070  0.70048237  1
  O  O659  1  0.17781172  0.81315972  0.94833277  1
  O  O660  1  0.67792987  0.14747074  0.19918042  1
  O  O661  1  0.67629353  0.14590778  0.44977259  1
  O  O662  1  0.67669864  0.14546368  0.69938398  1
  O  O663  1  0.67586722  0.14650491  0.95071363  1
  O  O664  1  0.67763348  0.48161052  0.19940095  1
  O  O665  1  0.67761855  0.47984990  0.44971679  1
  O  O666  1  0.67631534  0.47989657  0.70092628  1
  O  O667  1  0.67713422  0.47852854  0.94950035  1
  O  O668  1  0.67565723  0.81407145  0.20029295  1
  O  O669  1  0.67672469  0.81503833  0.44978578  1
  O  O670  1  0.67659833  0.81231786  0.69980689  1
  O  O671  1  0.67746893  0.81485435  0.94944036  1
