# generated using pymatgen
data_Na2MnFe(PO4)2
_symmetry_space_group_name_H-M   'P 1'
_cell_length_a   22.34344309
_cell_length_b   20.09236747
_cell_length_c   19.45034235
_cell_angle_alpha   89.98426561
_cell_angle_beta   89.98476112
_cell_angle_gamma   89.99873637
_symmetry_Int_Tables_number   1
_chemical_formula_structural   Na2MnFe(PO4)2
_chemical_formula_sum   'Na96 Mn48 Fe48 P96 O384'
_cell_volume   8731.89346821
_cell_formula_units_Z   48
loop_
 _symmetry_equiv_pos_site_id
 _symmetry_equiv_pos_as_xyz
  1  'x, y, z'
loop_
 _atom_site_type_symbol
 _atom_site_label
 _atom_site_symmetry_multiplicity
 _atom_site_fract_x
 _atom_site_fract_y
 _atom_site_fract_z
 _atom_site_occupancy
  Na  Na0  1  0.14037690  0.24984725  0.24404030  1
  Na  Na1  1  0.14041485  0.25075299  0.49245343  1
  Na  Na2  1  0.14076464  0.25080543  0.74382754  1
  Na  Na3  1  0.14008428  0.24998212  0.99294313  1
  Na  Na4  1  0.14051680  0.58182602  0.24461882  1
  Na  Na5  1  0.14029105  0.58255425  0.49385486  1
  Na  Na6  1  0.14024147  0.58426467  0.74430063  1
  Na  Na7  1  0.14111369  0.58386581  0.99280927  1
  Na  Na8  1  0.14065619  0.91673282  0.24331236  1
  Na  Na9  1  0.14039614  0.91736048  0.49396253  1
  Na  Na10  1  0.14006690  0.91666545  0.74399956  1
  Na  Na11  1  0.14086589  0.91561651  0.99275889  1
  Na  Na12  1  0.63992148  0.24976211  0.24419545  1
  Na  Na13  1  0.64038360  0.25011598  0.49260064  1
  Na  Na14  1  0.64012259  0.24887484  0.74360768  1
  Na  Na15  1  0.63980798  0.24967748  0.99448165  1
  Na  Na16  1  0.64034393  0.58372300  0.24437949  1
  Na  Na17  1  0.63984859  0.58444563  0.49373837  1
  Na  Na18  1  0.64003516  0.58406888  0.74349856  1
  Na  Na19  1  0.64027949  0.58291463  0.99411778  1
  Na  Na20  1  0.64110520  0.91714090  0.24384866  1
  Na  Na21  1  0.64043755  0.91813890  0.49415750  1
  Na  Na22  1  0.64063336  0.91658471  0.74201343  1
  Na  Na23  1  0.64085176  0.91576686  0.99338513  1
  Na  Na24  1  0.35929040  0.08393983  0.00605677  1
  Na  Na25  1  0.35968292  0.08512749  0.25660081  1
  Na  Na26  1  0.36003305  0.08424150  0.50610507  1
  Na  Na27  1  0.35955915  0.08365491  0.75653174  1
  Na  Na28  1  0.35952112  0.41653496  0.00710018  1
  Na  Na29  1  0.35907860  0.41494024  0.25689339  1
  Na  Na30  1  0.36000184  0.41683103  0.50631610  1
  Na  Na31  1  0.35956631  0.41819140  0.75719240  1
  Na  Na32  1  0.35980513  0.74980220  0.00538395  1
  Na  Na33  1  0.35987875  0.74770153  0.25617564  1
  Na  Na34  1  0.35983035  0.74984446  0.50697019  1
  Na  Na35  1  0.35944166  0.75067489  0.75766066  1
  Na  Na36  1  0.85955913  0.08281674  0.00575632  1
  Na  Na37  1  0.85987741  0.08309150  0.25618148  1
  Na  Na38  1  0.85963678  0.08290674  0.50626004  1
  Na  Na39  1  0.85999334  0.08242626  0.75501838  1
  Na  Na40  1  0.85946598  0.41583070  0.00636719  1
  Na  Na41  1  0.85950705  0.41569603  0.25613434  1
  Na  Na42  1  0.85915231  0.41672429  0.50659468  1
  Na  Na43  1  0.85928061  0.41636184  0.75615710  1
  Na  Na44  1  0.85958949  0.75003757  0.00535425  1
  Na  Na45  1  0.85942488  0.75030167  0.25613510  1
  Na  Na46  1  0.85985893  0.75107859  0.50777746  1
  Na  Na47  1  0.86004146  0.75046679  0.75575277  1
  Na  Na48  1  0.10980468  0.08275969  0.11796870  1
  Na  Na49  1  0.10996717  0.08398252  0.36884099  1
  Na  Na50  1  0.11002586  0.08239063  0.61809938  1
  Na  Na51  1  0.10969046  0.08262188  0.86842762  1
  Na  Na52  1  0.10982964  0.41523307  0.11778802  1
  Na  Na53  1  0.10981392  0.41598675  0.36899850  1
  Na  Na54  1  0.10975007  0.41741334  0.61819888  1
  Na  Na55  1  0.11004160  0.41696977  0.86845616  1
  Na  Na56  1  0.11023547  0.74937895  0.11822054  1
  Na  Na57  1  0.10944760  0.75040307  0.36975615  1
  Na  Na58  1  0.10960749  0.74983638  0.62011461  1
  Na  Na59  1  0.10992791  0.75096220  0.86797595  1
  Na  Na60  1  0.60980258  0.08514107  0.11918424  1
  Na  Na61  1  0.61009062  0.08386982  0.36840807  1
  Na  Na62  1  0.61007184  0.08492716  0.61797314  1
  Na  Na63  1  0.60974961  0.08340274  0.86792074  1
  Na  Na64  1  0.60905128  0.41607295  0.11989075  1
  Na  Na65  1  0.60943157  0.41721125  0.36892349  1
  Na  Na66  1  0.60880158  0.41831253  0.61844715  1
  Na  Na67  1  0.60893257  0.41576752  0.86957432  1
  Na  Na68  1  0.61029081  0.74815485  0.11847038  1
  Na  Na69  1  0.60945422  0.74957692  0.36959521  1
  Na  Na70  1  0.60942238  0.75083545  0.61816763  1
  Na  Na71  1  0.61002745  0.74853867  0.86792877  1
  Na  Na72  1  0.38943721  0.25054890  0.13220892  1
  Na  Na73  1  0.38986880  0.25049584  0.38139930  1
  Na  Na74  1  0.39047684  0.25216856  0.63067171  1
  Na  Na75  1  0.39019350  0.25074265  0.88187756  1
  Na  Na76  1  0.39010855  0.58212523  0.13122765  1
  Na  Na77  1  0.39046379  0.58215677  0.38207839  1
  Na  Na78  1  0.39010019  0.58407419  0.63160554  1
  Na  Na79  1  0.38982455  0.58213174  0.88189808  1
  Na  Na80  1  0.39087931  0.91642102  0.13072988  1
  Na  Na81  1  0.39097532  0.91638649  0.38141004  1
  Na  Na82  1  0.39017884  0.91906854  0.63209689  1
  Na  Na83  1  0.39029454  0.91641688  0.88067567  1
  Na  Na84  1  0.89035971  0.24806156  0.13025597  1
  Na  Na85  1  0.89026600  0.24904508  0.38178544  1
  Na  Na86  1  0.89037127  0.24844661  0.63023788  1
  Na  Na87  1  0.89035050  0.24891551  0.88104501  1
  Na  Na88  1  0.89023870  0.58318397  0.13095061  1
  Na  Na89  1  0.89025283  0.58332649  0.38215278  1
  Na  Na90  1  0.89017592  0.58501379  0.63143193  1
  Na  Na91  1  0.89019275  0.58474847  0.88144382  1
  Na  Na92  1  0.89035758  0.91571979  0.13082915  1
  Na  Na93  1  0.89054423  0.91727546  0.38176031  1
  Na  Na94  1  0.89037117  0.91589597  0.63163056  1
  Na  Na95  1  0.89033935  0.91712580  0.87998640  1
  Mn  Mn96  1  0.00006488  0.66694191  0.25026273  1
  Mn  Mn97  1  0.24997234  0.16713638  0.87492455  1
  Mn  Mn98  1  0.74983928  0.83233711  0.87374388  1
  Mn  Mn99  1  -0.00096953  0.50087847  0.74922689  1
  Mn  Mn100  1  0.25043108  0.16686783  0.62510592  1
  Mn  Mn101  1  0.00015694  0.33298690  0.74959626  1
  Mn  Mn102  1  -0.00024270  0.49930382  0.25044308  1
  Mn  Mn103  1  0.74992872  0.00034952  0.87439377  1
  Mn  Mn104  1  0.00083272  0.16557028  0.24986228  1
  Mn  Mn105  1  0.25068899  0.00132563  0.37389563  1
  Mn  Mn106  1  0.25071395  0.83221552  0.12402769  1
  Mn  Mn107  1  0.74971627  0.83439003  0.37556936  1
  Mn  Mn108  1  0.49953884  0.49974395  0.25059718  1
  Mn  Mn109  1  0.50083406  0.83204018  0.25088833  1
  Mn  Mn110  1  -0.00012891  0.50002459  0.50034417  1
  Mn  Mn111  1  -0.00015602  0.33230358  0.24946871  1
  Mn  Mn112  1  -0.00021175  0.83362842  0.25030332  1
  Mn  Mn113  1  0.50029604  0.16779223  0.49960479  1
  Mn  Mn114  1  0.49918375  0.16759232  0.00005847  1
  Mn  Mn115  1  0.24975060  0.33476084  0.62431745  1
  Mn  Mn116  1  0.24982375  0.66506641  0.37593028  1
  Mn  Mn117  1  0.00049542  0.66764537  0.00019848  1
  Mn  Mn118  1  0.25049129  0.83312799  0.37498348  1
  Mn  Mn119  1  0.74963921  0.33200960  0.12587867  1
  Mn  Mn120  1  0.00026175  0.49954445  -0.00021333  1
  Mn  Mn121  1  0.74979281  0.50077390  0.87577235  1
  Mn  Mn122  1  0.50013062  0.00089177  0.75010427  1
  Mn  Mn123  1  0.74974113  0.33187969  0.87536587  1
  Mn  Mn124  1  0.74987472  0.66694631  0.37523076  1
  Mn  Mn125  1  0.49953138  0.83389838  0.49971316  1
  Mn  Mn126  1  0.49972156  0.66638020  0.74974282  1
  Mn  Mn127  1  0.25097674  0.00052948  0.12469651  1
  Mn  Mn128  1  0.00033623  -0.00078975  0.50002885  1
  Mn  Mn129  1  0.74917791  0.33256429  0.62519176  1
  Mn  Mn130  1  0.75004858  0.33319938  0.37519467  1
  Mn  Mn131  1  0.24983145  0.49942026  0.12465873  1
  Mn  Mn132  1  0.25017074  0.83440785  0.62611775  1
  Mn  Mn133  1  0.74955769  0.50043884  0.12526893  1
  Mn  Mn134  1  0.00044882  -0.00068352  -0.00057264  1
  Mn  Mn135  1  0.49956527  0.66473432  -0.00121747  1
  Mn  Mn136  1  0.24972653  0.66602164  0.62588490  1
  Mn  Mn137  1  0.74977844  0.00032896  0.12438683  1
  Mn  Mn138  1  0.74947961  0.50102194  0.62601320  1
  Mn  Mn139  1  0.50073126  0.00044958  0.24994549  1
  Mn  Mn140  1  0.50045356  -0.00008850  -0.00041707  1
  Mn  Mn141  1  0.50065327  0.83230950  0.00035452  1
  Mn  Mn142  1  0.00123168  0.16607021  0.74966312  1
  Mn  Mn143  1  0.49949254  0.33408440  0.75011136  1
  Fe  Fe144  1  0.25027220  0.33383049  0.87506463  1
  Fe  Fe145  1  -0.00001545  0.66762838  0.75035416  1
  Fe  Fe146  1  0.25023870  0.83362509  0.87516888  1
  Fe  Fe147  1  0.49937858  0.33358223  0.25046663  1
  Fe  Fe148  1  0.24993260  0.50021527  0.62607241  1
  Fe  Fe149  1  0.75056415  0.66671759  0.12523480  1
  Fe  Fe150  1  -0.00002209  0.66712527  0.50085379  1
  Fe  Fe151  1  0.74995574  0.00076268  0.62435975  1
  Fe  Fe152  1  0.24971245  0.16728329  0.37517709  1
  Fe  Fe153  1  0.50002605  0.00112865  0.50031974  1
  Fe  Fe154  1  -0.00039445  0.33284931  0.49979060  1
  Fe  Fe155  1  0.24932790  0.16728198  0.12478335  1
  Fe  Fe156  1  0.49995295  0.83380719  0.74912825  1
  Fe  Fe157  1  0.00046934  0.83288236  0.50110394  1
  Fe  Fe158  1  0.74978837  0.16588648  0.87430745  1
  Fe  Fe159  1  0.50044284  0.33402661  0.50037291  1
  Fe  Fe160  1  0.00039962  0.16597351  0.49982583  1
  Fe  Fe161  1  0.50002079  0.50076393  0.49973438  1
  Fe  Fe162  1  0.24980067  0.50022508  0.87574879  1
  Fe  Fe163  1  0.49970078  0.50008310  0.74984083  1
  Fe  Fe164  1  0.49985169  0.16762836  0.74963081  1
  Fe  Fe165  1  0.00050058  -0.00055053  0.24983542  1
  Fe  Fe166  1  0.00005323  0.83340275  0.74964997  1
  Fe  Fe167  1  0.00010400  0.83375718  -0.00063371  1
  Fe  Fe168  1  0.24992224  0.00049137  0.62511393  1
  Fe  Fe169  1  0.49962331  0.16725405  0.25031938  1
  Fe  Fe170  1  0.49922866  0.66713561  0.50068321  1
  Fe  Fe171  1  0.25033669  0.49912847  0.37451525  1
  Fe  Fe172  1  -0.00040134  0.16570234  -0.00041343  1
  Fe  Fe173  1  0.25022005  0.66622810  0.12452047  1
  Fe  Fe174  1  0.74994820  0.16616240  0.12538901  1
  Fe  Fe175  1  0.24978369  0.00006708  0.87549045  1
  Fe  Fe176  1  0.25006721  0.66673873  0.87497272  1
  Fe  Fe177  1  0.49993586  0.49868990  0.00098403  1
  Fe  Fe178  1  -0.00045097  0.33284594  -0.00077444  1
  Fe  Fe179  1  0.50019203  0.66567314  0.25013356  1
  Fe  Fe180  1  -0.00004461  -0.00037056  0.74964223  1
  Fe  Fe181  1  0.75018971  0.16614750  0.37486233  1
  Fe  Fe182  1  0.75053143  0.00048645  0.37486034  1
  Fe  Fe183  1  0.74993380  0.83370929  0.62483948  1
  Fe  Fe184  1  0.75021651  0.50050687  0.37534706  1
  Fe  Fe185  1  0.24945560  0.33305111  0.12553026  1
  Fe  Fe186  1  0.75026135  0.16604078  0.62416711  1
  Fe  Fe187  1  0.75016306  0.66714073  0.62448901  1
  Fe  Fe188  1  0.49996203  0.33317329  0.00040258  1
  Fe  Fe189  1  0.74971211  0.66694564  0.87477133  1
  Fe  Fe190  1  0.75009208  0.83318431  0.12448295  1
  Fe  Fe191  1  0.24996325  0.33335347  0.37501185  1
  P  P192  1  0.04125347  0.24901285  0.10071196  1
  P  P193  1  0.04247594  0.24961711  0.35386739  1
  P  P194  1  0.04190015  0.24965790  0.60105645  1
  P  P195  1  0.04283172  0.24975664  0.85368169  1
  P  P196  1  0.04332437  0.58300634  0.10302326  1
  P  P197  1  0.04239091  0.58365258  0.35406355  1
  P  P198  1  0.04198303  0.58516001  0.60313565  1
  P  P199  1  0.04184015  0.58485445  0.85222394  1
  P  P200  1  0.04288363  0.91535949  0.10229139  1
  P  P201  1  0.04282942  0.91769707  0.35282086  1
  P  P202  1  0.04224371  0.91492659  0.60356234  1
  P  P203  1  0.04138658  0.91643271  0.85147705  1
  P  P204  1  0.54150040  0.25151283  0.10363383  1
  P  P205  1  0.54120204  0.25081373  0.35206725  1
  P  P206  1  0.54253807  0.25192550  0.60268464  1
  P  P207  1  0.54188861  0.24946687  0.85258490  1
  P  P208  1  0.54202774  0.58142189  0.10279907  1
  P  P209  1  0.54186632  0.58436621  0.35354385  1
  P  P210  1  0.54096948  0.58388520  0.60185420  1
  P  P211  1  0.54190182  0.58099966  0.85254533  1
  P  P212  1  0.54349707  0.91660579  0.10316032  1
  P  P213  1  0.54316321  0.91694202  0.35378849  1
  P  P214  1  0.54166443  0.91847355  0.60265940  1
  P  P215  1  0.54284173  0.91523927  0.85179207  1
  P  P216  1  0.45761951  0.08511496  0.14781721  1
  P  P217  1  0.45819562  0.08306953  0.39723751  1
  P  P218  1  0.45787646  0.08566339  0.64716300  1
  P  P219  1  0.45714253  0.08368833  0.89635524  1
  P  P220  1  0.45731052  0.41534436  0.14754189  1
  P  P221  1  0.45885912  0.41637434  0.39850130  1
  P  P222  1  0.45754577  0.41879417  0.64693223  1
  P  P223  1  0.45814525  0.41642960  0.89877604  1
  P  P224  1  0.45826208  0.74782982  0.14774488  1
  P  P225  1  0.45751777  0.74814134  0.39746109  1
  P  P226  1  0.45723273  0.75149957  0.64727818  1
  P  P227  1  0.45766455  0.74986600  0.89592000  1
  P  P228  1  0.95811408  0.08136210  0.14707595  1
  P  P229  1  0.95823461  0.08373904  0.39741579  1
  P  P230  1  0.95858075  0.08193256  0.64687012  1
  P  P231  1  0.95782774  0.08359505  0.89684732  1
  P  P232  1  0.95708618  0.41570286  0.14609102  1
  P  P233  1  0.95731052  0.41527055  0.39782667  1
  P  P234  1  0.95687727  0.41610125  0.64609170  1
  P  P235  1  0.95748690  0.41558654  0.89718782  1
  P  P236  1  0.95730414  0.75037688  0.14653259  1
  P  P237  1  0.95835633  0.75055210  0.39919082  1
  P  P238  1  0.95875663  0.75011026  0.64791107  1
  P  P239  1  0.95823958  0.75193849  0.89653455  1
  P  P240  1  0.20789387  0.08529097  0.22727476  1
  P  P241  1  0.20803673  0.08461315  0.47761425  1
  P  P242  1  0.20789103  0.08222385  0.72787796  1
  P  P243  1  0.20770695  0.08280182  0.97749351  1
  P  P244  1  0.20752830  0.41506587  0.22798193  1
  P  P245  1  0.20863001  0.41711292  0.47666377  1
  P  P246  1  0.20753965  0.41831730  0.72845570  1
  P  P247  1  0.20876520  0.41610230  0.97700013  1
  P  P248  1  0.20809839  0.74802017  0.22723944  1
  P  P249  1  0.20739960  0.74984227  0.47866484  1
  P  P250  1  0.20784743  0.75018943  0.72961062  1
  P  P251  1  0.20890378  0.74954458  0.97656458  1
  P  P252  1  0.70791184  0.08434653  0.22823109  1
  P  P253  1  0.70878966  0.08319808  0.47697437  1
  P  P254  1  0.70841957  0.08357344  0.72629030  1
  P  P255  1  0.70744993  0.08454074  0.97745780  1
  P  P256  1  0.70715385  0.41666621  0.22903134  1
  P  P257  1  0.70775125  0.41828861  0.47759237  1
  P  P258  1  0.70655728  0.41647465  0.72855220  1
  P  P259  1  0.70711700  0.41614718  0.97853710  1
  P  P260  1  0.70884045  0.75027127  0.22653927  1
  P  P261  1  0.70746320  0.75065553  0.47910157  1
  P  P262  1  0.70857527  0.74966165  0.72617467  1
  P  P263  1  0.70777246  0.74859432  0.97786515  1
  P  P264  1  0.29101033  0.25065979  0.02337767  1
  P  P265  1  0.29079463  0.25000798  0.27298122  1
  P  P266  1  0.29251344  0.25059241  0.52111146  1
  P  P267  1  0.29252818  0.25189802  0.77269656  1
  P  P268  1  0.29206751  0.58441335  0.02176939  1
  P  P269  1  0.29254947  0.58133707  0.27232869  1
  P  P270  1  0.29184326  0.58120152  0.52286780  1
  P  P271  1  0.29119577  0.58318263  0.77379549  1
  P  P272  1  0.29301933  0.91666619  0.02073719  1
  P  P273  1  0.29351010  0.91661511  0.27158682  1
  P  P274  1  0.29254259  0.91848345  0.52284185  1
  P  P275  1  0.29114419  0.91768885  0.77343655  1
  P  P276  1  0.79179534  0.24762406  0.02237631  1
  P  P277  1  0.79235673  0.24815187  0.27258981  1
  P  P278  1  0.79171997  0.24844723  0.52193572  1
  P  P279  1  0.79228282  0.24770686  0.77183070  1
  P  P280  1  0.79224312  0.58500550  0.02233276  1
  P  P281  1  0.79247765  0.58261295  0.27253051  1
  P  P282  1  0.79218440  0.58448469  0.52246525  1
  P  P283  1  0.79205641  0.58515718  0.77230865  1
  P  P284  1  0.79217990  0.91534162  0.02208767  1
  P  P285  1  0.79239792  0.91800646  0.27234924  1
  P  P286  1  0.79141506  0.91758034  0.52337603  1
  P  P287  1  0.79212509  0.91679187  0.77042556  1
  O  O288  1  0.03646789  0.24903492  0.18073993  1
  O  O289  1  0.03713038  0.24963582  0.43374016  1
  O  O290  1  0.03719168  0.24957262  0.68109350  1
  O  O291  1  0.03724972  0.24968396  0.93353558  1
  O  O292  1  0.03823265  0.58287003  0.18301987  1
  O  O293  1  0.03700299  0.58418306  0.43403339  1
  O  O294  1  0.03652581  0.58535731  0.68307370  1
  O  O295  1  0.03695726  0.58439578  0.93218457  1
  O  O296  1  0.03785417  0.91615764  0.18224040  1
  O  O297  1  0.03787408  0.91712464  0.43274990  1
  O  O298  1  0.03657208  0.91540487  0.68340709  1
  O  O299  1  0.03641104  0.91611637  0.93145047  1
  O  O300  1  0.53603530  0.25106477  0.18350103  1
  O  O301  1  0.53645173  0.25112626  0.43206912  1
  O  O302  1  0.53713500  0.25114037  0.68257542  1
  O  O303  1  0.53675795  0.24998157  0.93251848  1
  O  O304  1  0.53679815  0.58227788  0.18273954  1
  O  O305  1  0.53625905  0.58457048  0.43338218  1
  O  O306  1  0.53612455  0.58329921  0.68181025  1
  O  O307  1  0.53670989  0.58074463  0.93247586  1
  O  O308  1  0.53849787  0.91659217  0.18313326  1
  O  O309  1  0.53754005  0.91753062  0.43371203  1
  O  O310  1  0.53631395  0.91772810  0.68259272  1
  O  O311  1  0.53793703  0.91545276  0.93180716  1
  O  O312  1  0.46247773  0.08501169  0.06781714  1
  O  O313  1  0.46351695  0.08370474  0.31732780  1
  O  O314  1  0.46312483  0.08497303  0.56721159  1
  O  O315  1  0.46233730  0.08427112  0.81639906  1
  O  O316  1  0.46281788  0.41546200  0.06771149  1
  O  O317  1  0.46358703  0.41614269  0.31854336  1
  O  O318  1  0.46321232  0.41865941  0.56715072  1
  O  O319  1  0.46312572  0.41688328  0.81883214  1
  O  O320  1  0.46347620  0.74800812  0.06775352  1
  O  O321  1  0.46324668  0.74782025  0.31756915  1
  O  O322  1  0.46229465  0.75088795  0.56730345  1
  O  O323  1  0.46290410  0.75064883  0.81597193  1
  O  O324  1  0.96311516  0.08195423  0.06711757  1
  O  O325  1  0.96351129  0.08301900  0.31750280  1
  O  O326  1  0.96389126  0.08260122  0.56696012  1
  O  O327  1  0.96321484  0.08302064  0.81693945  1
  O  O328  1  0.96222166  0.41533741  0.06609687  1
  O  O329  1  0.96239462  0.41555193  0.31781381  1
  O  O330  1  0.96216474  0.41567881  0.56613197  1
  O  O331  1  0.96232421  0.41608271  0.81717339  1
  O  O332  1  0.96235586  0.75092195  0.06657802  1
  O  O333  1  0.96303793  0.75057749  0.31916511  1
  O  O334  1  0.96405726  0.74973934  0.56803069  1
  O  O335  1  0.96370185  0.75169908  0.81662068  1
  O  O336  1  0.21307462  0.08350258  0.05737465  1
  O  O337  1  0.21314694  0.08559293  0.30723037  1
  O  O338  1  0.21310013  0.08387789  0.55757060  1
  O  O339  1  0.21306429  0.08222039  0.80781371  1
  O  O340  1  0.21349200  0.41587942  0.05697253  1
  O  O341  1  0.21289383  0.41525983  0.30782660  1
  O  O342  1  0.21310867  0.41741140  0.55663043  1
  O  O343  1  0.21277606  0.41767812  0.80832036  1
  O  O344  1  0.21383921  0.74902416  0.05654484  1
  O  O345  1  0.21324424  0.74839413  0.30721455  1
  O  O346  1  0.21251556  0.75008087  0.55862998  1
  O  O347  1  0.21327421  0.75005742  0.80947819  1
  O  O348  1  0.71267616  0.08445049  0.05741660  1
  O  O349  1  0.71355085  0.08382840  0.30807609  1
  O  O350  1  0.71406245  0.08328173  0.55688458  1
  O  O351  1  0.71334289  0.08392692  0.80627201  1
  O  O352  1  0.71228337  0.41614386  0.05849455  1
  O  O353  1  0.71268080  0.41719056  0.30896182  1
  O  O354  1  0.71274516  0.41792254  0.55756350  1
  O  O355  1  0.71180989  0.41635553  0.80848416  1
  O  O356  1  0.71334503  0.74903300  0.05772133  1
  O  O357  1  0.71388227  0.75058129  0.30652837  1
  O  O358  1  0.71267747  0.75037951  0.55896849  1
  O  O359  1  0.71317723  0.74926482  0.80618269  1
  O  O360  1  0.28575497  0.25027798  0.19308152  1
  O  O361  1  0.28716835  0.25028135  0.44122923  1
  O  O362  1  0.28727374  0.25178950  0.69280081  1
  O  O363  1  0.28618880  0.25120446  0.94341224  1
  O  O364  1  0.28740092  0.58203181  0.19241488  1
  O  O365  1  0.28667774  0.58082914  0.44293222  1
  O  O366  1  0.28634389  0.58249150  0.69383567  1
  O  O367  1  0.28659563  0.58439084  0.94191677  1
  O  O368  1  0.28859450  0.91647190  0.19160686  1
  O  O369  1  0.28767286  0.91812292  0.44287078  1
  O  O370  1  0.28640251  0.91799877  0.69343606  1
  O  O371  1  0.28748744  0.91677035  0.94083732  1
  O  O372  1  0.78706349  0.24808716  0.19264097  1
  O  O373  1  0.78644194  0.24847593  0.44200578  1
  O  O374  1  0.78700969  0.24794360  0.69185873  1
  O  O375  1  0.78647417  0.24752707  0.94243129  1
  O  O376  1  0.78711690  0.58336685  0.19258527  1
  O  O377  1  0.78712283  0.58369141  0.44250798  1
  O  O378  1  0.78672133  0.58526762  0.69235747  1
  O  O379  1  0.78689527  0.58517270  0.94238045  1
  O  O380  1  0.78710856  0.91728924  0.19245416  1
  O  O381  1  0.78678478  0.91785540  0.44340058  1
  O  O382  1  0.78675344  0.91723528  0.69057986  1
  O  O383  1  0.78700342  0.91549281  0.94214992  1
  O  O384  1  0.22678079  0.25011986  0.05933016  1
  O  O385  1  0.22680501  0.24958691  0.30934596  1
  O  O386  1  0.22832088  0.25046193  0.55691840  1
  O  O387  1  0.22823562  0.25215636  0.80834579  1
  O  O388  1  0.22796629  0.58453133  0.05803074  1
  O  O389  1  0.22824005  0.58073406  0.30807097  1
  O  O390  1  0.22757888  0.58137429  0.55865423  1
  O  O391  1  0.22708089  0.58387125  0.80976507  1
  O  O392  1  0.22887477  0.91664419  0.05663732  1
  O  O393  1  0.22901645  0.91689791  0.30649866  1
  O  O394  1  0.22813664  0.91853895  0.55824028  1
  O  O395  1  0.22701927  0.91778091  0.80939595  1
  O  O396  1  0.72758471  0.24753210  0.05835700  1
  O  O397  1  0.72808910  0.24838333  0.30830457  1
  O  O398  1  0.72748937  0.24812418  0.55773927  1
  O  O399  1  0.72797732  0.24763984  0.80760052  1
  O  O400  1  0.72802361  0.58525097  0.05821243  1
  O  O401  1  0.72819635  0.58205112  0.30835210  1
  O  O402  1  0.72783018  0.58528399  0.55801122  1
  O  O403  1  0.72776844  0.58515453  0.80806827  1
  O  O404  1  0.72795453  0.91537240  0.05781873  1
  O  O405  1  0.72815712  0.91868029  0.30825531  1
  O  O406  1  0.72726233  0.91788334  0.55926900  1
  O  O407  1  0.72800486  0.91668250  0.80641007  1
  O  O408  1  0.27217729  0.08578899  0.19154996  1
  O  O409  1  0.27231401  0.08539463  0.44189455  1
  O  O410  1  0.27217810  0.08213629  0.69215010  1
  O  O411  1  0.27192104  0.08234341  0.94159742  1
  O  O412  1  0.27170206  0.41495935  0.19189168  1
  O  O413  1  0.27284362  0.41743120  0.44082369  1
  O  O414  1  0.27179903  0.41847076  0.69250248  1
  O  O415  1  0.27293009  0.41594849  0.94108236  1
  O  O416  1  0.27245449  0.74770378  0.19165332  1
  O  O417  1  0.27181240  0.74937698  0.44353399  1
  O  O418  1  0.27194743  0.75003167  0.69360856  1
  O  O419  1  0.27300794  0.74927538  0.94058795  1
  O  O420  1  0.77199324  0.08460480  0.19183718  1
  O  O421  1  0.77285472  0.08325405  0.44058780  1
  O  O422  1  0.77263309  0.08327735  0.69033176  1
  O  O423  1  0.77177776  0.08476788  0.94176667  1
  O  O424  1  0.77133991  0.41642564  0.19334782  1
  O  O425  1  0.77205369  0.41813247  0.44202130  1
  O  O426  1  0.77094192  0.41644441  0.69339515  1
  O  O427  1  0.77144887  0.41618193  0.94325255  1
  O  O428  1  0.77297340  0.75011620  0.19053811  1
  O  O429  1  0.77169918  0.75064219  0.44345124  1
  O  O430  1  0.77280784  0.74935315  0.69047874  1
  O  O431  1  0.77188592  0.74814623  0.94149117  1
  O  O432  1  0.02247605  0.08089714  0.18263834  1
  O  O433  1  0.02245937  0.08392787  0.43319345  1
  O  O434  1  0.02276493  0.08124550  0.68273299  1
  O  O435  1  0.02204184  0.08410217  0.93268806  1
  O  O436  1  0.02147458  0.41604936  0.18130700  1
  O  O437  1  0.02165055  0.41508457  0.43327975  1
  O  O438  1  0.02124759  0.41693446  0.68130529  1
  O  O439  1  0.02190468  0.41521090  0.93237983  1
  O  O440  1  0.02171837  0.75036623  0.18166376  1
  O  O441  1  0.02266247  0.75067757  0.43473165  1
  O  O442  1  0.02268769  0.75017490  0.68451595  1
  O  O443  1  0.02239328  0.75236586  0.93268816  1
  O  O444  1  0.52203088  0.08546304  0.18304012  1
  O  O445  1  0.52240328  0.08280775  0.43312076  1
  O  O446  1  0.52213768  0.08575412  0.68288449  1
  O  O447  1  0.52148365  0.08396837  0.93165584  1
  O  O448  1  0.52139747  0.41515011  0.18382503  1
  O  O449  1  0.52296338  0.41619917  0.43449098  1
  O  O450  1  0.52164922  0.41857403  0.68319894  1
  O  O451  1  0.52229173  0.41616486  0.93496107  1
  O  O452  1  0.52258460  0.74750151  0.18335457  1
  O  O453  1  0.52163105  0.74838773  0.43358491  1
  O  O454  1  0.52160042  0.75149433  0.68275776  1
  O  O455  1  0.52194358  0.74892334  0.93132003  1
  O  O456  1  0.47736497  0.25219714  0.06742516  1
  O  O457  1  0.47699103  0.25084431  0.31621936  1
  O  O458  1  0.47830224  0.25220057  0.56685421  1
  O  O459  1  0.47761259  0.24912154  0.81686830  1
  O  O460  1  0.47777502  0.58076006  0.06698471  1
  O  O461  1  0.47779024  0.58465494  0.31719203  1
  O  O462  1  0.47680295  0.58416402  0.56602755  1
  O  O463  1  0.47759616  0.58154161  0.81689059  1
  O  O464  1  0.47899816  0.91650585  0.06823205  1
  O  O465  1  0.47897654  0.91645834  0.31815799  1
  O  O466  1  0.47752588  0.91887420  0.56669453  1
  O  O467  1  0.47840132  0.91534669  0.81656172  1
  O  O468  1  0.97704488  0.24881195  0.06495121  1
  O  O469  1  0.97832073  0.24901230  0.31805043  1
  O  O470  1  0.97761301  0.24963298  0.56548606  1
  O  O471  1  0.97865746  0.24929684  0.81787664  1
  O  O472  1  0.97887313  0.58327524  0.06807018  1
  O  O473  1  0.97810845  0.58341702  0.31856281  1
  O  O474  1  0.97779015  0.58479709  0.56734256  1
  O  O475  1  0.97749432  0.58529050  0.81682973  1
  O  O476  1  0.97849762  0.91494743  0.06679249  1
  O  O477  1  0.97840790  0.91825263  0.31738988  1
  O  O478  1  0.97816632  0.91467023  0.56725497  1
  O  O479  1  0.97730991  0.91670455  0.81535741  1
  O  O480  1  0.07170969  0.31295132  0.07257934  1
  O  O481  1  0.07330857  0.31318008  0.32529008  1
  O  O482  1  0.07261070  0.31347668  0.57304938  1
  O  O483  1  0.07376955  0.31326188  0.82508438  1
  O  O484  1  0.07446165  0.64643022  0.07484602  1
  O  O485  1  0.07366485  0.64689784  0.32558125  1
  O  O486  1  0.07283806  0.64850617  0.57439933  1
  O  O487  1  0.07267600  0.64848218  0.82414705  1
  O  O488  1  0.07398863  0.97874280  0.07375266  1
  O  O489  1  0.07353121  0.98126918  0.32418679  1
  O  O490  1  0.07350125  0.97833482  0.57526231  1
  O  O491  1  0.07201039  0.98041967  0.82354381  1
  O  O492  1  0.57277274  0.31475004  0.07495513  1
  O  O493  1  0.57231251  0.31419333  0.32369607  1
  O  O494  1  0.57309695  0.31573750  0.57453530  1
  O  O495  1  0.57300615  0.31297526  0.82450256  1
  O  O496  1  0.57306122  0.64475363  0.07417495  1
  O  O497  1  0.57319061  0.64743592  0.32450065  1
  O  O498  1  0.57177300  0.64780926  0.57414080  1
  O  O499  1  0.57310702  0.64467239  0.82474891  1
  O  O500  1  0.57421634  0.98028076  0.07490120  1
  O  O501  1  0.57441935  0.98010478  0.32522308  1
  O  O502  1  0.57234504  0.98234029  0.57467148  1
  O  O503  1  0.57392594  0.97895920  0.82406323  1
  O  O504  1  0.42678596  0.02127614  0.17544064  1
  O  O505  1  0.42755995  0.01937589  0.42567282  1
  O  O506  1  0.42648172  0.02239879  0.67546446  1
  O  O507  1  0.42672545  0.01966676  0.92427299  1
  O  O508  1  0.42623813  0.35212569  0.17654650  1
  O  O509  1  0.42760089  0.35309586  0.42693970  1
  O  O510  1  0.42613368  0.35532354  0.67502110  1
  O  O511  1  0.42750382  0.35250198  0.92671720  1
  O  O512  1  0.42737178  0.68428683  0.17593526  1
  O  O513  1  0.42638468  0.68504144  0.42641906  1
  O  O514  1  0.42594030  0.68810521  0.67545476  1
  O  O515  1  0.42630965  0.68621405  0.92340696  1
  O  O516  1  0.92752088  0.01770068  0.17561265  1
  O  O517  1  0.92688535  0.02041968  0.42565875  1
  O  O518  1  0.92766426  0.01832462  0.67508879  1
  O  O519  1  0.92668689  0.02007300  0.92490791  1
  O  O520  1  0.92600001  0.35228438  0.17448291  1
  O  O521  1  0.92654095  0.35165038  0.42604058  1
  O  O522  1  0.92601630  0.35265703  0.67462553  1
  O  O523  1  0.92678217  0.35189813  0.92543232  1
  O  O524  1  0.92653897  0.68664093  0.17467398  1
  O  O525  1  0.92777932  0.68672736  0.42739870  1
  O  O526  1  0.92775819  0.68665903  0.67667175  1
  O  O527  1  0.92730200  0.68822860  0.92460935  1
  O  O528  1  0.17740392  0.02115086  0.19974931  1
  O  O529  1  0.17714076  0.02107356  0.44920852  1
  O  O530  1  0.17698844  0.01898056  0.69897406  1
  O  O531  1  0.17671047  0.01920420  0.94941077  1
  O  O532  1  0.17657343  0.35165899  0.19914890  1
  O  O533  1  0.17856876  0.35289472  0.44841699  1
  O  O534  1  0.17629870  0.35500639  0.69972648  1
  O  O535  1  0.17752066  0.35290579  0.94845607  1
  O  O536  1  0.17731293  0.68443897  0.19900445  1
  O  O537  1  0.17616025  0.68639460  0.45079530  1
  O  O538  1  0.17652175  0.68687423  0.70122763  1
  O  O539  1  0.17725378  0.68654383  0.94811483  1
  O  O540  1  0.67671951  0.02093704  0.19980606  1
  O  O541  1  0.67806782  0.01950627  0.44857146  1
  O  O542  1  0.67754139  0.01981316  0.69834641  1
  O  O543  1  0.67684600  0.02050940  0.94962944  1
  O  O544  1  0.67612442  0.35291034  0.20138967  1
  O  O545  1  0.67653022  0.35468483  0.44993858  1
  O  O546  1  0.67551007  0.35304437  0.70031871  1
  O  O547  1  0.67607840  0.35264047  0.95053699  1
  O  O548  1  0.67800152  0.68638697  0.19895985  1
  O  O549  1  0.67618912  0.68746837  0.45030215  1
  O  O550  1  0.67700086  0.68659825  0.69775070  1
  O  O551  1  0.67656371  0.68530798  0.94923755  1
  O  O552  1  0.32168364  0.31413310  0.05226122  1
  O  O553  1  0.32127365  0.31382133  0.30183798  1
  O  O554  1  0.32353141  0.31416558  0.54930229  1
  O  O555  1  0.32351100  0.31524566  0.80115900  1
  O  O556  1  0.32306004  0.64772238  0.05059365  1
  O  O557  1  0.32346749  0.64472176  0.30097058  1
  O  O558  1  0.32273098  0.64514058  0.55043148  1
  O  O559  1  0.32250857  0.64683490  0.80124664  1
  O  O560  1  0.32435623  0.97997855  0.04910677  1
  O  O561  1  0.32459026  0.98019097  0.29947419  1
  O  O562  1  0.32298188  0.98220732  0.55128007  1
  O  O563  1  0.32251789  0.98090096  0.80179937  1
  O  O564  1  0.82263269  0.31155663  0.04996578  1
  O  O565  1  0.82351971  0.31186542  0.30024617  1
  O  O566  1  0.82238797  0.31235427  0.54976673  1
  O  O567  1  0.82316994  0.31148581  0.79984011  1
  O  O568  1  0.82346763  0.64809997  0.05114386  1
  O  O569  1  0.82349843  0.64621190  0.30063860  1
  O  O570  1  0.82311230  0.64812025  0.55059021  1
  O  O571  1  0.82302964  0.64843198  0.80094203  1
  O  O572  1  0.82331003  0.97904766  0.04963603  1
  O  O573  1  0.82325489  0.98154297  0.30073430  1
  O  O574  1  0.82290173  0.98074038  0.55175061  1
  O  O575  1  0.82337504  0.98001750  0.79919305  1
  O  O576  1  0.42680826  0.14855639  0.17652294  1
  O  O577  1  0.42691757  0.14653106  0.42520522  1
  O  O578  1  0.42738048  0.14954514  0.67527066  1
  O  O579  1  0.42539947  0.14660075  0.92490819  1
  O  O580  1  0.42618995  0.47895184  0.17561781  1
  O  O581  1  0.42863571  0.48054870  0.42658112  1
  O  O582  1  0.42684436  0.48220302  0.67602785  1
  O  O583  1  0.42731027  0.47989808  0.92738273  1
  O  O584  1  0.42739523  0.81162762  0.17549998  1
  O  O585  1  0.42638663  0.81206961  0.42469225  1
  O  O586  1  0.42678332  0.81535593  0.67550718  1
  O  O587  1  0.42680562  0.81311504  0.92485296  1
  O  O588  1  0.92712439  0.14487896  0.17531895  1
  O  O589  1  0.92763953  0.14744914  0.42578279  1
  O  O590  1  0.92757956  0.14547217  0.67496577  1
  O  O591  1  0.92699108  0.14708033  0.92540251  1
  O  O592  1  0.92600210  0.47921166  0.17432511  1
  O  O593  1  0.92628283  0.47892183  0.42559022  1
  O  O594  1  0.92545872  0.47957765  0.67398868  1
  O  O595  1  0.92652126  0.47926071  0.92507699  1
  O  O596  1  0.92601629  0.81345107  0.17536115  1
  O  O597  1  0.92759254  0.81427184  0.42739851  1
  O  O598  1  0.92770910  0.81383604  0.67576578  1
  O  O599  1  0.92712391  0.81528055  0.92515221  1
  O  O600  1  0.07212385  0.18525508  0.07288744  1
  O  O601  1  0.07408224  0.18650673  0.32533821  1
  O  O602  1  0.07251435  0.18573866  0.57315708  1
  O  O603  1  0.07443751  0.18659497  0.82518744  1
  O  O604  1  0.07422259  0.51950160  0.07468893  1
  O  O605  1  0.07331787  0.51987226  0.32631097  1
  O  O606  1  0.07323182  0.52143494  0.57559266  1
  O  O607  1  0.07261464  0.52110981  0.82426319  1
  O  O608  1  0.07355958  0.85174521  0.07382969  1
  O  O609  1  0.07377687  0.85413669  0.32455179  1
  O  O610  1  0.07320426  0.85143911  0.57513423  1
  O  O611  1  0.07247142  0.85302633  0.82320066  1
  O  O612  1  0.57243468  0.18791873  0.07526443  1
  O  O613  1  0.57154723  0.18670719  0.32400809  1
  O  O614  1  0.57385063  0.18869785  0.57418819  1
  O  O615  1  0.57255819  0.18585777  0.82405241  1
  O  O616  1  0.57288028  0.51766056  0.07496033  1
  O  O617  1  0.57274360  0.52052753  0.32574672  1
  O  O618  1  0.57183231  0.52043913  0.57301524  1
  O  O619  1  0.57252832  0.51760289  0.82367240  1
  O  O620  1  0.57447223  0.85304570  0.07513499  1
  O  O621  1  0.57434068  0.85316814  0.32628351  1
  O  O622  1  0.57294116  0.85507850  0.57460901  1
  O  O623  1  0.57338807  0.85169386  0.82307758  1
  O  O624  1  0.32184839  0.18678535  0.05121424  1
  O  O625  1  0.32225065  0.18674190  0.30136865  1
  O  O626  1  0.32396917  0.18746889  0.54979661  1
  O  O627  1  0.32325724  0.18801725  0.80042007  1
  O  O628  1  0.32309149  0.52067150  0.04966709  1
  O  O629  1  0.32337568  0.51763276  0.30045579  1
  O  O630  1  0.32275612  0.51804666  0.55193559  1
  O  O631  1  0.32151130  0.51946676  0.80287359  1
  O  O632  1  0.32429504  0.85319595  0.04893100  1
  O  O633  1  0.32427222  0.85302966  0.29992519  1
  O  O634  1  0.32363632  0.85492780  0.55092411  1
  O  O635  1  0.32140278  0.85345528  0.80145216  1
  O  O636  1  0.82288350  0.18442472  0.05116553  1
  O  O637  1  0.82321331  0.18479983  0.30133791  1
  O  O638  1  0.82296759  0.18518132  0.55038183  1
  O  O639  1  0.82323980  0.18432784  0.80032318  1
  O  O640  1  0.82303079  0.52097310  0.04977869  1
  O  O641  1  0.82329419  0.51897369  0.30074951  1
  O  O642  1  0.82309285  0.52103059  0.55095873  1
  O  O643  1  0.82297560  0.52125882  0.79997700  1
  O  O644  1  0.82281435  0.85179941  0.05064784  1
  O  O645  1  0.82335883  0.85446550  0.30074780  1
  O  O646  1  0.82147138  0.85333997  0.55164433  1
  O  O647  1  0.82331830  0.85327901  0.79851863  1
  O  O648  1  0.17648495  0.14825845  0.19833427  1
  O  O649  1  0.17704457  0.14815775  0.44945080  1
  O  O650  1  0.17704834  0.14617709  0.70021500  1
  O  O651  1  0.17675432  0.14630549  0.94913734  1
  O  O652  1  0.17632222  0.47851657  0.19966489  1
  O  O653  1  0.17725276  0.48022600  0.44805367  1
  O  O654  1  0.17680167  0.48191600  0.69986421  1
  O  O655  1  0.17847727  0.48031541  0.94896430  1
  O  O656  1  0.17724446  0.81176874  0.19925920  1
  O  O657  1  0.17673149  0.81347802  0.45031510  1
  O  O658  1  0.17672201  0.81368170  0.70142717  1
  O  O659  1  0.17883436  0.81389450  0.94859162  1
  O  O660  1  0.67685422  0.14785129  0.19997833  1
  O  O661  1  0.67764670  0.14674506  0.44865760  1
  O  O662  1  0.67759229  0.14706951  0.69767307  1
  O  O663  1  0.67623073  0.14758941  0.94864983  1
  O  O664  1  0.67575946  0.47983355  0.20058459  1
  O  O665  1  0.67736400  0.48208502  0.44931658  1
  O  O666  1  0.67555202  0.48007910  0.70060601  1
  O  O667  1  0.67613414  0.47974963  0.95062201  1
  O  O668  1  0.67815615  0.81403394  0.19836253  1
  O  O669  1  0.67632362  0.81416249  0.45086351  1
  O  O670  1  0.67860483  0.81401033  0.69805189  1
  O  O671  1  0.67680225  0.81218093  0.94940980  1
