# generated using pymatgen
data_Na2MnFe(PO4)2
_symmetry_space_group_name_H-M   'P 1'
_cell_length_a   22.34362647
_cell_length_b   20.09255107
_cell_length_c   19.44997432
_cell_angle_alpha   89.95766086
_cell_angle_beta   90.04425662
_cell_angle_gamma   90.02674639
_symmetry_Int_Tables_number   1
_chemical_formula_structural   Na2MnFe(PO4)2
_chemical_formula_sum   'Na96 Mn48 Fe48 P96 O384'
_cell_volume   8731.87439515
_cell_formula_units_Z   48
loop_
 _symmetry_equiv_pos_site_id
 _symmetry_equiv_pos_as_xyz
  1  'x, y, z'
loop_
 _atom_site_type_symbol
 _atom_site_label
 _atom_site_symmetry_multiplicity
 _atom_site_fract_x
 _atom_site_fract_y
 _atom_site_fract_z
 _atom_site_occupancy
  Na  Na0  1  0.14062521  0.25086634  0.24356043  1
  Na  Na1  1  0.14040704  0.24963899  0.49543394  1
  Na  Na2  1  0.14063857  0.25061952  0.74432577  1
  Na  Na3  1  0.14032201  0.25063418  0.99415910  1
  Na  Na4  1  0.14016781  0.58288091  0.24352991  1
  Na  Na5  1  0.14021072  0.58324452  0.49478443  1
  Na  Na6  1  0.13993512  0.58409385  0.74333160  1
  Na  Na7  1  0.14003080  0.58319696  0.99347820  1
  Na  Na8  1  0.14021616  0.91703731  0.24355305  1
  Na  Na9  1  0.14070823  0.91643590  0.49370720  1
  Na  Na10  1  0.14071619  0.91888058  0.74392626  1
  Na  Na11  1  0.14017344  0.91716724  0.99325176  1
  Na  Na12  1  0.64024370  0.25040326  0.24392220  1
  Na  Na13  1  0.64042745  0.24973237  0.49549684  1
  Na  Na14  1  0.64021720  0.25013596  0.74356738  1
  Na  Na15  1  0.63931427  0.24986905  0.99234352  1
  Na  Na16  1  0.63956840  0.58490111  0.24316170  1
  Na  Na17  1  0.63997872  0.58264951  0.49298614  1
  Na  Na18  1  0.64015242  0.58183830  0.74201198  1
  Na  Na19  1  0.64005066  0.58373027  0.99281629  1
  Na  Na20  1  0.64015616  0.91685266  0.24403378  1
  Na  Na21  1  0.64012158  0.91538428  0.49366879  1
  Na  Na22  1  0.64044525  0.91516370  0.74354633  1
  Na  Na23  1  0.64007532  0.91716109  0.99345589  1
  Na  Na24  1  0.36052117  0.08379525  0.00724376  1
  Na  Na25  1  0.36031209  0.08432587  0.25583243  1
  Na  Na26  1  0.35976290  0.08316843  0.50563015  1
  Na  Na27  1  0.36010825  0.08421696  0.75698732  1
  Na  Na28  1  0.35985097  0.41589192  0.00671589  1
  Na  Na29  1  0.35977149  0.41738113  0.25595900  1
  Na  Na30  1  0.36005466  0.41634444  0.50645568  1
  Na  Na31  1  0.36034892  0.41711792  0.75637015  1
  Na  Na32  1  0.35999047  0.74885333  0.00571572  1
  Na  Na33  1  0.35968793  0.74972362  0.25605202  1
  Na  Na34  1  0.36008962  0.74900988  0.50690762  1
  Na  Na35  1  0.36023516  0.75037642  0.75667468  1
  Na  Na36  1  0.85955998  0.08292981  0.00552561  1
  Na  Na37  1  0.85926864  0.08291832  0.25658680  1
  Na  Na38  1  0.85967133  0.08303787  0.50742776  1
  Na  Na39  1  0.86009131  0.08368397  0.75735019  1
  Na  Na40  1  0.85967993  0.41601022  0.00534470  1
  Na  Na41  1  0.85955611  0.41806442  0.25622797  1
  Na  Na42  1  0.85858229  0.41634468  0.50698467  1
  Na  Na43  1  0.85943433  0.41594850  0.75623891  1
  Na  Na44  1  0.86024577  0.75075550  0.00583353  1
  Na  Na45  1  0.85978948  0.75082157  0.25595554  1
  Na  Na46  1  0.85954237  0.74834136  0.50568008  1
  Na  Na47  1  0.85988726  0.74871425  0.75613574  1
  Na  Na48  1  0.10937367  0.08399910  0.11833107  1
  Na  Na49  1  0.10963520  0.08268652  0.36926702  1
  Na  Na50  1  0.10986967  0.08394300  0.61932211  1
  Na  Na51  1  0.10970453  0.08302633  0.86919592  1
  Na  Na52  1  0.10983735  0.41844500  0.11820616  1
  Na  Na53  1  0.10932537  0.41685722  0.36894088  1
  Na  Na54  1  0.10938889  0.41838782  0.61972532  1
  Na  Na55  1  0.10960236  0.41715739  0.86899339  1
  Na  Na56  1  0.10906282  0.75131293  0.11863938  1
  Na  Na57  1  0.10987454  0.74853915  0.36902765  1
  Na  Na58  1  0.10992752  0.75080300  0.61865645  1
  Na  Na59  1  0.10914139  0.75056588  0.86840692  1
  Na  Na60  1  0.60895362  0.08461356  0.11845773  1
  Na  Na61  1  0.60943238  0.08352942  0.36912772  1
  Na  Na62  1  0.60992315  0.08309003  0.61958165  1
  Na  Na63  1  0.60941459  0.08329389  0.86827922  1
  Na  Na64  1  0.60906581  0.41712199  0.11844657  1
  Na  Na65  1  0.60958788  0.41711856  0.36853030  1
  Na  Na66  1  0.60999134  0.41608444  0.61849806  1
  Na  Na67  1  0.60916202  0.41508938  0.86688699  1
  Na  Na68  1  0.60952734  0.75072560  0.11873077  1
  Na  Na69  1  0.60955081  0.75041888  0.36759030  1
  Na  Na70  1  0.60959077  0.74810276  0.61817129  1
  Na  Na71  1  0.60937516  0.74851754  0.86779436  1
  Na  Na72  1  0.39014221  0.25004398  0.13184450  1
  Na  Na73  1  0.39014927  0.24980016  0.38059684  1
  Na  Na74  1  0.39064589  0.25015286  0.63227668  1
  Na  Na75  1  0.39105284  0.24909168  0.88201044  1
  Na  Na76  1  0.39049856  0.58346890  0.13118076  1
  Na  Na77  1  0.39037580  0.58449961  0.38115033  1
  Na  Na78  1  0.39094206  0.58219258  0.63234995  1
  Na  Na79  1  0.39071740  0.58153782  0.88081372  1
  Na  Na80  1  0.39099226  0.91782314  0.13106177  1
  Na  Na81  1  0.39083855  0.91716562  0.38104155  1
  Na  Na82  1  0.39073951  0.91553489  0.63201186  1
  Na  Na83  1  0.39109563  0.91649138  0.88144939  1
  Na  Na84  1  0.89021857  0.25171859  0.13060547  1
  Na  Na85  1  0.89011734  0.24978708  0.38235324  1
  Na  Na86  1  0.88985705  0.24965980  0.63311490  1
  Na  Na87  1  0.89014141  0.24905609  0.88121943  1
  Na  Na88  1  0.89066372  0.58535665  0.13081106  1
  Na  Na89  1  0.88985110  0.58351540  0.38125788  1
  Na  Na90  1  0.88967973  0.58393086  0.63154198  1
  Na  Na91  1  0.89069910  0.58363276  0.88002624  1
  Na  Na92  1  0.89007233  0.91653131  0.13033867  1
  Na  Na93  1  0.89048611  0.91475799  0.38103763  1
  Na  Na94  1  0.89089888  0.91692259  0.63139865  1
  Na  Na95  1  0.89082979  0.91592467  0.88158423  1
  Mn  Mn96  1  0.25008161  0.83444444  0.87532871  1
  Mn  Mn97  1  0.25058867  0.16690376  0.87520334  1
  Mn  Mn98  1  -0.00049237  -0.00111525  0.24945336  1
  Mn  Mn99  1  0.25020674  0.83339356  0.12493025  1
  Mn  Mn100  1  0.75046172  0.83158823  0.62397972  1
  Mn  Mn101  1  -0.00085035  0.50109124  0.50005673  1
  Mn  Mn102  1  0.74989732  0.66815122  0.12373366  1
  Mn  Mn103  1  -0.00040699  0.50080194  -0.00052352  1
  Mn  Mn104  1  0.25051145  0.00069392  0.62433448  1
  Mn  Mn105  1  0.49953862  -0.00075034  0.50025239  1
  Mn  Mn106  1  0.00012468  0.16561589  0.50103572  1
  Mn  Mn107  1  0.49966052  0.83405526  0.24905978  1
  Mn  Mn108  1  0.24922819  0.66585989  0.12500639  1
  Mn  Mn109  1  0.00008697  0.33328186  0.75021289  1
  Mn  Mn110  1  0.50039366  0.33408688  0.50016570  1
  Mn  Mn111  1  0.25064031  0.33451891  0.87496585  1
  Mn  Mn112  1  0.75049333  -0.00030572  0.62512533  1
  Mn  Mn113  1  0.49978277  0.16669930  0.50023925  1
  Mn  Mn114  1  0.25025395  0.33362854  0.62520724  1
  Mn  Mn115  1  0.75028578  -0.00049222  0.87490252  1
  Mn  Mn116  1  0.49994471  0.83255027  0.00021153  1
  Mn  Mn117  1  -0.00028780  0.16682541  0.00021702  1
  Mn  Mn118  1  0.74939355  -0.00063803  0.37567401  1
  Mn  Mn119  1  0.24949936  0.50016315  0.37538292  1
  Mn  Mn120  1  0.24974543  0.66602985  0.87526345  1
  Mn  Mn121  1  0.74964928  0.16767143  0.37621861  1
  Mn  Mn122  1  -0.00039832  0.16674268  0.24999618  1
  Mn  Mn123  1  0.50050720  0.49968844  -0.00065652  1
  Mn  Mn124  1  0.00035789  0.83376581  0.74977071  1
  Mn  Mn125  1  0.25043437  0.83253345  0.37469090  1
  Mn  Mn126  1  0.75025807  0.16692886  0.12521392  1
  Mn  Mn127  1  0.25033949  0.00100441  0.37474372  1
  Mn  Mn128  1  0.50004126  0.33384981  0.24988155  1
  Mn  Mn129  1  -0.00038723  0.33364328  0.50071640  1
  Mn  Mn130  1  0.75036935  0.66665771  0.87432025  1
  Mn  Mn131  1  0.74928783  0.50017116  0.37523504  1
  Mn  Mn132  1  0.74952579  0.50040286  0.12485095  1
  Mn  Mn133  1  0.74925117  -0.00074714  0.12509871  1
  Mn  Mn134  1  0.50014133  0.66646835  0.49992219  1
  Mn  Mn135  1  -0.00009030  0.33465186  0.25072393  1
  Mn  Mn136  1  0.75015536  0.49894868  0.87360756  1
  Mn  Mn137  1  0.25039382  0.00097840  0.12497353  1
  Mn  Mn138  1  -0.00015655  0.66713772  0.24958570  1
  Mn  Mn139  1  0.25045987  0.66651662  0.62576440  1
  Mn  Mn140  1  0.00029298  0.83300261  0.50065404  1
  Mn  Mn141  1  0.24974570  0.33251249  0.37571545  1
  Mn  Mn142  1  0.50009481  -0.00095065  0.75032128  1
  Mn  Mn143  1  0.74942234  0.33350006  0.12468996  1
  Fe  Fe144  1  0.25001305  0.16704407  0.37473156  1
  Fe  Fe145  1  0.24989160  0.66612713  0.37567613  1
  Fe  Fe146  1  0.74965352  0.49917424  0.62419661  1
  Fe  Fe147  1  0.25002231  0.50000903  0.62507337  1
  Fe  Fe148  1  0.49995645  0.50086923  0.24913621  1
  Fe  Fe149  1  0.00039249  0.00012613  0.75066356  1
  Fe  Fe150  1  0.24977443  0.33353807  0.12518339  1
  Fe  Fe151  1  0.50022128  0.49887269  0.75028540  1
  Fe  Fe152  1  0.74911642  0.66606583  0.62441782  1
  Fe  Fe153  1  0.00024332  0.66660577  0.49990948  1
  Fe  Fe154  1  0.50038272  0.66545348  0.74934723  1
  Fe  Fe155  1  0.00029050  0.66730625  -0.00013656  1
  Fe  Fe156  1  0.75013115  0.83270230  0.37481538  1
  Fe  Fe157  1  0.24976810  0.50004818  0.87543013  1
  Fe  Fe158  1  0.00006623  0.66720439  0.74997814  1
  Fe  Fe159  1  0.49950307  0.66727120  0.24996409  1
  Fe  Fe160  1  0.75028647  0.33257929  0.62555876  1
  Fe  Fe161  1  0.49974149  0.50001367  0.50015830  1
  Fe  Fe162  1  0.49975590  0.33280833  -0.00056729  1
  Fe  Fe163  1  0.50038090  0.00066998  0.25024687  1
  Fe  Fe164  1  -0.00002237  0.33385836  -0.00032891  1
  Fe  Fe165  1  0.50006586  0.16660493  0.00008631  1
  Fe  Fe166  1  0.00003965  -0.00031095  0.50039348  1
  Fe  Fe167  1  -0.00015573  0.00010080  -0.00020398  1
  Fe  Fe168  1  0.50025660  0.66582016  -0.00076811  1
  Fe  Fe169  1  0.49988220  0.33263001  0.75000959  1
  Fe  Fe170  1  0.74986527  0.83281990  0.87414906  1
  Fe  Fe171  1  0.74982349  0.33332311  0.37611188  1
  Fe  Fe172  1  -0.00024898  0.50071402  0.75006111  1
  Fe  Fe173  1  -0.00038268  0.50084431  0.24947082  1
  Fe  Fe174  1  0.25050470  0.83363272  0.62519387  1
  Fe  Fe175  1  0.25077660  0.00083737  0.87493491  1
  Fe  Fe176  1  0.74961106  0.33289283  0.87454076  1
  Fe  Fe177  1  0.50045016  0.83195004  0.75056736  1
  Fe  Fe178  1  0.74977629  0.66669074  0.37450390  1
  Fe  Fe179  1  0.00036988  0.16607317  0.75105082  1
  Fe  Fe180  1  0.50020473  0.83285890  0.50001288  1
  Fe  Fe181  1  0.75006294  0.16667744  0.62584748  1
  Fe  Fe182  1  0.24956279  0.16705396  0.12512114  1
  Fe  Fe183  1  0.50009288  0.16607026  0.75066444  1
  Fe  Fe184  1  0.50017354  0.00028295  0.00049776  1
  Fe  Fe185  1  0.74951986  0.16677814  0.87475530  1
  Fe  Fe186  1  0.00029956  0.83347143  0.24948919  1
  Fe  Fe187  1  0.74980586  0.83353954  0.12510602  1
  Fe  Fe188  1  0.00019419  0.83384948  -0.00061637  1
  Fe  Fe189  1  0.25071632  0.16699718  0.62542496  1
  Fe  Fe190  1  0.50020652  0.16706347  0.24960066  1
  Fe  Fe191  1  0.25052549  0.49997131  0.12535268  1
  P  P192  1  0.04205356  0.25210242  0.10245073  1
  P  P193  1  0.04273512  0.24981622  0.35349927  1
  P  P194  1  0.04229026  0.24980612  0.60446529  1
  P  P195  1  0.04232015  0.24895095  0.85310703  1
  P  P196  1  0.04210150  0.58502696  0.10233628  1
  P  P197  1  0.04210358  0.58253677  0.35236615  1
  P  P198  1  0.04179300  0.58517895  0.60342629  1
  P  P199  1  0.04141455  0.58397759  0.85186668  1
  P  P200  1  0.04144333  0.91690395  0.10134340  1
  P  P201  1  0.04246030  0.91494744  0.35260902  1
  P  P202  1  0.04268512  0.91834597  0.60305396  1
  P  P203  1  0.04229159  0.91778771  0.85312411  1
  P  P204  1  0.54095065  0.25029570  0.10158774  1
  P  P205  1  0.54220558  0.24928747  0.35226316  1
  P  P206  1  0.54233827  0.25009888  0.60424793  1
  P  P207  1  0.54103514  0.24962815  0.85209392  1
  P  P208  1  0.54217411  0.58458246  0.10255044  1
  P  P209  1  0.54104573  0.58361732  0.35136677  1
  P  P210  1  0.54207014  0.58158879  0.60288169  1
  P  P211  1  0.54175374  0.58263035  0.85126010  1
  P  P212  1  0.54214975  0.91825029  0.10268953  1
  P  P213  1  0.54219219  0.91746061  0.35251805  1
  P  P214  1  0.54219421  0.91427735  0.60301418  1
  P  P215  1  0.54239566  0.91470856  0.85281949  1
  P  P216  1  0.45894236  0.08373054  0.14786112  1
  P  P217  1  0.45750488  0.08330531  0.39612965  1
  P  P218  1  0.45791973  0.08380480  0.64825180  1
  P  P219  1  0.45910776  0.08308158  0.89847508  1
  P  P220  1  0.45788259  0.41790707  0.14700968  1
  P  P221  1  0.45788246  0.41869889  0.39706673  1
  P  P222  1  0.45889842  0.41628997  0.64832990  1
  P  P223  1  0.45813654  0.41471550  0.89673001  1
  P  P224  1  0.45765385  0.74879413  0.14686390  1
  P  P225  1  0.45791116  0.75114562  0.39733959  1
  P  P226  1  0.45881017  0.74924058  0.64831255  1
  P  P227  1  0.45812540  0.74775546  0.89663623  1
  P  P228  1  0.95674843  0.08315037  0.14632621  1
  P  P229  1  0.95736789  0.08136971  0.39796963  1
  P  P230  1  0.95870467  0.08288265  0.64889639  1
  P  P231  1  0.95793059  0.08199422  0.89702093  1
  P  P232  1  0.95764204  0.41862161  0.14701578  1
  P  P233  1  0.95654924  0.41730599  0.39694908  1
  P  P234  1  0.95750681  0.41838067  0.64802343  1
  P  P235  1  0.95792828  0.41592779  0.89684433  1
  P  P236  1  0.95793447  0.75210840  0.14645090  1
  P  P237  1  0.95803503  0.74869054  0.39745904  1
  P  P238  1  0.95805974  0.74908868  0.64725479  1
  P  P239  1  0.95894608  0.74972766  0.89776953  1
  P  P240  1  0.20743436  0.08522597  0.22763783  1
  P  P241  1  0.20812155  0.08515623  0.47781037  1
  P  P242  1  0.20836408  0.08466120  0.72767271  1
  P  P243  1  0.20812338  0.08288209  0.97768897  1
  P  P244  1  0.20856542  0.41692692  0.22672852  1
  P  P245  1  0.20696313  0.41658012  0.47885093  1
  P  P246  1  0.20794373  0.41858077  0.72797251  1
  P  P247  1  0.20802265  0.41786809  0.97851590  1
  P  P248  1  0.20701023  0.74953355  0.22853922  1
  P  P249  1  0.20822321  0.74860736  0.47810567  1
  P  P250  1  0.20803572  0.75187535  0.72756127  1
  P  P251  1  0.20697837  0.74983715  0.97799222  1
  P  P252  1  0.70692787  0.08332520  0.22836301  1
  P  P253  1  0.70700743  0.08354791  0.47930686  1
  P  P254  1  0.70838465  0.08445302  0.72821367  1
  P  P255  1  0.70757920  0.08416037  0.97698866  1
  P  P256  1  0.70670335  0.41695432  0.22857626  1
  P  P257  1  0.70762560  0.41514859  0.47859975  1
  P  P258  1  0.70889744  0.41556786  0.72635304  1
  P  P259  1  0.70695435  0.41542497  0.97648497  1
  P  P260  1  0.70767214  0.75145819  0.22786436  1
  P  P261  1  0.70809997  0.74889027  0.47629005  1
  P  P262  1  0.70768377  0.74831045  0.72709273  1
  P  P263  1  0.70766299  0.75165604  0.97694977  1
  P  P264  1  0.29137139  0.25014091  0.02375956  1
  P  P265  1  0.29185693  0.24924607  0.27166604  1
  P  P266  1  0.29283898  0.24860164  0.52260692  1
  P  P267  1  0.29322199  0.25046974  0.77185888  1
  P  P268  1  0.29220145  0.58136387  0.02229433  1
  P  P269  1  0.29203167  0.58420543  0.27261837  1
  P  P270  1  0.29270359  0.58210417  0.52287385  1
  P  P271  1  0.29190513  0.58193072  0.77247505  1
  P  P272  1  0.29323088  0.91740266  0.02145798  1
  P  P273  1  0.29315077  0.91718902  0.27188437  1
  P  P274  1  0.29276619  0.91528870  0.52253995  1
  P  P275  1  0.29278863  0.91849693  0.77228483  1
  P  P276  1  0.79210079  0.24995061  0.02072159  1
  P  P277  1  0.79238000  0.25184447  0.27330453  1
  P  P278  1  0.79177946  0.24996276  0.52401112  1
  P  P279  1  0.79120392  0.24993425  0.77281083  1
  P  P280  1  0.79282995  0.58340332  0.02129404  1
  P  P281  1  0.79186401  0.58499552  0.27236528  1
  P  P282  1  0.79062468  0.58340536  0.52283791  1
  P  P283  1  0.79229060  0.58277754  0.77012128  1
  P  P284  1  0.79172797  0.91507964  0.02195652  1
  P  P285  1  0.79189937  0.91513390  0.27244743  1
  P  P286  1  0.79299965  0.91560540  0.52138018  1
  P  P287  1  0.79271550  0.91496292  0.77231269  1
  O  O288  1  0.03687298  0.25184899  0.18238508  1
  O  O289  1  0.03767569  0.24967629  0.43350529  1
  O  O290  1  0.03702290  0.24915250  0.68441358  1
  O  O291  1  0.03695809  0.24971445  0.93301881  1
  O  O292  1  0.03666553  0.58418459  0.18221697  1
  O  O293  1  0.03706760  0.58320993  0.43230971  1
  O  O294  1  0.03627242  0.58488199  0.68329701  1
  O  O295  1  0.03620158  0.58446460  0.93182116  1
  O  O296  1  0.03661131  0.91608549  0.18132513  1
  O  O297  1  0.03741299  0.91548496  0.43252681  1
  O  O298  1  0.03752286  0.91851363  0.68299924  1
  O  O299  1  0.03675690  0.91743726  0.93295704  1
  O  O300  1  0.53619331  0.24975715  0.18153637  1
  O  O301  1  0.53711022  0.24969005  0.43219590  1
  O  O302  1  0.53697178  0.25008491  0.68412496  1
  O  O303  1  0.53614438  0.24963253  0.93199855  1
  O  O304  1  0.53663722  0.58445012  0.18239462  1
  O  O305  1  0.53612724  0.58327379  0.43132962  1
  O  O306  1  0.53703714  0.58189944  0.68273612  1
  O  O307  1  0.53705488  0.58259576  0.93121608  1
  O  O308  1  0.53656612  0.91861035  0.18259602  1
  O  O309  1  0.53691933  0.91648018  0.43245765  1
  O  O310  1  0.53696266  0.91402274  0.68296051  1
  O  O311  1  0.53720235  0.91517298  0.93267497  1
  O  O312  1  0.46411135  0.08348003  0.06794162  1
  O  O313  1  0.46308044  0.08332811  0.31623699  1
  O  O314  1  0.46247822  0.08355151  0.56828939  1
  O  O315  1  0.46394085  0.08344436  0.81853934  1
  O  O316  1  0.46314393  0.41726880  0.06711936  1
  O  O317  1  0.46311010  0.41883334  0.31713358  1
  O  O318  1  0.46350477  0.41709878  0.56835812  1
  O  O319  1  0.46345137  0.41461489  0.81686660  1
  O  O320  1  0.46305070  0.74842306  0.06697052  1
  O  O321  1  0.46282856  0.75070891  0.31739116  1
  O  O322  1  0.46375428  0.74999256  0.56833392  1
  O  O323  1  0.46377908  0.74794486  0.81677676  1
  O  O324  1  0.96206183  0.08292289  0.06638607  1
  O  O325  1  0.96218359  0.08185622  0.31797468  1
  O  O326  1  0.96368751  0.08238545  0.56890336  1
  O  O327  1  0.96368687  0.08231270  0.81716135  1
  O  O328  1  0.96282545  0.41786135  0.06706206  1
  O  O329  1  0.96166373  0.41783570  0.31698309  1
  O  O330  1  0.96246290  0.41814610  0.56807580  1
  O  O331  1  0.96340266  0.41654022  0.81697330  1
  O  O332  1  0.96342400  0.75194876  0.06661437  1
  O  O333  1  0.96300529  0.74933394  0.31754875  1
  O  O334  1  0.96333369  0.74888734  0.56735107  1
  O  O335  1  0.96411289  0.74966227  0.81780961  1
  O  O336  1  0.21298928  0.08349610  0.05764245  1
  O  O337  1  0.21256661  0.08523962  0.30760289  1
  O  O338  1  0.21368309  0.08502205  0.55773440  1
  O  O339  1  0.21373505  0.08352769  0.80759055  1
  O  O340  1  0.21331315  0.41766515  0.05840269  1
  O  O341  1  0.21304538  0.41638596  0.30673835  1
  O  O342  1  0.21232242  0.41704426  0.55876649  1
  O  O343  1  0.21328737  0.41882421  0.80794735  1
  O  O344  1  0.21195381  0.74965086  0.05795283  1
  O  O345  1  0.21228614  0.74896287  0.30851030  1
  O  O346  1  0.21359746  0.74930515  0.55803999  1
  O  O347  1  0.21292700  0.75154261  0.80750149  1
  O  O348  1  0.71232101  0.08389206  0.05698895  1
  O  O349  1  0.71186963  0.08334917  0.30834476  1
  O  O350  1  0.71247967  0.08388552  0.55928737  1
  O  O351  1  0.71378207  0.08455157  0.80817206  1
  O  O352  1  0.71160609  0.41597930  0.05649990  1
  O  O353  1  0.71174601  0.41664841  0.30855940  1
  O  O354  1  0.71339003  0.41527198  0.55845284  1
  O  O355  1  0.71367851  0.41541350  0.80631536  1
  O  O356  1  0.71273099  0.75196152  0.05693079  1
  O  O357  1  0.71313838  0.75076472  0.30773495  1
  O  O358  1  0.71320006  0.74824154  0.55625752  1
  O  O359  1  0.71284082  0.74910611  0.80700069  1
  O  O360  1  0.28626798  0.24965719  0.19179928  1
  O  O361  1  0.28738369  0.24854528  0.44264049  1
  O  O362  1  0.28815584  0.24988432  0.69194583  1
  O  O363  1  0.28705532  0.25056405  0.94372535  1
  O  O364  1  0.28689874  0.58360587  0.19266589  1
  O  O365  1  0.28731941  0.58294538  0.44294851  1
  O  O366  1  0.28685836  0.58205120  0.69251935  1
  O  O367  1  0.28688091  0.58119435  0.94233734  1
  O  O368  1  0.28803704  0.91727772  0.19191661  1
  O  O369  1  0.28762323  0.91541095  0.44261873  1
  O  O370  1  0.28751107  0.91793572  0.69232875  1
  O  O371  1  0.28805957  0.91814428  0.94148197  1
  O  O372  1  0.78743387  0.25148761  0.19329288  1
  O  O373  1  0.78653135  0.25056680  0.44405830  1
  O  O374  1  0.78637248  0.24974679  0.69285207  1
  O  O375  1  0.78671753  0.24970574  0.94079113  1
  O  O376  1  0.78685728  0.58497554  0.19240034  1
  O  O377  1  0.78563252  0.58368335  0.44284088  1
  O  O378  1  0.78664177  0.58295551  0.69025447  1
  O  O379  1  0.78798527  0.58318289  0.94129546  1
  O  O380  1  0.78650025  0.91520267  0.19246290  1
  O  O381  1  0.78760247  0.91537997  0.44146129  1
  O  O382  1  0.78764436  0.91529428  0.69236335  1
  O  O383  1  0.78651988  0.91503032  0.94200646  1
  O  O384  1  0.22708982  0.24962186  0.05913088  1
  O  O385  1  0.22776780  0.24861879  0.30798566  1
  O  O386  1  0.22862118  0.24861274  0.55847282  1
  O  O387  1  0.22889681  0.25064806  0.80710119  1
  O  O388  1  0.22790616  0.58098892  0.05792906  1
  O  O389  1  0.22774156  0.58479123  0.30828749  1
  O  O390  1  0.22841162  0.58189451  0.55856596  1
  O  O391  1  0.22757770  0.58179630  0.80798636  1
  O  O392  1  0.22880578  0.91726927  0.05653668  1
  O  O393  1  0.22877021  0.91695023  0.30690598  1
  O  O394  1  0.22845207  0.91548455  0.55803910  1
  O  O395  1  0.22853478  0.91937435  0.80806321  1
  O  O396  1  0.72782466  0.24987012  0.05631966  1
  O  O397  1  0.72792738  0.25202889  0.30856627  1
  O  O398  1  0.72765200  0.24965312  0.56011546  1
  O  O399  1  0.72705924  0.25031085  0.80887154  1
  O  O400  1  0.72828996  0.58381859  0.05602143  1
  O  O401  1  0.72751832  0.58511145  0.30781067  1
  O  O402  1  0.72651652  0.58349883  0.55877969  1
  O  O403  1  0.72816233  0.58299421  0.80602952  1
  O  O404  1  0.72747456  0.91478387  0.05771669  1
  O  O405  1  0.72770208  0.91490057  0.30829001  1
  O  O406  1  0.72869974  0.91580159  0.55672491  1
  O  O407  1  0.72832625  0.91489989  0.80762443  1
  O  O408  1  0.27182163  0.08557736  0.19219716  1
  O  O409  1  0.27227718  0.08546254  0.44178633  1
  O  O410  1  0.27261208  0.08500309  0.69191778  1
  O  O411  1  0.27255255  0.08237473  0.94236613  1
  O  O412  1  0.27281525  0.41735813  0.19120029  1
  O  O413  1  0.27125586  0.41645538  0.44349827  1
  O  O414  1  0.27217497  0.41852248  0.69217991  1
  O  O415  1  0.27222993  0.41857683  0.94250858  1
  O  O416  1  0.27136919  0.74947371  0.19327336  1
  O  O417  1  0.27241920  0.74800284  0.44224782  1
  O  O418  1  0.27241864  0.75167912  0.69226231  1
  O  O419  1  0.27144209  0.74993961  0.94315887  1
  O  O420  1  0.77136506  0.08300744  0.19336244  1
  O  O421  1  0.77125061  0.08334392  0.44385738  1
  O  O422  1  0.77255479  0.08445757  0.69232465  1
  O  O423  1  0.77194973  0.08408284  0.94178940  1
  O  O424  1  0.77109812  0.41696470  0.19335564  1
  O  O425  1  0.77163944  0.41543152  0.44218478  1
  O  O426  1  0.77298145  0.41545451  0.69045030  1
  O  O427  1  0.77149274  0.41480193  0.94154570  1
  O  O428  1  0.77185078  0.75204007  0.19174986  1
  O  O429  1  0.77233097  0.74865601  0.44045566  1
  O  O430  1  0.77200172  0.74738204  0.69158725  1
  O  O431  1  0.77205944  0.75163220  0.94151747  1
  O  O432  1  0.02110049  0.08316074  0.18174725  1
  O  O433  1  0.02184959  0.08138890  0.43324699  1
  O  O434  1  0.02289803  0.08334177  0.68491534  1
  O  O435  1  0.02195717  0.08191207  0.93348562  1
  O  O436  1  0.02193119  0.41908911  0.18285412  1
  O  O437  1  0.02098017  0.41733152  0.43210069  1
  O  O438  1  0.02182553  0.41848771  0.68351179  1
  O  O439  1  0.02204624  0.41602166  0.93299225  1
  O  O440  1  0.02202990  0.75185464  0.18281137  1
  O  O441  1  0.02231883  0.74844130  0.43327939  1
  O  O442  1  0.02231043  0.74938307  0.68307058  1
  O  O443  1  0.02296915  0.74938738  0.93405528  1
  O  O444  1  0.52292368  0.08400389  0.18447082  1
  O  O445  1  0.52161414  0.08293583  0.43217860  1
  O  O446  1  0.52232645  0.08352137  0.68345125  1
  O  O447  1  0.52321344  0.08279013  0.93446925  1
  O  O448  1  0.52207299  0.41824101  0.18297516  1
  O  O449  1  0.52215312  0.41872040  0.43291805  1
  O  O450  1  0.52306562  0.41535213  0.68420880  1
  O  O451  1  0.52229022  0.41432232  0.93283940  1
  O  O452  1  0.52179464  0.74905579  0.18291559  1
  O  O453  1  0.52223606  0.75126722  0.43301874  1
  O  O454  1  0.52297857  0.74846267  0.68430699  1
  O  O455  1  0.52219190  0.74792879  0.93307315  1
  O  O456  1  0.47678867  0.25069399  0.06562374  1
  O  O457  1  0.47794530  0.24895893  0.31655949  1
  O  O458  1  0.47817311  0.25058058  0.56833168  1
  O  O459  1  0.47697736  0.25002179  0.81585430  1
  O  O460  1  0.47809011  0.58429792  0.06617837  1
  O  O461  1  0.47692054  0.58346557  0.31526004  1
  O  O462  1  0.47786949  0.58172336  0.56687658  1
  O  O463  1  0.47757452  0.58319066  0.81539351  1
  O  O464  1  0.47803718  0.91792534  0.06652325  1
  O  O465  1  0.47800700  0.91814863  0.31658439  1
  O  O466  1  0.47792497  0.91423086  0.56718204  1
  O  O467  1  0.47815092  0.91464977  0.81701940  1
  O  O468  1  0.97778767  0.25197686  0.06670923  1
  O  O469  1  0.97824257  0.25028529  0.31851272  1
  O  O470  1  0.97800164  0.24960323  0.56897480  1
  O  O471  1  0.97811776  0.24847363  0.81721559  1
  O  O472  1  0.97791383  0.58557800  0.06631502  1
  O  O473  1  0.97778725  0.58211561  0.31665195  1
  O  O474  1  0.97763092  0.58581043  0.56719095  1
  O  O475  1  0.97732699  0.58366452  0.81566876  1
  O  O476  1  0.97728294  0.91742324  0.06535516  1
  O  O477  1  0.97809740  0.91444315  0.31689932  1
  O  O478  1  0.97837272  0.91791990  0.56735601  1
  O  O479  1  0.97819314  0.91778780  0.81682709  1
  O  O480  1  0.07256646  0.31581974  0.07402952  1
  O  O481  1  0.07407129  0.31323370  0.32548461  1
  O  O482  1  0.07298313  0.31383423  0.57691116  1
  O  O483  1  0.07363264  0.31238778  0.82501912  1
  O  O484  1  0.07300637  0.64869446  0.07431012  1
  O  O485  1  0.07319714  0.64597130  0.32405684  1
  O  O486  1  0.07311997  0.64838272  0.57471403  1
  O  O487  1  0.07238621  0.64748459  0.82338576  1
  O  O488  1  0.07239967  0.98079694  0.07371173  1
  O  O489  1  0.07338235  0.97854843  0.32424997  1
  O  O490  1  0.07329126  0.98172624  0.57396344  1
  O  O491  1  0.07322316  0.98128033  0.82457489  1
  O  O492  1  0.57198102  0.31397087  0.07358123  1
  O  O493  1  0.57299155  0.31312694  0.32441843  1
  O  O494  1  0.57375749  0.31329311  0.57554165  1
  O  O495  1  0.57251095  0.31279248  0.82348026  1
  O  O496  1  0.57288240  0.64812382  0.07370191  1
  O  O497  1  0.57139111  0.64780315  0.32336414  1
  O  O498  1  0.57328377  0.64502419  0.57435687  1
  O  O499  1  0.57335599  0.64568018  0.82285368  1
  O  O500  1  0.57304070  0.98161449  0.07394409  1
  O  O501  1  0.57319441  0.98115520  0.32463447  1
  O  O502  1  0.57301468  0.97831879  0.57555515  1
  O  O503  1  0.57370547  0.97814792  0.82465279  1
  O  O504  1  0.42804591  0.02011952  0.17639158  1
  O  O505  1  0.42605340  0.02004167  0.42463577  1
  O  O506  1  0.42677861  0.02017410  0.67610719  1
  O  O507  1  0.42821412  0.01932875  0.92651635  1
  O  O508  1  0.42670734  0.35443594  0.17521464  1
  O  O509  1  0.42701683  0.35472300  0.42474145  1
  O  O510  1  0.42739581  0.35286520  0.67612226  1
  O  O511  1  0.42681782  0.35165813  0.92585752  1
  O  O512  1  0.42672364  0.68560309  0.17597173  1
  O  O513  1  0.42688364  0.68763221  0.42572061  1
  O  O514  1  0.42761259  0.68545759  0.67582548  1
  O  O515  1  0.42739790  0.68412979  0.92525731  1
  O  O516  1  0.92548656  0.01984777  0.17469704  1
  O  O517  1  0.92697540  0.01755004  0.42630530  1
  O  O518  1  0.92784298  0.01928602  0.67729921  1
  O  O519  1  0.92689108  0.01854609  0.92553643  1
  O  O520  1  0.92641546  0.35525013  0.17536975  1
  O  O521  1  0.92586407  0.35354357  0.42521148  1
  O  O522  1  0.92645999  0.35468482  0.67574091  1
  O  O523  1  0.92755572  0.35199602  0.92510677  1
  O  O524  1  0.92646314  0.68862438  0.17441978  1
  O  O525  1  0.92747281  0.68487439  0.42573667  1
  O  O526  1  0.92714788  0.68587522  0.67622715  1
  O  O527  1  0.92742696  0.68648465  0.92596824  1
  O  O528  1  0.17669786  0.02125191  0.19992784  1
  O  O529  1  0.17745821  0.02104569  0.45019353  1
  O  O530  1  0.17700808  0.02150724  0.69902579  1
  O  O531  1  0.17740737  0.01937797  0.94903277  1
  O  O532  1  0.17822921  0.35309492  0.19803839  1
  O  O533  1  0.17600043  0.35286811  0.45097220  1
  O  O534  1  0.17698411  0.35460916  0.70065146  1
  O  O535  1  0.17739757  0.35398903  0.95027464  1
  O  O536  1  0.17547569  0.68650293  0.20001948  1
  O  O537  1  0.17743016  0.68487506  0.44998623  1
  O  O538  1  0.17678270  0.68831829  0.69983841  1
  O  O539  1  0.17614415  0.68625845  0.94974533  1
  O  O540  1  0.67582604  0.01992230  0.20011744  1
  O  O541  1  0.67578772  0.01999242  0.45144598  1
  O  O542  1  0.67734940  0.02053940  0.70079673  1
  O  O543  1  0.67646075  0.02057585  0.94909042  1
  O  O544  1  0.67536890  0.35380171  0.19997390  1
  O  O545  1  0.67695936  0.35153696  0.44999082  1
  O  O546  1  0.67744726  0.35228775  0.69827598  1
  O  O547  1  0.67610088  0.35199398  0.94795534  1
  O  O548  1  0.67669904  0.68794635  0.19924296  1
  O  O549  1  0.67669126  0.68574012  0.44769037  1
  O  O550  1  0.67652011  0.68489568  0.69881880  1
  O  O551  1  0.67689802  0.68764090  0.94939210  1
  O  O552  1  0.32149470  0.31409756  0.05241589  1
  O  O553  1  0.32276179  0.31300008  0.29986852  1
  O  O554  1  0.32379202  0.31256088  0.55005727  1
  O  O555  1  0.32408369  0.31419002  0.79976413  1
  O  O556  1  0.32286517  0.64543387  0.04979565  1
  O  O557  1  0.32280648  0.64775413  0.30112685  1
  O  O558  1  0.32408127  0.64538184  0.55121081  1
  O  O559  1  0.32264530  0.64591774  0.80018490  1
  O  O560  1  0.32456589  0.98044248  0.05028159  1
  O  O561  1  0.32395448  0.98082836  0.29999503  1
  O  O562  1  0.32408984  0.97893976  0.54997202  1
  O  O563  1  0.32388859  0.98193388  0.80060128  1
  O  O564  1  0.82320183  0.31343875  0.04905420  1
  O  O565  1  0.82301691  0.31535856  0.30190415  1
  O  O566  1  0.82283559  0.31339906  0.55244746  1
  O  O567  1  0.82231453  0.31347162  0.80114948  1
  O  O568  1  0.82393959  0.64691096  0.04929757  1
  O  O569  1  0.82277764  0.64845582  0.30080784  1
  O  O570  1  0.82197456  0.64664135  0.55122707  1
  O  O571  1  0.82385694  0.64586334  0.79874024  1
  O  O572  1  0.82238634  0.97912045  0.04963140  1
  O  O573  1  0.82287819  0.97894802  0.30010828  1
  O  O574  1  0.82410384  0.97907259  0.54966786  1
  O  O575  1  0.82375993  0.97854739  0.80023474  1
  O  O576  1  0.42798286  0.14745475  0.17590614  1
  O  O577  1  0.42645359  0.14677719  0.42440598  1
  O  O578  1  0.42760506  0.14745189  0.67700244  1
  O  O579  1  0.42835415  0.14668564  0.92710680  1
  O  O580  1  0.42721668  0.48155460  0.17527654  1
  O  O581  1  0.42693467  0.48184246  0.42606767  1
  O  O582  1  0.42874965  0.48009431  0.67737519  1
  O  O583  1  0.42739337  0.47857585  0.92454669  1
  O  O584  1  0.42650022  0.81267725  0.17404498  1
  O  O585  1  0.42731309  0.81472312  0.42584747  1
  O  O586  1  0.42840401  0.81283857  0.67729044  1
  O  O587  1  0.42662905  0.81113484  0.92459716  1
  O  O588  1  0.92585953  0.14684161  0.17430033  1
  O  O589  1  0.92626072  0.14482857  0.42615784  1
  O  O590  1  0.92790253  0.14668562  0.67687314  1
  O  O591  1  0.92659857  0.14549843  0.92484702  1
  O  O592  1  0.92704396  0.48246570  0.17503722  1
  O  O593  1  0.92512148  0.48040969  0.42543740  1
  O  O594  1  0.92692371  0.48201446  0.67625816  1
  O  O595  1  0.92629598  0.47920198  0.92464133  1
  O  O596  1  0.92740864  0.81556640  0.17549496  1
  O  O597  1  0.92686791  0.81196774  0.42586538  1
  O  O598  1  0.92699714  0.81288950  0.67479495  1
  O  O599  1  0.92872487  0.81387989  0.92579798  1
  O  O600  1  0.07325339  0.18851185  0.07483998  1
  O  O601  1  0.07330443  0.18619708  0.32515343  1
  O  O602  1  0.07386664  0.18686016  0.57588759  1
  O  O603  1  0.07311506  0.18525295  0.82509211  1
  O  O604  1  0.07315805  0.52164228  0.07399179  1
  O  O605  1  0.07276441  0.51888659  0.32399591  1
  O  O606  1  0.07262173  0.52146133  0.57533525  1
  O  O607  1  0.07210857  0.52004436  0.82409419  1
  O  O608  1  0.07217590  0.85342463  0.07251942  1
  O  O609  1  0.07319030  0.85140205  0.32412868  1
  O  O610  1  0.07381081  0.85461711  0.57552679  1
  O  O611  1  0.07359677  0.85436658  0.82493328  1
  O  O612  1  0.57154796  0.18666607  0.07278999  1
  O  O613  1  0.57313535  0.18588091  0.32397503  1
  O  O614  1  0.57327446  0.18653561  0.57606720  1
  O  O615  1  0.57132741  0.18558251  0.82364051  1
  O  O616  1  0.57367499  0.52121880  0.07444090  1
  O  O617  1  0.57234612  0.52038726  0.32293940  1
  O  O618  1  0.57269927  0.51809467  0.57408678  1
  O  O619  1  0.57174786  0.51833650  0.82304057  1
  O  O620  1  0.57323196  0.85442354  0.07543537  1
  O  O621  1  0.57316211  0.85406227  0.32400137  1
  O  O622  1  0.57320647  0.85111067  0.57407550  1
  O  O623  1  0.57295024  0.85105910  0.82429027  1
  O  O624  1  0.32245262  0.18652655  0.05161750  1
  O  O625  1  0.32312900  0.18603649  0.30027851  1
  O  O626  1  0.32386411  0.18539613  0.55144417  1
  O  O627  1  0.32444714  0.18734014  0.80071995  1
  O  O628  1  0.32348493  0.51834948  0.05127143  1
  O  O629  1  0.32297920  0.52059853  0.30075257  1
  O  O630  1  0.32327264  0.51831692  0.55111270  1
  O  O631  1  0.32294907  0.51873934  0.80128114  1
  O  O632  1  0.32403318  0.85349410  0.04912188  1
  O  O633  1  0.32446604  0.85378954  0.29978873  1
  O  O634  1  0.32320915  0.85166705  0.55134561  1
  O  O635  1  0.32355597  0.85475708  0.80040293  1
  O  O636  1  0.82343666  0.18670492  0.04939006  1
  O  O637  1  0.82325282  0.18804459  0.30117502  1
  O  O638  1  0.82256756  0.18606722  0.55187881  1
  O  O639  1  0.82178656  0.18619376  0.80147535  1
  O  O640  1  0.82346284  0.51982406  0.04979308  1
  O  O641  1  0.82274598  0.52133471  0.30034976  1
  O  O642  1  0.82090387  0.51922289  0.55094299  1
  O  O643  1  0.82333339  0.51921169  0.79834671  1
  O  O644  1  0.82291038  0.85201162  0.05086536  1
  O  O645  1  0.82293963  0.85181691  0.30112237  1
  O  O646  1  0.82418264  0.85217450  0.54952708  1
  O  O647  1  0.82331801  0.85124974  0.80054881  1
  O  O648  1  0.17630261  0.14830605  0.19858244  1
  O  O649  1  0.17684562  0.14826672  0.44925765  1
  O  O650  1  0.17778472  0.14859122  0.69984648  1
  O  O651  1  0.17713925  0.14649307  0.94950364  1
  O  O652  1  0.17762987  0.48062730  0.19888573  1
  O  O653  1  0.17560689  0.47974671  0.45028488  1
  O  O654  1  0.17690469  0.48173435  0.69903089  1
  O  O655  1  0.17661452  0.48092041  0.94955845  1
  O  O656  1  0.17639652  0.81343270  0.20050527  1
  O  O657  1  0.17705819  0.81207397  0.44992657  1
  O  O658  1  0.17770177  0.81566967  0.69906064  1
  O  O659  1  0.17592778  0.81330507  0.94995074  1
  O  O660  1  0.67624234  0.14699965  0.20011172  1
  O  O661  1  0.67578545  0.14688539  0.45093029  1
  O  O662  1  0.67733839  0.14777174  0.69966848  1
  O  O663  1  0.67700271  0.14777466  0.94836044  1
  O  O664  1  0.67600951  0.48073200  0.20037405  1
  O  O665  1  0.67611088  0.47858470  0.45065662  1
  O  O666  1  0.67863446  0.47963125  0.69789025  1
  O  O667  1  0.67634885  0.47918834  0.94816076  1
  O  O668  1  0.67650498  0.81484152  0.19945425  1
  O  O669  1  0.67791641  0.81315925  0.44849228  1
  O  O670  1  0.67695386  0.81192634  0.69863547  1
  O  O671  1  0.67670159  0.81480046  0.94786236  1
