# generated using pymatgen
data_Na2MnFe(PO4)2
_symmetry_space_group_name_H-M   'P 1'
_cell_length_a   22.35035647
_cell_length_b   20.10053642
_cell_length_c   19.44470447
_cell_angle_alpha   90.02791720
_cell_angle_beta   90.00356158
_cell_angle_gamma   90.00048912
_symmetry_Int_Tables_number   1
_chemical_formula_structural   Na2MnFe(PO4)2
_chemical_formula_sum   'Na96 Mn48 Fe48 P96 O384'
_cell_volume   8735.61320795
_cell_formula_units_Z   48
loop_
 _symmetry_equiv_pos_site_id
 _symmetry_equiv_pos_as_xyz
  1  'x, y, z'
loop_
 _atom_site_type_symbol
 _atom_site_label
 _atom_site_symmetry_multiplicity
 _atom_site_fract_x
 _atom_site_fract_y
 _atom_site_fract_z
 _atom_site_occupancy
  Na  Na0  1  0.13957426  0.25087537  0.24424945  1
  Na  Na1  1  0.13928012  0.25037378  0.49390173  1
  Na  Na2  1  0.14004746  0.24891552  0.74258757  1
  Na  Na3  1  0.14016644  0.25085735  0.99349949  1
  Na  Na4  1  0.14046037  0.58546865  0.24343562  1
  Na  Na5  1  0.14050159  0.58448587  0.49355088  1
  Na  Na6  1  0.14034230  0.58235529  0.74359437  1
  Na  Na7  1  0.13982959  0.58384175  0.99303782  1
  Na  Na8  1  0.13978080  0.91599890  0.24336553  1
  Na  Na9  1  0.14013950  0.91643906  0.49368244  1
  Na  Na10  1  0.14021589  0.91611521  0.74240810  1
  Na  Na11  1  0.13968057  0.91666117  0.99392843  1
  Na  Na12  1  0.64004255  0.25064765  0.24320209  1
  Na  Na13  1  0.64031029  0.24910774  0.49360056  1
  Na  Na14  1  0.64059959  0.24888397  0.74454589  1
  Na  Na15  1  0.64019625  0.25054038  0.99305525  1
  Na  Na16  1  0.64082627  0.58263087  0.24309514  1
  Na  Na17  1  0.64100493  0.58315885  0.49373922  1
  Na  Na18  1  0.64091158  0.58306100  0.74422780  1
  Na  Na19  1  0.64068532  0.58234499  0.99422189  1
  Na  Na20  1  0.64037127  0.91688268  0.24373359  1
  Na  Na21  1  0.64035469  0.91598398  0.49399942  1
  Na  Na22  1  0.64127086  0.91643437  0.74238319  1
  Na  Na23  1  0.64095075  0.91679262  0.99475103  1
  Na  Na24  1  0.35961142  0.08322706  0.00606094  1
  Na  Na25  1  0.35847996  0.08295084  0.25569641  1
  Na  Na26  1  0.35857292  0.08352010  0.50733474  1
  Na  Na27  1  0.35958306  0.08365566  0.75471139  1
  Na  Na28  1  0.36044896  0.41750508  0.00665167  1
  Na  Na29  1  0.36024950  0.41749671  0.25674485  1
  Na  Na30  1  0.35935068  0.41608701  0.50559556  1
  Na  Na31  1  0.35919590  0.41603474  0.75531496  1
  Na  Na32  1  0.35952685  0.75100946  0.00648929  1
  Na  Na33  1  0.35998067  0.75106369  0.25723877  1
  Na  Na34  1  0.35974593  0.75060051  0.50597942  1
  Na  Na35  1  0.35971510  0.74925434  0.75411525  1
  Na  Na36  1  0.85952553  0.08377013  0.00661963  1
  Na  Na37  1  0.85883763  0.08462865  0.25623499  1
  Na  Na38  1  0.85944585  0.08250489  0.50746243  1
  Na  Na39  1  0.86012112  0.08372314  0.75611331  1
  Na  Na40  1  0.86023133  0.41594647  0.00702162  1
  Na  Na41  1  0.86011557  0.41569836  0.25581398  1
  Na  Na42  1  0.85960650  0.41548103  0.50682640  1
  Na  Na43  1  0.85966971  0.41587489  0.75816601  1
  Na  Na44  1  0.86031846  0.74987233  0.00782353  1
  Na  Na45  1  0.86038151  0.75101901  0.25589587  1
  Na  Na46  1  0.85963669  0.75089892  0.50683240  1
  Na  Na47  1  0.85968700  0.74940291  0.75652980  1
  Na  Na48  1  0.10901390  0.08257647  0.11854771  1
  Na  Na49  1  0.10878155  0.08376498  0.36969797  1
  Na  Na50  1  0.10930092  0.08482268  0.61740981  1
  Na  Na51  1  0.10915134  0.08182458  0.86885154  1
  Na  Na52  1  0.10911623  0.41735401  0.11846762  1
  Na  Na53  1  0.10937897  0.41660868  0.36927265  1
  Na  Na54  1  0.10920589  0.41633994  0.61895814  1
  Na  Na55  1  0.10967038  0.41604111  0.86864716  1
  Na  Na56  1  0.10953268  0.75034307  0.11874276  1
  Na  Na57  1  0.10986398  0.75051808  0.36797842  1
  Na  Na58  1  0.10998090  0.75137259  0.61792577  1
  Na  Na59  1  0.10943104  0.74879204  0.86902602  1
  Na  Na60  1  0.60932691  0.08487424  0.11852079  1
  Na  Na61  1  0.60936849  0.08290064  0.36880799  1
  Na  Na62  1  0.61023526  0.08432306  0.61803547  1
  Na  Na63  1  0.61016596  0.08440199  0.86862061  1
  Na  Na64  1  0.60956533  0.41524230  0.11847445  1
  Na  Na65  1  0.60980034  0.41573064  0.36864398  1
  Na  Na66  1  0.60990850  0.41706065  0.61919887  1
  Na  Na67  1  0.61044018  0.41552256  0.86918987  1
  Na  Na68  1  0.61013568  0.74975479  0.11883471  1
  Na  Na69  1  0.61005345  0.74919107  0.36897207  1
  Na  Na70  1  0.61032913  0.75018437  0.61772746  1
  Na  Na71  1  0.61006720  0.74978114  0.86970853  1
  Na  Na72  1  0.39039700  0.25111896  0.13092708  1
  Na  Na73  1  0.38978127  0.25079809  0.38114691  1
  Na  Na74  1  0.38982415  0.25078987  0.63065800  1
  Na  Na75  1  0.39068659  0.25038482  0.88053209  1
  Na  Na76  1  0.39103240  0.58284507  0.13155256  1
  Na  Na77  1  0.39111291  0.58329390  0.38159198  1
  Na  Na78  1  0.39032684  0.58415245  0.62991880  1
  Na  Na79  1  0.39025050  0.58218363  0.88119356  1
  Na  Na80  1  0.38981096  0.91676151  0.13148672  1
  Na  Na81  1  0.38993238  0.91468644  0.38122795  1
  Na  Na82  1  0.39001422  0.91679987  0.63114356  1
  Na  Na83  1  0.39048607  0.91795831  0.88045452  1
  Na  Na84  1  0.88977099  0.25041204  0.13101826  1
  Na  Na85  1  0.89008982  0.24991791  0.38195842  1
  Na  Na86  1  0.88998909  0.25018881  0.63187305  1
  Na  Na87  1  0.89007246  0.24914192  0.88267985  1
  Na  Na88  1  0.89102761  0.58353992  0.13117024  1
  Na  Na89  1  0.89068957  0.58330026  0.38076379  1
  Na  Na90  1  0.89051393  0.58416512  0.63230847  1
  Na  Na91  1  0.89098985  0.58202482  0.88253482  1
  Na  Na92  1  0.89047791  0.91556222  0.13152535  1
  Na  Na93  1  0.88988874  0.91718510  0.38171466  1
  Na  Na94  1  0.88998842  0.91819931  0.63227084  1
  Na  Na95  1  0.89092573  0.91499547  0.88139443  1
  Mn  Mn96  1  0.74963598  0.83423603  0.37562020  1
  Mn  Mn97  1  0.75020643  0.83278308  0.87479933  1
  Mn  Mn98  1  0.74958061  0.66606449  0.87543528  1
  Mn  Mn99  1  0.50013430  0.83353574  0.74986744  1
  Mn  Mn100  1  -0.00020354  0.66746479  0.50057251  1
  Mn  Mn101  1  -0.00024392  0.33309132  0.75055095  1
  Mn  Mn102  1  0.49908823  -0.00044480  0.49920557  1
  Mn  Mn103  1  0.49918719  0.16780321  0.49865209  1
  Mn  Mn104  1  0.24906474  -0.00078421  0.37567107  1
  Mn  Mn105  1  0.00003954  0.16597520  0.00035866  1
  Mn  Mn106  1  0.00048384  0.66670865  0.75094913  1
  Mn  Mn107  1  0.49913421  0.16757747  0.24939386  1
  Mn  Mn108  1  0.74934393  0.33192459  0.62647013  1
  Mn  Mn109  1  0.75024385  0.49927410  0.12488893  1
  Mn  Mn110  1  0.24959241  0.50078306  0.37527087  1
  Mn  Mn111  1  0.00040017  0.00007906  0.75001611  1
  Mn  Mn112  1  0.24991284  0.66620512  0.87492035  1
  Mn  Mn113  1  0.25086810  0.66814406  0.12435844  1
  Mn  Mn114  1  0.24994425  0.50126959  0.12583137  1
  Mn  Mn115  1  -0.00056756  0.16745387  0.24968765  1
  Mn  Mn116  1  0.50103247  0.00146837  0.75013985  1
  Mn  Mn117  1  -0.00091647  0.83459688  0.49956180  1
  Mn  Mn118  1  -0.00119025  -0.00048887  0.24981057  1
  Mn  Mn119  1  0.00004284  0.49981107  0.24990018  1
  Mn  Mn120  1  0.25006174  0.49977922  0.62384526  1
  Mn  Mn121  1  0.50022189  0.83362909  -0.00028519  1
  Mn  Mn122  1  0.75105846  0.00057391  0.87493973  1
  Mn  Mn123  1  0.50065593  0.00109798  0.00026488  1
  Mn  Mn124  1  0.50011666  0.49995300  0.74991947  1
  Mn  Mn125  1  0.50063485  0.66661012  0.75020084  1
  Mn  Mn126  1  0.49965446  0.66579624  0.00035331  1
  Mn  Mn127  1  0.25075860  0.33393599  0.87424810  1
  Mn  Mn128  1  0.25039377  0.83355044  0.87421413  1
  Mn  Mn129  1  0.74976928  0.00085426  0.12473521  1
  Mn  Mn130  1  0.00030629  0.50012124  0.49996693  1
  Mn  Mn131  1  0.75045868  0.66689199  0.37483970  1
  Mn  Mn132  1  0.74965245  0.16640459  0.37512577  1
  Mn  Mn133  1  0.75007314  0.49962821  0.62547937  1
  Mn  Mn134  1  0.24935775  0.33431159  0.12450205  1
  Mn  Mn135  1  0.49911403  -0.00070695  0.24957665  1
  Mn  Mn136  1  0.24961931  0.16641519  0.87451238  1
  Mn  Mn137  1  0.75095320  0.49879067  0.37447707  1
  Mn  Mn138  1  0.24882787  0.16728786  0.37534588  1
  Mn  Mn139  1  0.49970394  0.33302646  0.74986521  1
  Mn  Mn140  1  0.24989237  0.16646948  0.12501319  1
  Mn  Mn141  1  0.50049605  0.66616689  0.25008618  1
  Mn  Mn142  1  0.24999214  -0.00018555  0.87433164  1
  Mn  Mn143  1  0.50007793  0.49980731  0.49975004  1
  Fe  Fe144  1  0.49996994  0.33378427  0.49979276  1
  Fe  Fe145  1  0.50064502  0.49909841  0.25059733  1
  Fe  Fe146  1  0.25026679  0.49993710  0.87400894  1
  Fe  Fe147  1  -0.00007220  0.16676171  0.74977105  1
  Fe  Fe148  1  0.49943136  0.16733558  -0.00024478  1
  Fe  Fe149  1  0.74991273  0.00006150  0.37562190  1
  Fe  Fe150  1  0.24987889  0.83346781  0.37508350  1
  Fe  Fe151  1  0.00020546  0.83304439  0.75108756  1
  Fe  Fe152  1  -0.00093570  0.33382049  0.50060405  1
  Fe  Fe153  1  0.75042478  0.16608020  0.62522473  1
  Fe  Fe154  1  0.75051652  0.83393697  0.12536304  1
  Fe  Fe155  1  0.74978217  -0.00012378  0.62543681  1
  Fe  Fe156  1  0.50093110  0.49918603  0.00069672  1
  Fe  Fe157  1  0.00000241  0.83249766  0.00028009  1
  Fe  Fe158  1  0.75015470  0.33250094  0.37529961  1
  Fe  Fe159  1  0.24998783  0.66662059  0.62419545  1
  Fe  Fe160  1  0.25003362  0.66783298  0.37459541  1
  Fe  Fe161  1  0.24908121  -0.00038801  0.12549375  1
  Fe  Fe162  1  0.74976045  0.16673945  0.87547123  1
  Fe  Fe163  1  0.50006866  0.33353863  0.24925804  1
  Fe  Fe164  1  0.24980799  0.16665134  0.62455431  1
  Fe  Fe165  1  -0.00067353  0.16749282  0.49980254  1
  Fe  Fe166  1  0.50046597  0.83255492  0.25033402  1
  Fe  Fe167  1  0.74945931  0.16744111  0.12556362  1
  Fe  Fe168  1  0.24958324  0.33360035  0.37531003  1
  Fe  Fe169  1  0.24957312  0.83400107  0.12547476  1
  Fe  Fe170  1  -0.00024703  0.49954771  0.75094655  1
  Fe  Fe171  1  0.49993005  0.33345964  -0.00002620  1
  Fe  Fe172  1  0.75063036  0.66601373  0.62518990  1
  Fe  Fe173  1  0.74982436  0.33313585  0.12454961  1
  Fe  Fe174  1  0.00001442  0.66632179  0.00017924  1
  Fe  Fe175  1  0.50073741  0.66634357  0.49958328  1
  Fe  Fe176  1  0.24959554  -0.00040806  0.62425399  1
  Fe  Fe177  1  -0.00033585  0.33337917  0.25013969  1
  Fe  Fe178  1  0.00002567  0.00056867  0.50020665  1
  Fe  Fe179  1  0.75107084  0.49972424  0.87555083  1
  Fe  Fe180  1  0.75081208  0.66667553  0.12488696  1
  Fe  Fe181  1  0.00014520  0.83316496  0.24971187  1
  Fe  Fe182  1  0.24998780  0.83281646  0.62422179  1
  Fe  Fe183  1  0.50048596  0.83284676  0.50010178  1
  Fe  Fe184  1  0.00053047  0.33264152  -0.00018689  1
  Fe  Fe185  1  0.75060398  0.33272100  0.87568506  1
  Fe  Fe186  1  0.24913206  0.33301598  0.62497206  1
  Fe  Fe187  1  0.75040100  0.83309778  0.62508890  1
  Fe  Fe188  1  0.50008453  0.16741528  0.74950146  1
  Fe  Fe189  1  0.00009490  0.49935040  0.00086265  1
  Fe  Fe190  1  -0.00065248  -0.00101132  -0.00044797  1
  Fe  Fe191  1  0.00023200  0.66658329  0.24953868  1
  P  P192  1  0.04220495  0.25126098  0.10273949  1
  P  P193  1  0.04126455  0.25153772  0.35348395  1
  P  P194  1  0.04062289  0.25051703  0.60196531  1
  P  P195  1  0.04214477  0.24833785  0.85273680  1
  P  P196  1  0.04156972  0.58372541  0.10193837  1
  P  P197  1  0.04232104  0.58449664  0.35209166  1
  P  P198  1  0.04283651  0.58346290  0.60379064  1
  P  P199  1  0.04210080  0.58140284  0.85373406  1
  P  P200  1  0.04066104  0.91608737  0.10174412  1
  P  P201  1  0.04171182  0.91611667  0.35244211  1
  P  P202  1  0.04192411  0.91848664  0.60263599  1
  P  P203  1  0.04236823  0.91504619  0.85326554  1
  P  P204  1  0.54127176  0.25063639  0.10136939  1
  P  P205  1  0.54192968  0.25173204  0.35210752  1
  P  P206  1  0.54225777  0.25134220  0.60215103  1
  P  P207  1  0.54206089  0.24893968  0.85303223  1
  P  P208  1  0.54251826  0.58133271  0.10326982  1
  P  P209  1  0.54281939  0.58195682  0.35264967  1
  P  P210  1  0.54290885  0.58429360  0.60205739  1
  P  P211  1  0.54323445  0.58240750  0.85399667  1
  P  P212  1  0.54287814  0.91651363  0.10371965  1
  P  P213  1  0.54190804  0.91473376  0.35277091  1
  P  P214  1  0.54213653  0.91618349  0.60208012  1
  P  P215  1  0.54374352  0.91738318  0.85296308  1
  P  P216  1  0.45674019  0.08407753  0.14621215  1
  P  P217  1  0.45596555  0.08327387  0.39630758  1
  P  P218  1  0.45796208  0.08523000  0.64705065  1
  P  P219  1  0.45799527  0.08539140  0.89700151  1
  P  P220  1  0.45873038  0.41684799  0.14783112  1
  P  P221  1  0.45780909  0.41542992  0.39659552  1
  P  P222  1  0.45706852  0.41670749  0.64628548  1
  P  P223  1  0.45886243  0.41652113  0.89859952  1
  P  P224  1  0.45778647  0.75071846  0.14787327  1
  P  P225  1  0.45918742  0.74973202  0.39809212  1
  P  P226  1  0.45827296  0.74980267  0.64553254  1
  P  P227  1  0.45697086  0.74977729  0.89690697  1
  P  P228  1  0.95663660  0.08305021  0.14653477  1
  P  P229  1  0.95796159  0.08348435  0.39868023  1
  P  P230  1  0.95814615  0.08499276  0.64685609  1
  P  P231  1  0.95757074  0.08155465  0.89735365  1
  P  P232  1  0.95813835  0.41528763  0.14683715  1
  P  P233  1  0.95746622  0.41546757  0.39750952  1
  P  P234  1  0.95743277  0.41762228  0.64815171  1
  P  P235  1  0.95899989  0.41610171  0.89872116  1
  P  P236  1  0.95909757  0.74984092  0.14761283  1
  P  P237  1  0.95729911  0.75021281  0.39600276  1
  P  P238  1  0.95813739  0.75174345  0.64835522  1
  P  P239  1  0.95868424  0.74921375  0.89856243  1
  P  P240  1  0.20673457  0.08211428  0.22765130  1
  P  P241  1  0.20700164  0.08335612  0.47921961  1
  P  P242  1  0.20821449  0.08285649  0.72561302  1
  P  P243  1  0.20690273  0.08276615  0.97838181  1
  P  P244  1  0.20689373  0.41720533  0.22891536  1
  P  P245  1  0.20754500  0.41548733  0.47784426  1
  P  P246  1  0.20754031  0.41585972  0.72714765  1
  P  P247  1  0.20798465  0.41857609  0.97689638  1
  P  P248  1  0.20806128  0.75169570  0.22793462  1
  P  P249  1  0.20842145  0.75037185  0.47694511  1
  P  P250  1  0.20854100  0.74932533  0.72585925  1
  P  P251  1  0.20744919  0.75094918  0.97810085  1
  P  P252  1  0.70717465  0.08485421  0.22772772  1
  P  P253  1  0.70762337  0.08176157  0.47833040  1
  P  P254  1  0.70886127  0.08371958  0.72706413  1
  P  P255  1  0.70795779  0.08494484  0.97802632  1
  P  P256  1  0.70808234  0.41470817  0.22755507  1
  P  P257  1  0.70805665  0.41485431  0.47757068  1
  P  P258  1  0.70754715  0.41630711  0.72969516  1
  P  P259  1  0.70949155  0.41636389  0.97696255  1
  P  P260  1  0.70914138  0.75035737  0.22648275  1
  P  P261  1  0.70795855  0.75001110  0.47914700  1
  P  P262  1  0.70874391  0.74925052  0.72639843  1
  P  P263  1  0.70801090  0.74988375  0.97943072  1
  P  P264  1  0.29275078  0.25036475  0.02166124  1
  P  P265  1  0.29167324  0.25150378  0.27268957  1
  P  P266  1  0.29061227  0.25049765  0.52296715  1
  P  P267  1  0.29230708  0.24954082  0.77041484  1
  P  P268  1  0.29305745  0.58337982  0.02134925  1
  P  P269  1  0.29257796  0.58543564  0.27288948  1
  P  P270  1  0.29211096  0.58521151  0.52143595  1
  P  P271  1  0.29226159  0.58219288  0.77151978  1
  P  P272  1  0.29135099  0.91700156  0.02370403  1
  P  P273  1  0.29144574  0.91565119  0.27211906  1
  P  P274  1  0.29111474  0.91612318  0.52290116  1
  P  P275  1  0.29277581  0.91661782  0.77013995  1
  P  P276  1  0.79110999  0.24982151  0.02292054  1
  P  P277  1  0.79188310  0.25111001  0.27208913  1
  P  P278  1  0.79203550  0.24838756  0.52293253  1
  P  P279  1  0.79177981  0.24902110  0.77384330  1
  P  P280  1  0.79240744  0.58369291  0.02251280  1
  P  P281  1  0.79301574  0.58341581  0.27114547  1
  P  P282  1  0.79290069  0.58386680  0.52273306  1
  P  P283  1  0.79280529  0.58207850  0.77282452  1
  P  P284  1  0.79274581  0.91597047  0.02274494  1
  P  P285  1  0.79189677  0.91834399  0.27250866  1
  P  P286  1  0.79126469  0.91691948  0.52372024  1
  P  P287  1  0.79274433  0.91647661  0.77103375  1
  O  O288  1  0.03671724  0.25152095  0.18269724  1
  O  O289  1  0.03554931  0.25132287  0.43336187  1
  O  O290  1  0.03602426  0.24964414  0.68197946  1
  O  O291  1  0.03717085  0.24881579  0.93269944  1
  O  O292  1  0.03661321  0.58383970  0.18192983  1
  O  O293  1  0.03729312  0.58436123  0.43207398  1
  O  O294  1  0.03779051  0.58311269  0.68376276  1
  O  O295  1  0.03648400  0.58177680  0.93360505  1
  O  O296  1  0.03551500  0.91556832  0.18169699  1
  O  O297  1  0.03652785  0.91711417  0.43237795  1
  O  O298  1  0.03725527  0.91791031  0.68255973  1
  O  O299  1  0.03678291  0.91533032  0.93313130  1
  O  O300  1  0.53640365  0.25133641  0.18133945  1
  O  O301  1  0.53674849  0.25190196  0.43206203  1
  O  O302  1  0.53702593  0.25037519  0.68211652  1
  O  O303  1  0.53651271  0.24893774  0.93288114  1
  O  O304  1  0.53726701  0.58116263  0.18325227  1
  O  O305  1  0.53749694  0.58292435  0.43258909  1
  O  O306  1  0.53810518  0.58409806  0.68207619  1
  O  O307  1  0.53801656  0.58179614  0.93399830  1
  O  O308  1  0.53742388  0.91582987  0.18369433  1
  O  O309  1  0.53637017  0.91450684  0.43274064  1
  O  O310  1  0.53756609  0.91665666  0.68210382  1
  O  O311  1  0.53871674  0.91760569  0.93297573  1
  O  O312  1  0.46221019  0.08460593  0.06623857  1
  O  O313  1  0.46090406  0.08324883  0.31631813  1
  O  O314  1  0.46258253  0.08470791  0.56703208  1
  O  O315  1  0.46345374  0.08551768  0.81701548  1
  O  O316  1  0.46392245  0.41697027  0.06789059  1
  O  O317  1  0.46341674  0.41564995  0.31670636  1
  O  O318  1  0.46209798  0.41636575  0.56633042  1
  O  O319  1  0.46349561  0.41641652  0.81858109  1
  O  O320  1  0.46263236  0.75031181  0.06789755  1
  O  O321  1  0.46396541  0.75012716  0.31804250  1
  O  O322  1  0.46393987  0.74964501  0.56557711  1
  O  O323  1  0.46226092  0.74979860  0.81690112  1
  O  O324  1  0.96189246  0.08243927  0.06660850  1
  O  O325  1  0.96263044  0.08369810  0.31865593  1
  O  O326  1  0.96341430  0.08486316  0.56696388  1
  O  O327  1  0.96307285  0.08220656  0.81744894  1
  O  O328  1  0.96390439  0.41541297  0.06699425  1
  O  O329  1  0.96273293  0.41533348  0.31755007  1
  O  O330  1  0.96256685  0.41703196  0.56819630  1
  O  O331  1  0.96359982  0.41671609  0.81870703  1
  O  O332  1  0.96410346  0.74939115  0.06767384  1
  O  O333  1  0.96273572  0.75017345  0.31607311  1
  O  O334  1  0.96279346  0.75164192  0.56834752  1
  O  O335  1  0.96385789  0.75006457  0.81862758  1
  O  O336  1  0.21191631  0.08225679  0.05836905  1
  O  O337  1  0.21190944  0.08251806  0.30765592  1
  O  O338  1  0.21267517  0.08347611  0.55910218  1
  O  O339  1  0.21319802  0.08294558  0.80565637  1
  O  O340  1  0.21258454  0.41852763  0.05694328  1
  O  O341  1  0.21201706  0.41659651  0.30890894  1
  O  O342  1  0.21295384  0.41530777  0.55778427  1
  O  O343  1  0.21312768  0.41675317  0.80707570  1
  O  O344  1  0.21254820  0.75163126  0.05807618  1
  O  O345  1  0.21315240  0.75140878  0.30786522  1
  O  O346  1  0.21363104  0.74996836  0.55686704  1
  O  O347  1  0.21337425  0.74969843  0.80584033  1
  O  O348  1  0.71300078  0.08516834  0.05799555  1
  O  O349  1  0.71241252  0.08424292  0.30765082  1
  O  O350  1  0.71286552  0.08220201  0.55821865  1
  O  O351  1  0.71381064  0.08389037  0.80704404  1
  O  O352  1  0.71430637  0.41581435  0.05695748  1
  O  O353  1  0.71336416  0.41453944  0.30749691  1
  O  O354  1  0.71300152  0.41525656  0.55757956  1
  O  O355  1  0.71309488  0.41672183  0.80958013  1
  O  O356  1  0.71358231  0.75009913  0.05932818  1
  O  O357  1  0.71394625  0.75054128  0.30654077  1
  O  O358  1  0.71341586  0.74989862  0.55903395  1
  O  O359  1  0.71360843  0.74913460  0.80646108  1
  O  O360  1  0.28661008  0.25108380  0.19270522  1
  O  O361  1  0.28545262  0.25094040  0.44297318  1
  O  O362  1  0.28664491  0.24956351  0.69048647  1
  O  O363  1  0.28786610  0.25030277  0.94163982  1
  O  O364  1  0.28780415  0.58529464  0.19286237  1
  O  O365  1  0.28652547  0.58547246  0.44153904  1
  O  O366  1  0.28678807  0.58267743  0.69156581  1
  O  O367  1  0.28802466  0.58254304  0.94134185  1
  O  O368  1  0.28602167  0.91595708  0.19221348  1
  O  O369  1  0.28615544  0.91548483  0.44292172  1
  O  O370  1  0.28759955  0.91669587  0.69022017  1
  O  O371  1  0.28672815  0.91693600  0.94363462  1
  O  O372  1  0.78654505  0.25082006  0.19218947  1
  O  O373  1  0.78688988  0.24891954  0.44301105  1
  O  O374  1  0.78687891  0.24888828  0.69388411  1
  O  O375  1  0.78614397  0.24953103  0.94298026  1
  O  O376  1  0.78753940  0.58377716  0.19119991  1
  O  O377  1  0.78779889  0.58352976  0.44272645  1
  O  O378  1  0.78764175  0.58258823  0.69283347  1
  O  O379  1  0.78713090  0.58304707  0.94256013  1
  O  O380  1  0.78669378  0.91763719  0.19254493  1
  O  O381  1  0.78641793  0.91768775  0.44370918  1
  O  O382  1  0.78710136  0.91624006  0.69113184  1
  O  O383  1  0.78792726  0.91591942  0.94273034  1
  O  O384  1  0.22824400  0.25017630  0.05649858  1
  O  O385  1  0.22731561  0.25193648  0.30812360  1
  O  O386  1  0.22656317  0.25010631  0.55918928  1
  O  O387  1  0.22817518  0.25019397  0.80633322  1
  O  O388  1  0.22865567  0.58420241  0.05649546  1
  O  O389  1  0.22813720  0.58562918  0.30802239  1
  O  O390  1  0.22798753  0.58491442  0.55746727  1
  O  O391  1  0.22807821  0.58172992  0.80754745  1
  O  O392  1  0.22702726  0.91716385  0.05931216  1
  O  O393  1  0.22730518  0.91483532  0.30824582  1
  O  O394  1  0.22702131  0.91683868  0.55887587  1
  O  O395  1  0.22844022  0.91659877  0.80562345  1
  O  O396  1  0.72703726  0.24983056  0.05925161  1
  O  O397  1  0.72773878  0.25113507  0.30818679  1
  O  O398  1  0.72776860  0.24760099  0.55867870  1
  O  O399  1  0.72760389  0.24910108  0.80972513  1
  O  O400  1  0.72826360  0.58395782  0.05834202  1
  O  O401  1  0.72882831  0.58276141  0.30678711  1
  O  O402  1  0.72855848  0.58436909  0.55820002  1
  O  O403  1  0.72853241  0.58104200  0.80848438  1
  O  O404  1  0.72839675  0.91582229  0.05807969  1
  O  O405  1  0.72765918  0.91872990  0.30832803  1
  O  O406  1  0.72718467  0.91569910  0.55966659  1
  O  O407  1  0.72865224  0.91687482  0.80702454  1
  O  O408  1  0.27102607  0.08149004  0.19205335  1
  O  O409  1  0.27104796  0.08338996  0.44319949  1
  O  O410  1  0.27234645  0.08260447  0.68969080  1
  O  O411  1  0.27130415  0.08310357  0.94315250  1
  O  O412  1  0.27130599  0.41729205  0.19376445  1
  O  O413  1  0.27169980  0.41585280  0.44189664  1
  O  O414  1  0.27166202  0.41513347  0.69113599  1
  O  O415  1  0.27244038  0.41870513  0.94173800  1
  O  O416  1  0.27230188  0.75231892  0.19211833  1
  O  O417  1  0.27248318  0.75047003  0.44051208  1
  O  O418  1  0.27269629  0.74889118  0.69002467  1
  O  O419  1  0.27177639  0.75023552  0.94282588  1
  O  O420  1  0.77142220  0.08536350  0.19196914  1
  O  O421  1  0.77182007  0.08185768  0.44232750  1
  O  O422  1  0.77296619  0.08389591  0.69101804  1
  O  O423  1  0.77225293  0.08527252  0.94236632  1
  O  O424  1  0.77228139  0.41471463  0.19172398  1
  O  O425  1  0.77241609  0.41447131  0.44214382  1
  O  O426  1  0.77170032  0.41598577  0.69384181  1
  O  O427  1  0.77362616  0.41686053  0.94103713  1
  O  O428  1  0.77333712  0.75047652  0.19076554  1
  O  O429  1  0.77211169  0.75051821  0.44331776  1
  O  O430  1  0.77297321  0.74957025  0.69067243  1
  O  O431  1  0.77214954  0.74955899  0.94355486  1
  O  O432  1  0.02089155  0.08324008  0.18199012  1
  O  O433  1  0.02214862  0.08318802  0.43438683  1
  O  O434  1  0.02225277  0.08510340  0.68309841  1
  O  O435  1  0.02171344  0.08105344  0.93342399  1
  O  O436  1  0.02204872  0.41498242  0.18352413  1
  O  O437  1  0.02170474  0.41520736  0.43332150  1
  O  O438  1  0.02171768  0.41769673  0.68385105  1
  O  O439  1  0.02315246  0.41545485  0.93448125  1
  O  O440  1  0.02304929  0.75051969  0.18413995  1
  O  O441  1  0.02149590  0.75071830  0.43178059  1
  O  O442  1  0.02255138  0.75153456  0.68358409  1
  O  O443  1  0.02277402  0.74830691  0.93463085  1
  O  O444  1  0.52099142  0.08380244  0.18167698  1
  O  O445  1  0.52048936  0.08338288  0.43102633  1
  O  O446  1  0.52239735  0.08593715  0.68228413  1
  O  O447  1  0.52220319  0.08560658  0.93289863  1
  O  O448  1  0.52284951  0.41657015  0.18409772  1
  O  O449  1  0.52191519  0.41507958  0.43288299  1
  O  O450  1  0.52144223  0.41660575  0.68147188  1
  O  O451  1  0.52312460  0.41624648  0.93421701  1
  O  O452  1  0.52222181  0.75084296  0.18315565  1
  O  O453  1  0.52336370  0.74998268  0.43383478  1
  O  O454  1  0.52239427  0.74991058  0.68153992  1
  O  O455  1  0.52140368  0.74952451  0.93193537  1
  O  O456  1  0.47708253  0.25054164  0.06556113  1
  O  O457  1  0.47763196  0.25206547  0.31649076  1
  O  O458  1  0.47792774  0.25221441  0.56642614  1
  O  O459  1  0.47796184  0.24836111  0.81669301  1
  O  O460  1  0.47831812  0.58102682  0.06741667  1
  O  O461  1  0.47859922  0.58165355  0.31688277  1
  O  O462  1  0.47852866  0.58438356  0.56679887  1
  O  O463  1  0.47884359  0.58313939  0.81875667  1
  O  O464  1  0.47860416  0.91719228  0.06827579  1
  O  O465  1  0.47770562  0.91433860  0.31687093  1
  O  O466  1  0.47772644  0.91559565  0.56692374  1
  O  O467  1  0.47923715  0.91760450  0.81814718  1
  O  O468  1  0.97802482  0.25121658  0.06681251  1
  O  O469  1  0.97726758  0.25184328  0.31690889  1
  O  O470  1  0.97646071  0.25113055  0.56617942  1
  O  O471  1  0.97778501  0.24826914  0.81725548  1
  O  O472  1  0.97749058  0.58427609  0.06586752  1
  O  O473  1  0.97807335  0.58450494  0.31651916  1
  O  O474  1  0.97844386  0.58344120  0.56859386  1
  O  O475  1  0.97806564  0.58183066  0.81731526  1
  O  O476  1  0.97667727  0.91660559  0.06547263  1
  O  O477  1  0.97744306  0.91490234  0.31676878  1
  O  O478  1  0.97752999  0.91906769  0.56721311  1
  O  O479  1  0.97827750  0.91521794  0.81699553  1
  O  O480  1  0.07334227  0.31434772  0.07384242  1
  O  O481  1  0.07251999  0.31467862  0.32485954  1
  O  O482  1  0.07160549  0.31432299  0.57439574  1
  O  O483  1  0.07340148  0.31169683  0.82454172  1
  O  O484  1  0.07322276  0.64674955  0.07360797  1
  O  O485  1  0.07303293  0.64795280  0.32347167  1
  O  O486  1  0.07360098  0.64718112  0.57568242  1
  O  O487  1  0.07379701  0.64473196  0.82582821  1
  O  O488  1  0.07164491  0.97978498  0.07391261  1
  O  O489  1  0.07230907  0.97982732  0.32408421  1
  O  O490  1  0.07262748  0.98201178  0.57403149  1
  O  O491  1  0.07385387  0.97831147  0.82504021  1
  O  O492  1  0.57223565  0.31400646  0.07256699  1
  O  O493  1  0.57320710  0.31463868  0.32309469  1
  O  O494  1  0.57321100  0.31495971  0.57423712  1
  O  O495  1  0.57277141  0.31288694  0.82532038  1
  O  O496  1  0.57316262  0.64537549  0.07579877  1
  O  O497  1  0.57415549  0.64522365  0.32423051  1
  O  O498  1  0.57357548  0.64769838  0.57332325  1
  O  O499  1  0.57454394  0.64593785  0.82625082  1
  O  O500  1  0.57419114  0.98012915  0.07617399  1
  O  O501  1  0.57254626  0.97880576  0.32533510  1
  O  O502  1  0.57278050  0.97995931  0.57405022  1
  O  O503  1  0.57484468  0.98078256  0.82469668  1
  O  O504  1  0.42565028  0.02049717  0.17405693  1
  O  O505  1  0.42510210  0.01976492  0.42453595  1
  O  O506  1  0.42748616  0.02138305  0.67514805  1
  O  O507  1  0.42718199  0.02140570  0.92452468  1
  O  O508  1  0.42758944  0.35327465  0.17598117  1
  O  O509  1  0.42665685  0.35229003  0.42542919  1
  O  O510  1  0.42579715  0.35361386  0.67492726  1
  O  O511  1  0.42796487  0.35281407  0.92658624  1
  O  O512  1  0.42692713  0.68701381  0.17580600  1
  O  O513  1  0.42897381  0.68550100  0.42590543  1
  O  O514  1  0.42703649  0.68647538  0.67388413  1
  O  O515  1  0.42584015  0.68641717  0.92503550  1
  O  O516  1  0.92533935  0.01996371  0.17520314  1
  O  O517  1  0.92711343  0.01982947  0.42674962  1
  O  O518  1  0.92697140  0.02151686  0.67494265  1
  O  O519  1  0.92670530  0.01790118  0.92533339  1
  O  O520  1  0.92683059  0.35213829  0.17540674  1
  O  O521  1  0.92625622  0.35249706  0.42654822  1
  O  O522  1  0.92613047  0.35425518  0.67640834  1
  O  O523  1  0.92794772  0.35230143  0.92629868  1
  O  O524  1  0.92880086  0.68595386  0.17629882  1
  O  O525  1  0.92640601  0.68676148  0.42465160  1
  O  O526  1  0.92706781  0.68817989  0.67624322  1
  O  O527  1  0.92725779  0.68568803  0.92602783  1
  O  O528  1  0.17573096  0.01864941  0.19947425  1
  O  O529  1  0.17574761  0.01994739  0.45099067  1
  O  O530  1  0.17708599  0.01931726  0.69771682  1
  O  O531  1  0.17591627  0.01955639  0.94942256  1
  O  O532  1  0.17556702  0.35425717  0.19989596  1
  O  O533  1  0.17679717  0.35212960  0.44908638  1
  O  O534  1  0.17640386  0.35221811  0.69935686  1
  O  O535  1  0.17716280  0.35477228  0.94909349  1
  O  O536  1  0.17731379  0.68800190  0.19954779  1
  O  O537  1  0.17743573  0.68692695  0.44817354  1
  O  O538  1  0.17738763  0.68574210  0.69810397  1
  O  O539  1  0.17630943  0.68733243  0.95024437  1
  O  O540  1  0.67608556  0.02143917  0.19942436  1
  O  O541  1  0.67705643  0.01816895  0.44947978  1
  O  O542  1  0.67848060  0.01970975  0.69875573  1
  O  O543  1  0.67752063  0.02086483  0.95026727  1
  O  O544  1  0.67702205  0.35166755  0.19834168  1
  O  O545  1  0.67730908  0.35128215  0.44932905  1
  O  O546  1  0.67621035  0.35278107  0.70173774  1
  O  O547  1  0.67907935  0.35251648  0.94845568  1
  O  O548  1  0.67855664  0.68642347  0.19858395  1
  O  O549  1  0.67703168  0.68658645  0.45044338  1
  O  O550  1  0.67833910  0.68526231  0.69840002  1
  O  O551  1  0.67653395  0.68655642  0.95120720  1
  O  O552  1  0.32344570  0.31406437  0.04972632  1
  O  O553  1  0.32258999  0.31494931  0.30104427  1
  O  O554  1  0.32155170  0.31396231  0.55139105  1
  O  O555  1  0.32406096  0.31271912  0.79860824  1
  O  O556  1  0.32430542  0.64700349  0.04903277  1
  O  O557  1  0.32338222  0.64889621  0.30131883  1
  O  O558  1  0.32300446  0.64842631  0.55034974  1
  O  O559  1  0.32334203  0.64570236  0.79959581  1
  O  O560  1  0.32205791  0.98068766  0.05190569  1
  O  O561  1  0.32218021  0.97941051  0.30035503  1
  O  O562  1  0.32238493  0.97974202  0.55055069  1
  O  O563  1  0.32384381  0.97996030  0.79897541  1
  O  O564  1  0.82192292  0.31362618  0.05106840  1
  O  O565  1  0.82270209  0.31446748  0.30104076  1
  O  O566  1  0.82281817  0.31191985  0.55138010  1
  O  O567  1  0.82222500  0.31296219  0.80229272  1
  O  O568  1  0.82306842  0.64741768  0.05083623  1
  O  O569  1  0.82403233  0.64678846  0.29950828  1
  O  O570  1  0.82384429  0.64732615  0.55111934  1
  O  O571  1  0.82345354  0.64587794  0.80085025  1
  O  O572  1  0.82354371  0.97979717  0.05028870  1
  O  O573  1  0.82250293  0.98205568  0.30089866  1
  O  O574  1  0.82128341  0.98086419  0.55262165  1
  O  O575  1  0.82417595  0.97984580  0.79915490  1
  O  O576  1  0.42547131  0.14734105  0.17456831  1
  O  O577  1  0.42499788  0.14680470  0.42441400  1
  O  O578  1  0.42697377  0.14866765  0.67524778  1
  O  O579  1  0.42672203  0.14845436  0.92578309  1
  O  O580  1  0.42800149  0.48037401  0.17672743  1
  O  O581  1  0.42678785  0.47917891  0.42448773  1
  O  O582  1  0.42630831  0.48045884  0.67437310  1
  O  O583  1  0.42830394  0.48020959  0.92695626  1
  O  O584  1  0.42715945  0.81424784  0.17635659  1
  O  O585  1  0.42781674  0.81287149  0.42678869  1
  O  O586  1  0.42696269  0.81324591  0.67359043  1
  O  O587  1  0.42612969  0.81349427  0.92479600  1
  O  O588  1  0.92576096  0.14679539  0.17442924  1
  O  O589  1  0.92748689  0.14738400  0.42686340  1
  O  O590  1  0.92738210  0.14842218  0.67586297  1
  O  O591  1  0.92649879  0.14503602  0.92553674  1
  O  O592  1  0.92717647  0.47912714  0.17466266  1
  O  O593  1  0.92682956  0.47954778  0.42505598  1
  O  O594  1  0.92696510  0.48129021  0.67672902  1
  O  O595  1  0.92853659  0.47967052  0.92782385  1
  O  O596  1  0.92768092  0.81324385  0.17572122  1
  O  O597  1  0.92570560  0.81341003  0.42441820  1
  O  O598  1  0.92772680  0.81539431  0.67692664  1
  O  O599  1  0.92839314  0.81296541  0.92754640  1
  O  O600  1  0.07315351  0.18732411  0.07538021  1
  O  O601  1  0.07223329  0.18771315  0.32556605  1
  O  O602  1  0.07110398  0.18699746  0.57278075  1
  O  O603  1  0.07260945  0.18464653  0.82412778  1
  O  O604  1  0.07152966  0.51938467  0.07382713  1
  O  O605  1  0.07332428  0.52074269  0.32450304  1
  O  O606  1  0.07405345  0.52031249  0.57504384  1
  O  O607  1  0.07250132  0.51776421  0.82491186  1
  O  O608  1  0.07133027  0.85237820  0.07326029  1
  O  O609  1  0.07295175  0.85276381  0.32421374  1
  O  O610  1  0.07274393  0.85492812  0.57423656  1
  O  O611  1  0.07296483  0.85135204  0.82461668  1
  O  O612  1  0.57193234  0.18673568  0.07356355  1
  O  O613  1  0.57248553  0.18758252  0.32456685  1
  O  O614  1  0.57301386  0.18784239  0.57349871  1
  O  O615  1  0.57342741  0.18601643  0.82384222  1
  O  O616  1  0.57377604  0.51820561  0.07450278  1
  O  O617  1  0.57353692  0.51818352  0.32470561  1
  O  O618  1  0.57387896  0.52055922  0.57431199  1
  O  O619  1  0.57403133  0.51909478  0.82508610  1
  O  O620  1  0.57396086  0.85326788  0.07510284  1
  O  O621  1  0.57328656  0.85165067  0.32408759  1
  O  O622  1  0.57304264  0.85268950  0.57378308  1
  O  O623  1  0.57457818  0.85375950  0.82494768  1
  O  O624  1  0.32373820  0.18701865  0.05002094  1
  O  O625  1  0.32238558  0.18766804  0.30052149  1
  O  O626  1  0.32152022  0.18660974  0.55062567  1
  O  O627  1  0.32313113  0.18601641  0.79884749  1
  O  O628  1  0.32391857  0.52024740  0.05054686  1
  O  O629  1  0.32332585  0.52166205  0.30071666  1
  O  O630  1  0.32327525  0.52134201  0.54861463  1
  O  O631  1  0.32304560  0.51851215  0.79969704  1
  O  O632  1  0.32196901  0.85321755  0.05182473  1
  O  O633  1  0.32287237  0.85260057  0.30091328  1
  O  O634  1  0.32146559  0.85233592  0.55152886  1
  O  O635  1  0.32388869  0.85323904  0.79867472  1
  O  O636  1  0.82211905  0.18646601  0.05169484  1
  O  O637  1  0.82314235  0.18764871  0.30033394  1
  O  O638  1  0.82298195  0.18486660  0.55116617  1
  O  O639  1  0.82286760  0.18571815  0.80229034  1
  O  O640  1  0.82380469  0.52034630  0.05045073  1
  O  O641  1  0.82434205  0.51985970  0.29888527  1
  O  O642  1  0.82359204  0.52004478  0.55054450  1
  O  O643  1  0.82402282  0.51883508  0.80140869  1
  O  O644  1  0.82340529  0.85254703  0.05155200  1
  O  O645  1  0.82304127  0.85495037  0.30075333  1
  O  O646  1  0.82296964  0.85359043  0.55138762  1
  O  O647  1  0.82384561  0.85304884  0.79943321  1
  O  O648  1  0.17607194  0.14599721  0.19993771  1
  O  O649  1  0.17561766  0.14663012  0.45088305  1
  O  O650  1  0.17771675  0.14682073  0.69769372  1
  O  O651  1  0.17587845  0.14638258  0.95037922  1
  O  O652  1  0.17616512  0.48112154  0.20117687  1
  O  O653  1  0.17633225  0.47929968  0.45057650  1
  O  O654  1  0.17649722  0.47923984  0.69878084  1
  O  O655  1  0.17733017  0.48200369  0.94820733  1
  O  O656  1  0.17679160  0.81484030  0.19911359  1
  O  O657  1  0.17750663  0.81410782  0.44893514  1
  O  O658  1  0.17825830  0.81322247  0.69728105  1
  O  O659  1  0.17653150  0.81416040  0.94926591  1
  O  O660  1  0.67637268  0.14847648  0.19948423  1
  O  O661  1  0.67618067  0.14502639  0.44993210  1
  O  O662  1  0.67765513  0.14700139  0.69863816  1
  O  O663  1  0.67678012  0.14800414  0.94916779  1
  O  O664  1  0.67717924  0.47858415  0.20002325  1
  O  O665  1  0.67730704  0.47857136  0.44951298  1
  O  O666  1  0.67631348  0.47941918  0.70073038  1
  O  O667  1  0.67840798  0.47997126  0.94923564  1
  O  O668  1  0.67833258  0.81410882  0.19857229  1
  O  O669  1  0.67651005  0.81322710  0.45068573  1
  O  O670  1  0.67774961  0.81288574  0.69860740  1
  O  O671  1  0.67687609  0.81317878  0.95071537  1
