# generated using pymatgen
data_Na2MnFe(PO4)2
_symmetry_space_group_name_H-M   'P 1'
_cell_length_a   22.33878179
_cell_length_b   20.08980373
_cell_length_c   19.45273872
_cell_angle_alpha   90.08330197
_cell_angle_beta   90.06155073
_cell_angle_gamma   90.00435313
_symmetry_Int_Tables_number   1
_chemical_formula_structural   Na2MnFe(PO4)2
_chemical_formula_sum   'Na96 Mn48 Fe48 P96 O384'
_cell_volume   8730.01967692
_cell_formula_units_Z   48
loop_
 _symmetry_equiv_pos_site_id
 _symmetry_equiv_pos_as_xyz
  1  'x, y, z'
loop_
 _atom_site_type_symbol
 _atom_site_label
 _atom_site_symmetry_multiplicity
 _atom_site_fract_x
 _atom_site_fract_y
 _atom_site_fract_z
 _atom_site_occupancy
  Na  Na0  1  0.14018384  0.24968334  0.24439862  1
  Na  Na1  1  0.13996115  0.24984581  0.49346098  1
  Na  Na2  1  0.13983263  0.24878346  0.74329627  1
  Na  Na3  1  0.14029451  0.24965142  0.99456992  1
  Na  Na4  1  0.14005522  0.58434186  0.24281855  1
  Na  Na5  1  0.14068648  0.58462925  0.49313185  1
  Na  Na6  1  0.14023909  0.58441135  0.74513031  1
  Na  Na7  1  0.13982869  0.58491651  0.99350416  1
  Na  Na8  1  0.14021798  0.91586720  0.24336411  1
  Na  Na9  1  0.14012970  0.91665384  0.49326872  1
  Na  Na10  1  0.14022689  0.91503895  0.74369620  1
  Na  Na11  1  0.13992584  0.91510710  0.99345069  1
  Na  Na12  1  0.64047176  0.25140627  0.24483164  1
  Na  Na13  1  0.63961846  0.25110154  0.49300376  1
  Na  Na14  1  0.63965321  0.24997617  0.74193061  1
  Na  Na15  1  0.64034673  0.24931591  0.99308036  1
  Na  Na16  1  0.63956850  0.58329038  0.24445863  1
  Na  Na17  1  0.64027737  0.58337088  0.49278564  1
  Na  Na18  1  0.64030089  0.58357367  0.74335752  1
  Na  Na19  1  0.63943890  0.58242658  0.99369462  1
  Na  Na20  1  0.64038809  0.91554141  0.24479337  1
  Na  Na21  1  0.64043122  0.91584543  0.49433713  1
  Na  Na22  1  0.64055933  0.91562331  0.74394669  1
  Na  Na23  1  0.64020303  0.91487216  0.99321330  1
  Na  Na24  1  0.35969798  0.08304410  0.00595689  1
  Na  Na25  1  0.35957692  0.08357562  0.25641754  1
  Na  Na26  1  0.35974091  0.08399327  0.50663298  1
  Na  Na27  1  0.35976829  0.08234901  0.75583378  1
  Na  Na28  1  0.35978067  0.41839408  0.00636541  1
  Na  Na29  1  0.35958459  0.41799852  0.25673700  1
  Na  Na30  1  0.36015922  0.41787951  0.50675393  1
  Na  Na31  1  0.36028586  0.41797240  0.75656045  1
  Na  Na32  1  0.36035557  0.74967246  0.00659229  1
  Na  Na33  1  0.35976520  0.74941607  0.25579637  1
  Na  Na34  1  0.36015334  0.75096385  0.50611109  1
  Na  Na35  1  0.36020423  0.75000585  0.75597451  1
  Na  Na36  1  0.86027066  0.08210356  0.00646243  1
  Na  Na37  1  0.86021839  0.08315246  0.25721112  1
  Na  Na38  1  0.86003119  0.08347183  0.50652816  1
  Na  Na39  1  0.86012727  0.08312483  0.75623782  1
  Na  Na40  1  0.85940883  0.41647689  0.00618937  1
  Na  Na41  1  0.85933092  0.41751112  0.25661951  1
  Na  Na42  1  0.85970948  0.41731006  0.50580040  1
  Na  Na43  1  0.85929358  0.41785338  0.75512650  1
  Na  Na44  1  0.86005524  0.74831090  0.00661418  1
  Na  Na45  1  0.85999384  0.74870518  0.25702238  1
  Na  Na46  1  0.85987760  0.75076867  0.50653548  1
  Na  Na47  1  0.86016671  0.75078807  0.75663724  1
  Na  Na48  1  0.10883867  0.08201108  0.11919059  1
  Na  Na49  1  0.10926377  0.08298953  0.36965428  1
  Na  Na50  1  0.10925051  0.08329361  0.61806444  1
  Na  Na51  1  0.10952603  0.08202868  0.86916888  1
  Na  Na52  1  0.10929292  0.41595224  0.11842105  1
  Na  Na53  1  0.10954009  0.41541807  0.36799554  1
  Na  Na54  1  0.10929239  0.41589569  0.61842310  1
  Na  Na55  1  0.10886134  0.41638895  0.86997959  1
  Na  Na56  1  0.10967033  0.74951457  0.11743481  1
  Na  Na57  1  0.11008223  0.75138300  0.36759337  1
  Na  Na58  1  0.11009768  0.75130537  0.61835279  1
  Na  Na59  1  0.11018451  0.74993868  0.86936731  1
  Na  Na60  1  0.60943852  0.08227219  0.11850610  1
  Na  Na61  1  0.60905571  0.08382261  0.36999306  1
  Na  Na62  1  0.60926196  0.08353542  0.61871387  1
  Na  Na63  1  0.60942413  0.08274984  0.86774798  1
  Na  Na64  1  0.60953568  0.41852385  0.11936036  1
  Na  Na65  1  0.60994235  0.41805360  0.36864440  1
  Na  Na66  1  0.60906031  0.41741537  0.61740542  1
  Na  Na67  1  0.60876104  0.41659764  0.86806256  1
  Na  Na68  1  0.60936924  0.74813775  0.11879811  1
  Na  Na69  1  0.61027656  0.74895792  0.36920723  1
  Na  Na70  1  0.60985939  0.74911178  0.61816721  1
  Na  Na71  1  0.60971280  0.74810743  0.86872671  1
  Na  Na72  1  0.39032888  0.25192571  0.13153313  1
  Na  Na73  1  0.39064206  0.25191696  0.38218581  1
  Na  Na74  1  0.39118490  0.25152395  0.63086824  1
  Na  Na75  1  0.39081231  0.25121554  0.88054658  1
  Na  Na76  1  0.39016103  0.58419242  0.13112202  1
  Na  Na77  1  0.39033107  0.58414866  0.38184997  1
  Na  Na78  1  0.39036601  0.58409436  0.63092243  1
  Na  Na79  1  0.39067326  0.58411585  0.88138351  1
  Na  Na80  1  0.39041265  0.91433787  0.13095623  1
  Na  Na81  1  0.39039809  0.91615046  0.38200007  1
  Na  Na82  1  0.39054577  0.91689802  0.63130071  1
  Na  Na83  1  0.39063292  0.91477389  0.88104274  1
  Na  Na84  1  0.89057972  0.24810714  0.13125234  1
  Na  Na85  1  0.89080938  0.24922669  0.38151830  1
  Na  Na86  1  0.89055724  0.24994164  0.62992552  1
  Na  Na87  1  0.89061548  0.24881401  0.88095458  1
  Na  Na88  1  0.89015700  0.58248408  0.13118884  1
  Na  Na89  1  0.89023182  0.58405211  0.38212290  1
  Na  Na90  1  0.89008366  0.58444898  0.63121070  1
  Na  Na91  1  0.89031086  0.58418755  0.88180580  1
  Na  Na92  1  0.89066148  0.91619198  0.13104102  1
  Na  Na93  1  0.89087083  0.91757147  0.38208606  1
  Na  Na94  1  0.89053455  0.91838434  0.63127782  1
  Na  Na95  1  0.89111721  0.91644743  0.88198621  1
  Mn  Mn96  1  0.75002049  0.33459235  0.62398682  1
  Mn  Mn97  1  0.75024141  0.83256252  0.87469642  1
  Mn  Mn98  1  0.24971536  0.50065018  0.37478892  1
  Mn  Mn99  1  0.74949620  0.50076406  0.87471708  1
  Mn  Mn100  1  0.24993410  0.16775763  0.12604662  1
  Mn  Mn101  1  0.49987144  0.00027836  0.50086481  1
  Mn  Mn102  1  0.50052962  0.33508312  0.25073272  1
  Mn  Mn103  1  0.25059515  0.16592639  0.62457529  1
  Mn  Mn104  1  0.24997872  0.16620381  0.87508011  1
  Mn  Mn105  1  0.74933792  0.16731230  0.37544692  1
  Mn  Mn106  1  0.49947152  -0.00141778  -0.00107658  1
  Mn  Mn107  1  0.00052851  0.66852623  0.50060383  1
  Mn  Mn108  1  -0.00008799  0.50025325  0.74985572  1
  Mn  Mn109  1  0.25007020  0.83318200  0.62473980  1
  Mn  Mn110  1  0.50066810  0.83181733  0.25090630  1
  Mn  Mn111  1  0.75019167  0.33416059  0.12454962  1
  Mn  Mn112  1  0.75002495  -0.00111230  0.12577439  1
  Mn  Mn113  1  0.74937114  0.66523741  0.12646829  1
  Mn  Mn114  1  0.50002708  0.16698913  -0.00061058  1
  Mn  Mn115  1  0.75006780  0.16633530  0.62438964  1
  Mn  Mn116  1  0.25003697  -0.00129555  0.12544968  1
  Mn  Mn117  1  0.74935610  -0.00064588  0.37523044  1
  Mn  Mn118  1  -0.00041734  0.50020226  0.24957395  1
  Mn  Mn119  1  0.00072828  0.50009776  0.49972233  1
  Mn  Mn120  1  0.24992762  0.16742925  0.37550841  1
  Mn  Mn121  1  0.49995424  0.16721416  0.24993329  1
  Mn  Mn122  1  0.24991813  -0.00089637  0.37474309  1
  Mn  Mn123  1  -0.00057355  0.33156270  0.24897161  1
  Mn  Mn124  1  0.00057278  0.66819715  0.75067698  1
  Mn  Mn125  1  0.49981838  -0.00047177  0.25024119  1
  Mn  Mn126  1  0.24944778  0.50155233  0.62526975  1
  Mn  Mn127  1  0.75025521  0.16536302  0.87405746  1
  Mn  Mn128  1  0.50002246  0.66654714  0.74996839  1
  Mn  Mn129  1  0.24978111  -0.00171509  0.87589892  1
  Mn  Mn130  1  -0.00014814  0.83348113  0.24949221  1
  Mn  Mn131  1  0.50025063  -0.00054683  0.74950679  1
  Mn  Mn132  1  0.24933613  0.50152328  0.87589824  1
  Mn  Mn133  1  0.74962446  0.33337246  0.87454664  1
  Mn  Mn134  1  0.74994055  0.83190836  0.12482511  1
  Mn  Mn135  1  -0.00015067  0.33212546  -0.00020270  1
  Mn  Mn136  1  0.24979337  0.33384138  0.62541633  1
  Mn  Mn137  1  0.75049887  0.83319013  0.62564937  1
  Mn  Mn138  1  0.24935324  0.50087040  0.12551714  1
  Mn  Mn139  1  0.24968807  0.33382681  0.87515097  1
  Mn  Mn140  1  0.00050253  0.00011896  0.75007334  1
  Mn  Mn141  1  -0.00068164  0.33246078  0.75004783  1
  Mn  Mn142  1  0.50029570  0.33480111  -0.00002986  1
  Mn  Mn143  1  0.74978552  0.16636901  0.12508199  1
  Fe  Fe144  1  0.74985404  -0.00039312  0.62485412  1
  Fe  Fe145  1  0.50009475  0.83239628  0.75010137  1
  Fe  Fe146  1  0.00031177  0.83454848  0.49920081  1
  Fe  Fe147  1  0.49977476  0.16759621  0.49992504  1
  Fe  Fe148  1  -0.00024654  0.66658097  0.00007676  1
  Fe  Fe149  1  0.00001308  0.33271345  0.49951074  1
  Fe  Fe150  1  -0.00015408  0.16659674  0.49973949  1
  Fe  Fe151  1  0.24991489  0.66757061  0.12469020  1
  Fe  Fe152  1  0.49947668  0.50112162  0.25018891  1
  Fe  Fe153  1  0.50021909  0.50036252  0.74957416  1
  Fe  Fe154  1  0.75010712  0.66675832  0.62460484  1
  Fe  Fe155  1  0.25084688  0.66732456  0.87504780  1
  Fe  Fe156  1  0.00008945  0.83390530  0.75046543  1
  Fe  Fe157  1  0.50048477  0.83221789  0.00043604  1
  Fe  Fe158  1  0.00016253  -0.00032950  0.00032310  1
  Fe  Fe159  1  0.74947958  0.50024268  0.12562961  1
  Fe  Fe160  1  0.24999015  0.66743795  0.62477083  1
  Fe  Fe161  1  0.49941146  0.50048053  -0.00022757  1
  Fe  Fe162  1  -0.00004029  0.66676866  0.24948308  1
  Fe  Fe163  1  0.50064828  0.83296785  0.50022614  1
  Fe  Fe164  1  0.25063536  0.83234732  0.87441654  1
  Fe  Fe165  1  0.50006196  0.50048848  0.50020244  1
  Fe  Fe166  1  0.25013807  0.83238775  0.12466235  1
  Fe  Fe167  1  0.25002376  0.33413127  0.12532876  1
  Fe  Fe168  1  0.75045391  0.33451411  0.37455644  1
  Fe  Fe169  1  0.75068012  0.83288595  0.37586296  1
  Fe  Fe170  1  0.00028902  0.16654335  0.74952091  1
  Fe  Fe171  1  0.25075433  0.83295871  0.37467462  1
  Fe  Fe172  1  0.50008155  0.66650733  0.50026818  1
  Fe  Fe173  1  -0.00003935  0.16513744  0.25071866  1
  Fe  Fe174  1  0.49960194  0.16726617  0.74921138  1
  Fe  Fe175  1  0.50037478  0.66607112  -0.00024349  1
  Fe  Fe176  1  -0.00008717  0.00056068  0.50033558  1
  Fe  Fe177  1  0.50027416  0.33445734  0.50042161  1
  Fe  Fe178  1  0.75008577  0.66632684  0.37545837  1
  Fe  Fe179  1  0.75011519  -0.00071921  0.87504376  1
  Fe  Fe180  1  0.75018553  0.50077861  0.37558861  1
  Fe  Fe181  1  0.25002132  -0.00088492  0.62505021  1
  Fe  Fe182  1  -0.00058825  0.49987750  0.00009086  1
  Fe  Fe183  1  0.25027449  0.33406479  0.37530773  1
  Fe  Fe184  1  0.00025556  0.83287296  0.00032943  1
  Fe  Fe185  1  0.74970026  0.50107177  0.62446708  1
  Fe  Fe186  1  0.24982345  0.66763064  0.37430094  1
  Fe  Fe187  1  0.50008251  0.33401634  0.74918790  1
  Fe  Fe188  1  0.00015660  -0.00022317  0.25025786  1
  Fe  Fe189  1  0.00018128  0.16529228  0.00055704  1
  Fe  Fe190  1  0.49964902  0.66611710  0.25016249  1
  Fe  Fe191  1  0.75052991  0.66605361  0.87493021  1
  P  P192  1  0.04202451  0.24734350  0.10295116  1
  P  P193  1  0.04173233  0.24812938  0.35307421  1
  P  P194  1  0.04155034  0.24946759  0.60150503  1
  P  P195  1  0.04213743  0.24780500  0.85280838  1
  P  P196  1  0.04115849  0.58344469  0.10170485  1
  P  P197  1  0.04216934  0.58498711  0.35201225  1
  P  P198  1  0.04317655  0.58414037  0.60314915  1
  P  P199  1  0.04220255  0.58374612  0.85432372  1
  P  P200  1  0.04109654  0.91659739  0.10190022  1
  P  P201  1  0.04215614  0.91796924  0.35282699  1
  P  P202  1  0.04147320  0.91696383  0.60157170  1
  P  P203  1  0.04239544  0.91538743  0.85330012  1
  P  P204  1  0.54293796  0.25093703  0.10291663  1
  P  P205  1  0.54251088  0.25085228  0.35424828  1
  P  P206  1  0.54117131  0.25060003  0.60203550  1
  P  P207  1  0.54149299  0.25046721  0.85062398  1
  P  P208  1  0.54088669  0.58311580  0.10215299  1
  P  P209  1  0.54103722  0.58354902  0.35257784  1
  P  P210  1  0.54152635  0.58325621  0.60172425  1
  P  P211  1  0.54209638  0.58204676  0.85268047  1
  P  P212  1  0.54247793  0.91465367  0.10242272  1
  P  P213  1  0.54265381  0.91610601  0.35423245  1
  P  P214  1  0.54218980  0.91489338  0.60310181  1
  P  P215  1  0.54224981  0.91428025  0.85250719  1
  P  P216  1  0.45693619  0.08290526  0.14665676  1
  P  P217  1  0.45736083  0.08472963  0.39793119  1
  P  P218  1  0.45800282  0.08498504  0.64695094  1
  P  P219  1  0.45718633  0.08344836  0.89573500  1
  P  P220  1  0.45752421  0.41924533  0.14763167  1
  P  P221  1  0.45874474  0.41807273  0.39856897  1
  P  P222  1  0.45881995  0.41767921  0.64748893  1
  P  P223  1  0.45756273  0.41842160  0.89660932  1
  P  P224  1  0.45830058  0.74810190  0.14718754  1
  P  P225  1  0.45909890  0.74934016  0.39856497  1
  P  P226  1  0.45823651  0.75088700  0.64682538  1
  P  P227  1  0.45908914  0.74970282  0.89830849  1
  P  P228  1  0.95829019  0.08240813  0.14821939  1
  P  P229  1  0.95856620  0.08324942  0.39809174  1
  P  P230  1  0.95801471  0.08460298  0.64694924  1
  P  P231  1  0.95883784  0.08283793  0.89834944  1
  P  P232  1  0.95702519  0.41621795  0.14607468  1
  P  P233  1  0.95819298  0.41529723  0.39731619  1
  P  P234  1  0.95740072  0.41610281  0.64600704  1
  P  P235  1  0.95736670  0.41736476  0.89764947  1
  P  P236  1  0.95790714  0.74837288  0.14676625  1
  P  P237  1  0.95802927  0.75185799  0.39713364  1
  P  P238  1  0.95830491  0.75272830  0.64738706  1
  P  P239  1  0.95867802  0.75040901  0.89856708  1
  P  P240  1  0.20709638  0.08301245  0.22839047  1
  P  P241  1  0.20759654  0.08260105  0.47856378  1
  P  P242  1  0.20774774  0.08117925  0.72732021  1
  P  P243  1  0.20711589  0.08280313  0.97864321  1
  P  P244  1  0.20739894  0.41568667  0.22805069  1
  P  P245  1  0.20745493  0.41648226  0.47741041  1
  P  P246  1  0.20668890  0.41773567  0.72843281  1
  P  P247  1  0.20686156  0.41724401  0.97905713  1
  P  P248  1  0.20820408  0.75009644  0.22684086  1
  P  P249  1  0.20850747  0.75037231  0.47632671  1
  P  P250  1  0.20803366  0.74887433  0.72784752  1
  P  P251  1  0.20906500  0.75002807  0.97693003  1
  P  P252  1  0.70686844  0.08309993  0.22846208  1
  P  P253  1  0.70697566  0.08287741  0.47877039  1
  P  P254  1  0.70795762  0.08137378  0.72734515  1
  P  P255  1  0.70737812  0.08140609  0.97716440  1
  P  P256  1  0.70798620  0.41834104  0.22846312  1
  P  P257  1  0.70862995  0.41775960  0.47653316  1
  P  P258  1  0.70736601  0.41879912  0.72650037  1
  P  P259  1  0.70657675  0.41703102  0.97807307  1
  P  P260  1  0.70727325  0.74951355  0.22962298  1
  P  P261  1  0.70920091  0.74950117  0.47729818  1
  P  P262  1  0.70809491  0.74836554  0.72763341  1
  P  P263  1  0.70782176  0.74772061  0.97726982  1
  P  P264  1  0.29242441  0.25167857  0.02294818  1
  P  P265  1  0.29235335  0.25215806  0.27275395  1
  P  P266  1  0.29281393  0.25092405  0.52160085  1
  P  P267  1  0.29270396  0.24977585  0.77187215  1
  P  P268  1  0.29184575  0.58547833  0.02252081  1
  P  P269  1  0.29175636  0.58532240  0.27220432  1
  P  P270  1  0.29197448  0.58574151  0.52191972  1
  P  P271  1  0.29245007  0.58543652  0.77245157  1
  P  P272  1  0.29215222  0.91415209  0.02225124  1
  P  P273  1  0.29258546  0.91440899  0.27205892  1
  P  P274  1  0.29258514  0.91735237  0.52217636  1
  P  P275  1  0.29233867  0.91496378  0.77215680  1
  P  P276  1  0.79292552  0.24943830  0.02159816  1
  P  P277  1  0.79232172  0.25154643  0.27266708  1
  P  P278  1  0.79236051  0.25087220  0.52090617  1
  P  P279  1  0.79259845  0.25009197  0.77117734  1
  P  P280  1  0.79179490  0.58198735  0.02282617  1
  P  P281  1  0.79141741  0.58286422  0.27381886  1
  P  P282  1  0.79147324  0.58365834  0.52257049  1
  P  P283  1  0.79260746  0.58497314  0.77159938  1
  P  P284  1  0.79259088  0.91588312  0.02149180  1
  P  P285  1  0.79265592  0.91468746  0.27321308  1
  P  P286  1  0.79222719  0.91718508  0.52253649  1
  P  P287  1  0.79274382  0.91773945  0.77243257  1
  O  O288  1  0.03648889  0.24720892  0.18283778  1
  O  O289  1  0.03608791  0.24900888  0.43292690  1
  O  O290  1  0.03665989  0.24942555  0.68148238  1
  O  O291  1  0.03684986  0.24779402  0.93273043  1
  O  O292  1  0.03609848  0.58396801  0.18168178  1
  O  O293  1  0.03731465  0.58499066  0.43196132  1
  O  O294  1  0.03795833  0.58426321  0.68307881  1
  O  O295  1  0.03648146  0.58348166  0.93421088  1
  O  O296  1  0.03631402  0.91700654  0.18183058  1
  O  O297  1  0.03697914  0.91756698  0.43267528  1
  O  O298  1  0.03698238  0.91688642  0.68152181  1
  O  O299  1  0.03717598  0.91541498  0.93309929  1
  O  O300  1  0.53788331  0.25114934  0.18288242  1
  O  O301  1  0.53713527  0.25079855  0.43415049  1
  O  O302  1  0.53600914  0.25082037  0.68194186  1
  O  O303  1  0.53704692  0.25093915  0.93062476  1
  O  O304  1  0.53576711  0.58377012  0.18200560  1
  O  O305  1  0.53604957  0.58330774  0.43241055  1
  O  O306  1  0.53678265  0.58324214  0.68162708  1
  O  O307  1  0.53690506  0.58219089  0.93249992  1
  O  O308  1  0.53739720  0.91508363  0.18240947  1
  O  O309  1  0.53733452  0.91610689  0.43415835  1
  O  O310  1  0.53682015  0.91466595  0.68301420  1
  O  O311  1  0.53665504  0.91426137  0.93240638  1
  O  O312  1  0.46195051  0.08263716  0.06663385  1
  O  O313  1  0.46241526  0.08405281  0.31794397  1
  O  O314  1  0.46348847  0.08509827  0.56704701  1
  O  O315  1  0.46258324  0.08380683  0.81577842  1
  O  O316  1  0.46255610  0.41911461  0.06770604  1
  O  O317  1  0.46341774  0.41813409  0.31863854  1
  O  O318  1  0.46403586  0.41739095  0.56762781  1
  O  O319  1  0.46279673  0.41814337  0.81677069  1
  O  O320  1  0.46359037  0.74830797  0.06736661  1
  O  O321  1  0.46378344  0.74837337  0.31862860  1
  O  O322  1  0.46364232  0.75083195  0.56702147  1
  O  O323  1  0.46370260  0.74981299  0.81833988  1
  O  O324  1  0.96363628  0.08247420  0.06836583  1
  O  O325  1  0.96352123  0.08257231  0.31822816  1
  O  O326  1  0.96309608  0.08451124  0.56712021  1
  O  O327  1  0.96368465  0.08282712  0.81842694  1
  O  O328  1  0.96236561  0.41674529  0.06615751  1
  O  O329  1  0.96297429  0.41543201  0.31733276  1
  O  O330  1  0.96310436  0.41545350  0.56609677  1
  O  O331  1  0.96263069  0.41725484  0.81767154  1
  O  O332  1  0.96318661  0.74816330  0.06692687  1
  O  O333  1  0.96288155  0.75109116  0.31720657  1
  O  O334  1  0.96360835  0.75290403  0.56747100  1
  O  O335  1  0.96358689  0.75107411  0.81863273  1
  O  O336  1  0.21229097  0.08303968  0.05856407  1
  O  O337  1  0.21228899  0.08301320  0.30833196  1
  O  O338  1  0.21314751  0.08191180  0.55848051  1
  O  O339  1  0.21289563  0.08137657  0.80731741  1
  O  O340  1  0.21217800  0.41677296  0.05902650  1
  O  O341  1  0.21286325  0.41577109  0.30801498  1
  O  O342  1  0.21234478  0.41703008  0.55738870  1
  O  O343  1  0.21165510  0.41786994  0.80842371  1
  O  O344  1  0.21393916  0.75014254  0.05684511  1
  O  O345  1  0.21344637  0.75012747  0.30671866  1
  O  O346  1  0.21336200  0.75015067  0.55627915  1
  O  O347  1  0.21356303  0.74930813  0.80766621  1
  O  O348  1  0.71228021  0.08196660  0.05717957  1
  O  O349  1  0.71180253  0.08325793  0.30845132  1
  O  O350  1  0.71238071  0.08239608  0.55870157  1
  O  O351  1  0.71330583  0.08122932  0.80730170  1
  O  O352  1  0.71168114  0.41735262  0.05803284  1
  O  O353  1  0.71374142  0.41813026  0.30831282  1
  O  O354  1  0.71354677  0.41839451  0.55646927  1
  O  O355  1  0.71230019  0.41849176  0.80643977  1
  O  O356  1  0.71270663  0.74785486  0.05725552  1
  O  O357  1  0.71264066  0.74980518  0.30949914  1
  O  O358  1  0.71424812  0.74897985  0.55726144  1
  O  O359  1  0.71334310  0.74817430  0.80754996  1
  O  O360  1  0.28711990  0.25236800  0.19278858  1
  O  O361  1  0.28764440  0.25151988  0.44162648  1
  O  O362  1  0.28771756  0.24966634  0.69188910  1
  O  O363  1  0.28705162  0.25102250  0.94299164  1
  O  O364  1  0.28643905  0.58513965  0.19229107  1
  O  O365  1  0.28651638  0.58560578  0.44198901  1
  O  O366  1  0.28712645  0.58555831  0.69249936  1
  O  O367  1  0.28675213  0.58545592  0.94258044  1
  O  O368  1  0.28728149  0.91408706  0.19212076  1
  O  O369  1  0.28769121  0.91658787  0.44224111  1
  O  O370  1  0.28707658  0.91575369  0.69219841  1
  O  O371  1  0.28702059  0.91384323  0.94228061  1
  O  O372  1  0.78714087  0.25120548  0.19267725  1
  O  O373  1  0.78706422  0.25133230  0.44098952  1
  O  O374  1  0.78753767  0.25012166  0.69119132  1
  O  O375  1  0.78785780  0.24912551  0.94160198  1
  O  O376  1  0.78656096  0.58256360  0.19388186  1
  O  O377  1  0.78637092  0.58335234  0.44266211  1
  O  O378  1  0.78723840  0.58489539  0.69171949  1
  O  O379  1  0.78687264  0.58294928  0.94288765  1
  O  O380  1  0.78754497  0.91481156  0.19322489  1
  O  O381  1  0.78690448  0.91625520  0.44265954  1
  O  O382  1  0.78743909  0.91779421  0.69247629  1
  O  O383  1  0.78735212  0.91643619  0.94154149  1
  O  O384  1  0.22811222  0.25208741  0.05858019  1
  O  O385  1  0.22805432  0.25213855  0.30838467  1
  O  O386  1  0.22843488  0.25026631  0.55670189  1
  O  O387  1  0.22819247  0.24977824  0.80669012  1
  O  O388  1  0.22759382  0.58550593  0.05822064  1
  O  O389  1  0.22752315  0.58526405  0.30790461  1
  O  O390  1  0.22775909  0.58600220  0.55777968  1
  O  O391  1  0.22820698  0.58597395  0.80822703  1
  O  O392  1  0.22787845  0.91424407  0.05791501  1
  O  O393  1  0.22826849  0.91422377  0.30760546  1
  O  O394  1  0.22821473  0.91780161  0.55765505  1
  O  O395  1  0.22809574  0.91415027  0.80784492  1
  O  O396  1  0.72847022  0.24987583  0.05651243  1
  O  O397  1  0.72802775  0.25210528  0.30820270  1
  O  O398  1  0.72807093  0.25061460  0.55625079  1
  O  O399  1  0.72812945  0.24961201  0.80606803  1
  O  O400  1  0.72742019  0.58137226  0.05832284  1
  O  O401  1  0.72718833  0.58263493  0.30948319  1
  O  O402  1  0.72735188  0.58380606  0.55879992  1
  O  O403  1  0.72829588  0.58541495  0.80742157  1
  O  O404  1  0.72824800  0.91573006  0.05679552  1
  O  O405  1  0.72825552  0.91417330  0.30849801  1
  O  O406  1  0.72803779  0.91738236  0.55842359  1
  O  O407  1  0.72843778  0.91752309  0.80806900  1
  O  O408  1  0.27149358  0.08310082  0.19337281  1
  O  O409  1  0.27177083  0.08295040  0.44293183  1
  O  O410  1  0.27210679  0.08082867  0.69186463  1
  O  O411  1  0.27151736  0.08256045  0.94353952  1
  O  O412  1  0.27164295  0.41613845  0.19227473  1
  O  O413  1  0.27189976  0.41648163  0.44221155  1
  O  O414  1  0.27120617  0.41786887  0.69363171  1
  O  O415  1  0.27117823  0.41762474  0.94369803  1
  O  O416  1  0.27237349  0.75005875  0.19063295  1
  O  O417  1  0.27275070  0.75023966  0.44042216  1
  O  O418  1  0.27218159  0.74866592  0.69171212  1
  O  O419  1  0.27321133  0.75006768  0.94069700  1
  O  O420  1  0.77145297  0.08292246  0.19381715  1
  O  O421  1  0.77125626  0.08314921  0.44342355  1
  O  O422  1  0.77221119  0.08149043  0.69163437  1
  O  O423  1  0.77189303  0.08110656  0.94202752  1
  O  O424  1  0.77202810  0.41874408  0.19204847  1
  O  O425  1  0.77283076  0.41756001  0.44066987  1
  O  O426  1  0.77175285  0.41913925  0.69121952  1
  O  O427  1  0.77100259  0.41695570  0.94293856  1
  O  O428  1  0.77154010  0.74915470  0.19403496  1
  O  O429  1  0.77322979  0.74992402  0.44117159  1
  O  O430  1  0.77236452  0.74822728  0.69198871  1
  O  O431  1  0.77222120  0.74776644  0.94193945  1
  O  O432  1  0.02235901  0.08237423  0.18486527  1
  O  O433  1  0.02256910  0.08396377  0.43454614  1
  O  O434  1  0.02223705  0.08455266  0.68307044  1
  O  O435  1  0.02298358  0.08318197  0.93445206  1
  O  O436  1  0.02129268  0.41598961  0.18165388  1
  O  O437  1  0.02255430  0.41537340  0.43271527  1
  O  O438  1  0.02155538  0.41600833  0.68189485  1
  O  O439  1  0.02159437  0.41729811  0.93344603  1
  O  O440  1  0.02212953  0.74848385  0.18281314  1
  O  O441  1  0.02246556  0.75230491  0.43256267  1
  O  O442  1  0.02258413  0.75268220  0.68322525  1
  O  O443  1  0.02284348  0.74958341  0.93461461  1
  O  O444  1  0.52142485  0.08303300  0.18171834  1
  O  O445  1  0.52166747  0.08491155  0.43354381  1
  O  O446  1  0.52213760  0.08484668  0.68310206  1
  O  O447  1  0.52150672  0.08282046  0.93124903  1
  O  O448  1  0.52185763  0.41967652  0.18334941  1
  O  O449  1  0.52297864  0.41832733  0.43442900  1
  O  O450  1  0.52284834  0.41817580  0.68392038  1
  O  O451  1  0.52177319  0.41911799  0.93276550  1
  O  O452  1  0.52242780  0.74750990  0.18348505  1
  O  O453  1  0.52329049  0.74982479  0.43451119  1
  O  O454  1  0.52237361  0.75107155  0.68311669  1
  O  O455  1  0.52323845  0.75001005  0.93431402  1
  O  O456  1  0.47848594  0.25094656  0.06779693  1
  O  O457  1  0.47833530  0.25117525  0.31830934  1
  O  O458  1  0.47723891  0.25043969  0.56545622  1
  O  O459  1  0.47723483  0.25011334  0.81496287  1
  O  O460  1  0.47692530  0.58298769  0.06554085  1
  O  O461  1  0.47694378  0.58369830  0.31607376  1
  O  O462  1  0.47728395  0.58293247  0.56590962  1
  O  O463  1  0.47791237  0.58187897  0.81655355  1
  O  O464  1  0.47810398  0.91411707  0.06682119  1
  O  O465  1  0.47836634  0.91580350  0.31867593  1
  O  O466  1  0.47801681  0.91481152  0.56709167  1
  O  O467  1  0.47806313  0.91457407  0.81642447  1
  O  O468  1  0.97788001  0.24744841  0.06679217  1
  O  O469  1  0.97766257  0.24732589  0.31663341  1
  O  O470  1  0.97738593  0.24931278  0.56544344  1
  O  O471  1  0.97782246  0.24767359  0.81695363  1
  O  O472  1  0.97698026  0.58352800  0.06567756  1
  O  O473  1  0.97771803  0.58502510  0.31670773  1
  O  O474  1  0.97878809  0.58411735  0.56791373  1
  O  O475  1  0.97813384  0.58417740  0.81813357  1
  O  O476  1  0.97705721  0.91646550  0.06582024  1
  O  O477  1  0.97796368  0.91816528  0.31672348  1
  O  O478  1  0.97725294  0.91648994  0.56572937  1
  O  O479  1  0.97823867  0.91578474  0.81702359  1
  O  O480  1  0.07306535  0.31116278  0.07547588  1
  O  O481  1  0.07268499  0.31164744  0.32462501  1
  O  O482  1  0.07201983  0.31338843  0.57321227  1
  O  O483  1  0.07291570  0.31172812  0.82513246  1
  O  O484  1  0.07242276  0.64675548  0.07334213  1
  O  O485  1  0.07277971  0.64851379  0.32339520  1
  O  O486  1  0.07419706  0.64766454  0.57516765  1
  O  O487  1  0.07366799  0.64717112  0.82640647  1
  O  O488  1  0.07218532  0.97990839  0.07328998  1
  O  O489  1  0.07311142  0.98136267  0.32426594  1
  O  O490  1  0.07140820  0.98119433  0.57323602  1
  O  O491  1  0.07387199  0.97869878  0.82511644  1
  O  O492  1  0.57389370  0.31447858  0.07483493  1
  O  O493  1  0.57385596  0.31427776  0.32614631  1
  O  O494  1  0.57181760  0.31447309  0.57359218  1
  O  O495  1  0.57172125  0.31441037  0.82206246  1
  O  O496  1  0.57169130  0.64663335  0.07311381  1
  O  O497  1  0.57208708  0.64705783  0.32428596  1
  O  O498  1  0.57167088  0.64734197  0.57335563  1
  O  O499  1  0.57300826  0.64577009  0.82457414  1
  O  O500  1  0.57323581  0.97827367  0.07424654  1
  O  O501  1  0.57346548  0.97975360  0.32609857  1
  O  O502  1  0.57302091  0.97893226  0.57592992  1
  O  O503  1  0.57349437  0.97792213  0.82489542  1
  O  O504  1  0.42604551  0.01936590  0.17489603  1
  O  O505  1  0.42630069  0.02114892  0.42589831  1
  O  O506  1  0.42701281  0.02104579  0.67421670  1
  O  O507  1  0.42581737  0.01992279  0.92345119  1
  O  O508  1  0.42695975  0.35536957  0.17565428  1
  O  O509  1  0.42850640  0.35416380  0.42715489  1
  O  O510  1  0.42842271  0.35382272  0.67614974  1
  O  O511  1  0.42691331  0.35463703  0.92499271  1
  O  O512  1  0.42702262  0.68497639  0.17601154  1
  O  O513  1  0.42848850  0.68582559  0.42756173  1
  O  O514  1  0.42731491  0.68714578  0.67486962  1
  O  O515  1  0.42896899  0.68553135  0.92643377  1
  O  O516  1  0.92736751  0.01880546  0.17655454  1
  O  O517  1  0.92825945  0.01946365  0.42714207  1
  O  O518  1  0.92693600  0.02107350  0.67517543  1
  O  O519  1  0.92875440  0.01871823  0.92679262  1
  O  O520  1  0.92591454  0.35256868  0.17368659  1
  O  O521  1  0.92760261  0.35168402  0.42565878  1
  O  O522  1  0.92578257  0.35311238  0.67450735  1
  O  O523  1  0.92622918  0.35358590  0.92487430  1
  O  O524  1  0.92704014  0.68509676  0.17594218  1
  O  O525  1  0.92701171  0.68843813  0.42556663  1
  O  O526  1  0.92735573  0.68889117  0.67500402  1
  O  O527  1  0.92731389  0.68687773  0.92625528  1
  O  O528  1  0.17619266  0.01936611  0.20025073  1
  O  O529  1  0.17622838  0.01945729  0.44994056  1
  O  O530  1  0.17688715  0.01758416  0.69898082  1
  O  O531  1  0.17608420  0.01916170  0.95068930  1
  O  O532  1  0.17664986  0.35223967  0.19931984  1
  O  O533  1  0.17691595  0.35273807  0.44905918  1
  O  O534  1  0.17577330  0.35405511  0.70036886  1
  O  O535  1  0.17564784  0.35394273  0.95047513  1
  O  O536  1  0.17730670  0.68649773  0.19816480  1
  O  O537  1  0.17726956  0.68706558  0.44774063  1
  O  O538  1  0.17690732  0.68558743  0.69906060  1
  O  O539  1  0.17825927  0.68632537  0.94851699  1
  O  O540  1  0.67591867  0.01942447  0.20044493  1
  O  O541  1  0.67566775  0.01959029  0.45034470  1
  O  O542  1  0.67700425  0.01798377  0.69861132  1
  O  O543  1  0.67666558  0.01776798  0.94878769  1
  O  O544  1  0.67675746  0.35479612  0.20030222  1
  O  O545  1  0.67798266  0.35382863  0.44853189  1
  O  O546  1  0.67648698  0.35499920  0.69859996  1
  O  O547  1  0.67577368  0.35327195  0.94974697  1
  O  O548  1  0.67598297  0.68598263  0.20135622  1
  O  O549  1  0.67847574  0.68580445  0.44864361  1
  O  O550  1  0.67673842  0.68546006  0.69841353  1
  O  O551  1  0.67721922  0.68410467  0.94876716  1
  O  O552  1  0.32323745  0.31542268  0.05096787  1
  O  O553  1  0.32332328  0.31548684  0.30169486  1
  O  O554  1  0.32380258  0.31429082  0.55032690  1
  O  O555  1  0.32359507  0.31345966  0.79991110  1
  O  O556  1  0.32280325  0.64887373  0.05111207  1
  O  O557  1  0.32276477  0.64865098  0.30087890  1
  O  O558  1  0.32314517  0.64895351  0.55062388  1
  O  O559  1  0.32389110  0.64851242  0.80127382  1
  O  O560  1  0.32313383  0.97808131  0.04981512  1
  O  O561  1  0.32347445  0.97836061  0.29965572  1
  O  O562  1  0.32334746  0.98092328  0.55076689  1
  O  O563  1  0.32332625  0.97845532  0.80058898  1
  O  O564  1  0.82412018  0.31293843  0.04954991  1
  O  O565  1  0.82327717  0.31514138  0.30084321  1
  O  O566  1  0.82360707  0.31416038  0.54935225  1
  O  O567  1  0.82322156  0.31390269  0.79926904  1
  O  O568  1  0.82281878  0.64537773  0.05153853  1
  O  O569  1  0.82160760  0.64700246  0.30228951  1
  O  O570  1  0.82256933  0.64732165  0.55073535  1
  O  O571  1  0.82373440  0.64818966  0.80073057  1
  O  O572  1  0.82386793  0.97902305  0.05035103  1
  O  O573  1  0.82332585  0.97869069  0.30092368  1
  O  O574  1  0.82280646  0.98108491  0.55059268  1
  O  O575  1  0.82369748  0.98098830  0.80133683  1
  O  O576  1  0.42598081  0.14656120  0.17461173  1
  O  O577  1  0.42669495  0.14850087  0.42594686  1
  O  O578  1  0.42698054  0.14834315  0.67544974  1
  O  O579  1  0.42628042  0.14691448  0.92430235  1
  O  O580  1  0.42632249  0.48243288  0.17642129  1
  O  O581  1  0.42734808  0.48141292  0.42683079  1
  O  O582  1  0.42734206  0.48106860  0.67564061  1
  O  O583  1  0.42625729  0.48158950  0.92545911  1
  O  O584  1  0.42746859  0.81181532  0.17553740  1
  O  O585  1  0.42817260  0.81321616  0.42620317  1
  O  O586  1  0.42703354  0.81406885  0.67574739  1
  O  O587  1  0.42778172  0.81292914  0.92681535  1
  O  O588  1  0.92736755  0.14599247  0.17677115  1
  O  O589  1  0.92700646  0.14661540  0.42610890  1
  O  O590  1  0.92727316  0.14807118  0.67587977  1
  O  O591  1  0.92736173  0.14602748  0.92677189  1
  O  O592  1  0.92590962  0.47950036  0.17481028  1
  O  O593  1  0.92717880  0.47910560  0.42498561  1
  O  O594  1  0.92652320  0.48003604  0.67355628  1
  O  O595  1  0.92668108  0.48101502  0.92602856  1
  O  O596  1  0.92669867  0.81205590  0.17458581  1
  O  O597  1  0.92736435  0.81552422  0.42552340  1
  O  O598  1  0.92734047  0.81598330  0.67630404  1
  O  O599  1  0.92826065  0.81415409  0.92736492  1
  O  O600  1  0.07304240  0.18398747  0.07446214  1
  O  O601  1  0.07298783  0.18464471  0.32499726  1
  O  O602  1  0.07274083  0.18605021  0.57322167  1
  O  O603  1  0.07307654  0.18453172  0.82387676  1
  O  O604  1  0.07160520  0.51927143  0.07398382  1
  O  O605  1  0.07310450  0.52117762  0.32428182  1
  O  O606  1  0.07425861  0.52065144  0.57503903  1
  O  O607  1  0.07341567  0.52037081  0.82588984  1
  O  O608  1  0.07174553  0.85253475  0.07403752  1
  O  O609  1  0.07323304  0.85449481  0.32420053  1
  O  O610  1  0.07303672  0.85387086  0.57294905  1
  O  O611  1  0.07288841  0.85179060  0.82423136  1
  O  O612  1  0.57387276  0.18734365  0.07473700  1
  O  O613  1  0.57361941  0.18740385  0.32578950  1
  O  O614  1  0.57242794  0.18709296  0.57387053  1
  O  O615  1  0.57258245  0.18684332  0.82265186  1
  O  O616  1  0.57197591  0.51955441  0.07396030  1
  O  O617  1  0.57177630  0.51994979  0.32373941  1
  O  O618  1  0.57294903  0.52012921  0.57316113  1
  O  O619  1  0.57315547  0.51888395  0.82356458  1
  O  O620  1  0.57343632  0.85100799  0.07440401  1
  O  O621  1  0.57406465  0.85279179  0.32609085  1
  O  O622  1  0.57338510  0.85173118  0.57425722  1
  O  O623  1  0.57311666  0.85080433  0.82399735  1
  O  O624  1  0.32338847  0.18801496  0.05086608  1
  O  O625  1  0.32324791  0.18818701  0.30014651  1
  O  O626  1  0.32402188  0.18731611  0.54927434  1
  O  O627  1  0.32361953  0.18623655  0.79997649  1
  O  O628  1  0.32279748  0.52179107  0.05040951  1
  O  O629  1  0.32281024  0.52161585  0.30005886  1
  O  O630  1  0.32272113  0.52181378  0.54967705  1
  O  O631  1  0.32298108  0.52147359  0.80030693  1
  O  O632  1  0.32311198  0.85096430  0.05116082  1
  O  O633  1  0.32365303  0.85126310  0.30105993  1
  O  O634  1  0.32355577  0.85383011  0.55042685  1
  O  O635  1  0.32339161  0.85138919  0.80016533  1
  O  O636  1  0.82366262  0.18586379  0.05000034  1
  O  O637  1  0.82307191  0.18770701  0.30038379  1
  O  O638  1  0.82343778  0.18724129  0.54874238  1
  O  O639  1  0.82397427  0.18676113  0.79917996  1
  O  O640  1  0.82245678  0.51831543  0.05106161  1
  O  O641  1  0.82305371  0.51986055  0.30224571  1
  O  O642  1  0.82224577  0.52004664  0.55119535  1
  O  O643  1  0.82345296  0.52126886  0.79980768  1
  O  O644  1  0.82344479  0.85206382  0.04917425  1
  O  O645  1  0.82368886  0.85140897  0.30175266  1
  O  O646  1  0.82352368  0.85390893  0.55088875  1
  O  O647  1  0.82368345  0.85382158  0.79994103  1
  O  O648  1  0.17601558  0.14653569  0.20059173  1
  O  O649  1  0.17653817  0.14639132  0.45114018  1
  O  O650  1  0.17694199  0.14496484  0.69950421  1
  O  O651  1  0.17623386  0.14626750  0.95028778  1
  O  O652  1  0.17608472  0.47940508  0.20055974  1
  O  O653  1  0.17637924  0.48006109  0.44942579  1
  O  O654  1  0.17569527  0.48117349  0.70016597  1
  O  O655  1  0.17582143  0.48094268  0.95136586  1
  O  O656  1  0.17724035  0.81358513  0.19823241  1
  O  O657  1  0.17817899  0.81440007  0.44819792  1
  O  O658  1  0.17692618  0.81239467  0.69947273  1
  O  O659  1  0.17810769  0.81348488  0.94826761  1
  O  O660  1  0.67601790  0.14663241  0.20022693  1
  O  O661  1  0.67585236  0.14651364  0.45106957  1
  O  O662  1  0.67686427  0.14518947  0.69981486  1
  O  O663  1  0.67646609  0.14501141  0.94891368  1
  O  O664  1  0.67697379  0.48180822  0.19993654  1
  O  O665  1  0.67761514  0.48122295  0.44807859  1
  O  O666  1  0.67668370  0.48230402  0.69796874  1
  O  O667  1  0.67534567  0.48016189  0.94947016  1
  O  O668  1  0.67614859  0.81265181  0.20062746  1
  O  O669  1  0.67823885  0.81329067  0.44972685  1
  O  O670  1  0.67745700  0.81246467  0.70011825  1
  O  O671  1  0.67683902  0.81134600  0.94939488  1
