# generated using pymatgen
data_Na2MnFe(PO4)2
_symmetry_space_group_name_H-M   'P 1'
_cell_length_a   22.35120157
_cell_length_b   20.10011743
_cell_length_c   19.44432558
_cell_angle_alpha   90.04043285
_cell_angle_beta   90.01659468
_cell_angle_gamma   90.00182908
_symmetry_Int_Tables_number   1
_chemical_formula_structural   Na2MnFe(PO4)2
_chemical_formula_sum   'Na96 Mn48 Fe48 P96 O384'
_cell_volume   8735.58970115
_cell_formula_units_Z   48
loop_
 _symmetry_equiv_pos_site_id
 _symmetry_equiv_pos_as_xyz
  1  'x, y, z'
loop_
 _atom_site_type_symbol
 _atom_site_label
 _atom_site_symmetry_multiplicity
 _atom_site_fract_x
 _atom_site_fract_y
 _atom_site_fract_z
 _atom_site_occupancy
  Na  Na0  1  0.13996662  0.24909393  0.24311132  1
  Na  Na1  1  0.14000046  0.24947220  0.49134230  1
  Na  Na2  1  0.14012849  0.24977176  0.74242717  1
  Na  Na3  1  0.14056182  0.25032379  0.99360555  1
  Na  Na4  1  0.14028699  0.58288574  0.24349774  1
  Na  Na5  1  0.14061565  0.58326841  0.49379544  1
  Na  Na6  1  0.14029402  0.58352880  0.74475845  1
  Na  Na7  1  0.13935062  0.58451597  0.99357628  1
  Na  Na8  1  0.14015170  0.91550198  0.24393921  1
  Na  Na9  1  0.13969069  0.91647656  0.49329142  1
  Na  Na10  1  0.13930588  0.91635825  0.74300567  1
  Na  Na11  1  0.13976890  0.91670195  0.99310661  1
  Na  Na12  1  0.64060900  0.24932880  0.24410679  1
  Na  Na13  1  0.64079578  0.25002541  0.49324131  1
  Na  Na14  1  0.64056857  0.24988197  0.74399180  1
  Na  Na15  1  0.64071307  0.25044327  0.99452346  1
  Na  Na16  1  0.64109463  0.58358040  0.24306088  1
  Na  Na17  1  0.64084206  0.58310327  0.49392934  1
  Na  Na18  1  0.64026887  0.58462166  0.74442644  1
  Na  Na19  1  0.64003538  0.58309834  0.99392372  1
  Na  Na20  1  0.64086676  0.91595235  0.24381399  1
  Na  Na21  1  0.64047895  0.91685593  0.49430338  1
  Na  Na22  1  0.64005144  0.91656891  0.74325529  1
  Na  Na23  1  0.64035638  0.91623410  0.99496820  1
  Na  Na24  1  0.35899691  0.08258333  0.00507829  1
  Na  Na25  1  0.35931122  0.08237344  0.25644712  1
  Na  Na26  1  0.35955865  0.08177627  0.50585757  1
  Na  Na27  1  0.35909386  0.08213008  0.75558663  1
  Na  Na28  1  0.35947559  0.41863008  0.00629987  1
  Na  Na29  1  0.35924889  0.41670824  0.25584089  1
  Na  Na30  1  0.35931501  0.41636329  0.50487866  1
  Na  Na31  1  0.35953612  0.41683933  0.75603765  1
  Na  Na32  1  0.35947511  0.75064234  0.00675413  1
  Na  Na33  1  0.35919415  0.74871284  0.25601413  1
  Na  Na34  1  0.35954105  0.74978608  0.50727902  1
  Na  Na35  1  0.35992309  0.75070822  0.75740634  1
  Na  Na36  1  0.85953875  0.08420407  0.00667447  1
  Na  Na37  1  0.85964863  0.08420513  0.25697393  1
  Na  Na38  1  0.86048955  0.08319212  0.50681659  1
  Na  Na39  1  0.86005576  0.08345054  0.75574217  1
  Na  Na40  1  0.85982571  0.41789197  0.00750226  1
  Na  Na41  1  0.85997028  0.41663569  0.25711726  1
  Na  Na42  1  0.86032995  0.41572235  0.50559611  1
  Na  Na43  1  0.86071422  0.41704208  0.75698590  1
  Na  Na44  1  0.85997356  0.75052910  0.00866107  1
  Na  Na45  1  0.85985751  0.75081389  0.25537229  1
  Na  Na46  1  0.85986305  0.75103053  0.50638951  1
  Na  Na47  1  0.86021356  0.75141925  0.75640957  1
  Na  Na48  1  0.10940393  0.08265230  0.11906990  1
  Na  Na49  1  0.11005725  0.08269480  0.36763005  1
  Na  Na50  1  0.10932909  0.08245697  0.61657964  1
  Na  Na51  1  0.10904588  0.08255203  0.86740355  1
  Na  Na52  1  0.10968290  0.41833617  0.11878230  1
  Na  Na53  1  0.10916381  0.41576461  0.36723850  1
  Na  Na54  1  0.10931873  0.41602129  0.61902272  1
  Na  Na55  1  0.10951739  0.41794636  0.86894642  1
  Na  Na56  1  0.10927740  0.74959837  0.11797728  1
  Na  Na57  1  0.10958413  0.74943820  0.36912734  1
  Na  Na58  1  0.10977640  0.75154369  0.61899430  1
  Na  Na59  1  0.10904881  0.75081165  0.86866095  1
  Na  Na60  1  0.60969268  0.08257440  0.11940037  1
  Na  Na61  1  0.61009011  0.08271244  0.36927246  1
  Na  Na62  1  0.60962367  0.08433152  0.61867649  1
  Na  Na63  1  0.60943346  0.08233424  0.86893128  1
  Na  Na64  1  0.61033402  0.41695614  0.11802050  1
  Na  Na65  1  0.60979479  0.41449330  0.36801039  1
  Na  Na66  1  0.60960277  0.41744191  0.61903133  1
  Na  Na67  1  0.60996025  0.41702652  0.86928939  1
  Na  Na68  1  0.60979052  0.74909914  0.11803629  1
  Na  Na69  1  0.61015695  0.74879159  0.36947950  1
  Na  Na70  1  0.60947837  0.75142302  0.61926364  1
  Na  Na71  1  0.60941534  0.75007759  0.87034827  1
  Na  Na72  1  0.39018857  0.24941098  0.13072162  1
  Na  Na73  1  0.39026073  0.24795964  0.38080914  1
  Na  Na74  1  0.39039885  0.25044320  0.62946808  1
  Na  Na75  1  0.39055098  0.25006338  0.88012821  1
  Na  Na76  1  0.38929946  0.58311872  0.13115034  1
  Na  Na77  1  0.38985726  0.58221581  0.38164084  1
  Na  Na78  1  0.39073215  0.58454265  0.63076894  1
  Na  Na79  1  0.39061429  0.58433008  0.88222396  1
  Na  Na80  1  0.38992084  0.91687132  0.13073528  1
  Na  Na81  1  0.39021281  0.91579729  0.38187611  1
  Na  Na82  1  0.38975067  0.91680188  0.63227037  1
  Na  Na83  1  0.38936442  0.91558559  0.88117769  1
  Na  Na84  1  0.89067509  0.25155403  0.13277800  1
  Na  Na85  1  0.89074229  0.24917492  0.38166236  1
  Na  Na86  1  0.89122960  0.25032072  0.63055975  1
  Na  Na87  1  0.89069086  0.25228868  0.88149544  1
  Na  Na88  1  0.89002399  0.58355432  0.13252577  1
  Na  Na89  1  0.89042423  0.58325440  0.38107443  1
  Na  Na90  1  0.89117523  0.58334512  0.63127159  1
  Na  Na91  1  0.89108129  0.58422606  0.88243935  1
  Na  Na92  1  0.89016651  0.91710682  0.13202573  1
  Na  Na93  1  0.89099750  0.91711082  0.38145868  1
  Na  Na94  1  0.89043224  0.91705280  0.63144514  1
  Na  Na95  1  0.88997654  0.91649564  0.88101504  1
  Mn  Mn96  1  0.75125891  0.66738158  0.62488777  1
  Mn  Mn97  1  0.75030804  0.50017337  0.37447071  1
  Mn  Mn98  1  0.25020172  0.33395492  0.12409949  1
  Mn  Mn99  1  0.75012242  0.00013099  0.87552845  1
  Mn  Mn100  1  0.50030155  0.49928202  0.25030286  1
  Mn  Mn101  1  0.75121824  0.00028129  0.37523170  1
  Mn  Mn102  1  0.50045762  0.33367655  -0.00009617  1
  Mn  Mn103  1  0.25000686  0.83268096  0.37477055  1
  Mn  Mn104  1  0.49993055  0.66568706  0.24955504  1
  Mn  Mn105  1  0.49898149  -0.00127850  -0.00062465  1
  Mn  Mn106  1  0.25029446  0.33403055  0.87440070  1
  Mn  Mn107  1  -0.00026358  0.66709374  0.25013069  1
  Mn  Mn108  1  0.49984453  -0.00015210  0.75044074  1
  Mn  Mn109  1  0.75026829  0.83387807  0.87588499  1
  Mn  Mn110  1  0.24986450  0.16498161  0.12372265  1
  Mn  Mn111  1  0.75030027  0.33331337  0.62496302  1
  Mn  Mn112  1  0.25081584  0.66719827  0.62544933  1
  Mn  Mn113  1  0.24950832  0.16546202  0.87378139  1
  Mn  Mn114  1  0.50065746  -0.00047526  0.25012851  1
  Mn  Mn115  1  0.75021685  0.66710257  0.87555052  1
  Mn  Mn116  1  -0.00103813  -0.00025708  -0.00033103  1
  Mn  Mn117  1  0.49977091  0.83320046  0.50061475  1
  Mn  Mn118  1  0.75072586  0.49973970  0.87550579  1
  Mn  Mn119  1  0.00054860  0.49896166  0.50067927  1
  Mn  Mn120  1  0.49964592  0.33347259  0.74996296  1
  Mn  Mn121  1  0.00024024  0.16712742  0.74921161  1
  Mn  Mn122  1  0.00024706  -0.00010820  0.24991471  1
  Mn  Mn123  1  0.25015400  0.16513262  0.62372205  1
  Mn  Mn124  1  0.49932223  0.33204549  0.24888051  1
  Mn  Mn125  1  0.75056258  0.49987807  0.62468412  1
  Mn  Mn126  1  0.00023276  0.16749114  -0.00065931  1
  Mn  Mn127  1  -0.00003945  0.66732851  0.75056238  1
  Mn  Mn128  1  0.50018306  0.16644334  0.50003025  1
  Mn  Mn129  1  0.49986563  0.83233990  0.25068551  1
  Mn  Mn130  1  0.24995378  0.66734727  0.87529254  1
  Mn  Mn131  1  0.24982054  0.33323121  0.37364727  1
  Mn  Mn132  1  0.24984789  0.83330536  0.12542930  1
  Mn  Mn133  1  0.00073594  0.33490739  0.00105847  1
  Mn  Mn134  1  0.24936432  0.33305961  0.62383971  1
  Mn  Mn135  1  0.74955553  0.16775969  0.87613557  1
  Mn  Mn136  1  0.50048087  0.50002503  0.50011058  1
  Mn  Mn137  1  0.00056042  0.66742038  0.50071280  1
  Mn  Mn138  1  0.49989181  0.16622566  -0.00015388  1
  Mn  Mn139  1  0.75082706  0.83290080  0.37447183  1
  Mn  Mn140  1  0.49951206  0.50151567  0.74908231  1
  Mn  Mn141  1  0.75039191  0.16719450  0.12541171  1
  Mn  Mn142  1  0.25020496  0.50009962  0.62452807  1
  Mn  Mn143  1  0.75135237  0.16646835  0.62514867  1
  Fe  Fe144  1  -0.00051949  0.83375901  0.49987030  1
  Fe  Fe145  1  0.24940341  0.83341585  0.62502377  1
  Fe  Fe146  1  0.24971465  0.50030813  0.37456340  1
  Fe  Fe147  1  0.49957489  0.50056698  -0.00092148  1
  Fe  Fe148  1  0.00059729  0.16661367  0.49959677  1
  Fe  Fe149  1  0.75029795  0.33361222  0.37455909  1
  Fe  Fe150  1  0.00006189  0.83336217  0.24977570  1
  Fe  Fe151  1  -0.00048437  0.66709280  0.00028265  1
  Fe  Fe152  1  0.24922731  -0.00104428  0.62466304  1
  Fe  Fe153  1  -0.00012745  0.16661894  0.25031075  1
  Fe  Fe154  1  0.00034539  0.33309724  0.25008147  1
  Fe  Fe155  1  0.24952169  -0.00069910  0.12480391  1
  Fe  Fe156  1  0.24944518  0.83390201  0.87561106  1
  Fe  Fe157  1  0.24992992  0.50092413  0.87533275  1
  Fe  Fe158  1  0.24984602  0.66615895  0.37527507  1
  Fe  Fe159  1  0.49994580  0.83293491  0.75068580  1
  Fe  Fe160  1  -0.00052698  0.83386342  0.74955585  1
  Fe  Fe161  1  0.49994994  0.83257078  0.00014621  1
  Fe  Fe162  1  0.24925257  0.66641029  0.12546596  1
  Fe  Fe163  1  0.75048025  0.66697125  0.37461792  1
  Fe  Fe164  1  0.00043747  0.33384035  0.75012816  1
  Fe  Fe165  1  0.00013109  -0.00027559  0.49935393  1
  Fe  Fe166  1  0.75008093  0.83344732  0.62505883  1
  Fe  Fe167  1  0.00009885  0.83373177  -0.00036855  1
  Fe  Fe168  1  0.49926572  0.66667366  -0.00005820  1
  Fe  Fe169  1  0.00016823  0.33300393  0.49960251  1
  Fe  Fe170  1  0.50007884  0.16560463  0.25040505  1
  Fe  Fe171  1  0.75010288  0.33389195  0.87562328  1
  Fe  Fe172  1  0.50021616  0.33291802  0.49977157  1
  Fe  Fe173  1  0.74986783  0.16669342  0.37516253  1
  Fe  Fe174  1  0.00035080  0.50032603  0.75064697  1
  Fe  Fe175  1  0.75002744  0.83360172  0.12571659  1
  Fe  Fe176  1  0.74982999  0.00051611  0.12571884  1
  Fe  Fe177  1  0.75059160  0.33346401  0.12560902  1
  Fe  Fe178  1  0.24873729  -0.00079382  0.87430981  1
  Fe  Fe179  1  -0.00069263  0.50058839  0.00047005  1
  Fe  Fe180  1  -0.00063888  -0.00029695  0.74894610  1
  Fe  Fe181  1  0.49994071  0.16685660  0.74938200  1
  Fe  Fe182  1  0.24990311  0.16542994  0.37388811  1
  Fe  Fe183  1  0.75006424  0.49990725  0.12542023  1
  Fe  Fe184  1  0.25025927  -0.00091854  0.37483700  1
  Fe  Fe185  1  0.00014189  0.50024412  0.25039806  1
  Fe  Fe186  1  0.50048591  0.66697849  0.50075549  1
  Fe  Fe187  1  0.50027468  0.66759914  0.75118974  1
  Fe  Fe188  1  0.74944629  0.00017004  0.62516008  1
  Fe  Fe189  1  0.24953940  0.50099072  0.12547503  1
  Fe  Fe190  1  0.50003699  -0.00003132  0.50058408  1
  Fe  Fe191  1  0.74982848  0.66675886  0.12538204  1
  P  P192  1  0.04290989  0.25026424  0.10402312  1
  P  P193  1  0.04127915  0.24951922  0.35200543  1
  P  P194  1  0.04199704  0.25015988  0.60111902  1
  P  P195  1  0.04269162  0.25177399  0.85201121  1
  P  P196  1  0.04066129  0.58346433  0.10205150  1
  P  P197  1  0.04224677  0.58241205  0.35253034  1
  P  P198  1  0.04310522  0.58323724  0.60399371  1
  P  P199  1  0.04177222  0.58288051  0.85361774  1
  P  P200  1  0.04192878  0.91545515  0.10246350  1
  P  P201  1  0.04202006  0.91517236  0.35290470  1
  P  P202  1  0.04090901  0.91674300  0.60169492  1
  P  P203  1  0.04044939  0.91645289  0.85131849  1
  P  P204  1  0.54286173  0.24934645  0.10345090  1
  P  P205  1  0.54201066  0.24829972  0.35250538  1
  P  P206  1  0.54274325  0.25112008  0.60254472  1
  P  P207  1  0.54253201  0.24884413  0.85222739  1
  P  P208  1  0.54107929  0.58313903  0.10109133  1
  P  P209  1  0.54317522  0.58299515  0.35356906  1
  P  P210  1  0.54274004  0.58549704  0.60310568  1
  P  P211  1  0.54199841  0.58489157  0.85341889  1
  P  P212  1  0.54202698  0.91511327  0.10243305  1
  P  P213  1  0.54320611  0.91612912  0.35400202  1
  P  P214  1  0.54178578  0.91789069  0.60324839  1
  P  P215  1  0.54205228  0.91449997  0.85304859  1
  P  P216  1  0.45735984  0.08375342  0.14769139  1
  P  P217  1  0.45806272  0.08165612  0.39748386  1
  P  P218  1  0.45768030  0.08439897  0.64722684  1
  P  P219  1  0.45691522  0.08305727  0.89603427  1
  P  P220  1  0.45719414  0.41711803  0.14597543  1
  P  P221  1  0.45795372  0.41466098  0.39741825  1
  P  P222  1  0.45706084  0.41679682  0.64599737  1
  P  P223  1  0.45759855  0.41799236  0.89726203  1
  P  P224  1  0.45700533  0.74956887  0.14616006  1
  P  P225  1  0.45737762  0.74822090  0.39822519  1
  P  P226  1  0.45850521  0.74995207  0.64890126  1
  P  P227  1  0.45814952  0.74998798  0.89820270  1
  P  P228  1  0.95744759  0.08468573  0.14782753  1
  P  P229  1  0.95929804  0.08343119  0.39802178  1
  P  P230  1  0.95846167  0.08240274  0.64625933  1
  P  P231  1  0.95703034  0.08358024  0.89595105  1
  P  P232  1  0.95906326  0.41743721  0.14895801  1
  P  P233  1  0.95831718  0.41510432  0.39681912  1
  P  P234  1  0.95904139  0.41645177  0.64845211  1
  P  P235  1  0.95789257  0.41870392  0.89768711  1
  P  P236  1  0.95821360  0.75148282  0.14671909  1
  P  P237  1  0.95785207  0.75137852  0.39730815  1
  P  P238  1  0.95790807  0.75177728  0.64728961  1
  P  P239  1  0.95833754  0.75068396  0.89848977  1
  P  P240  1  0.20769381  0.08116316  0.22781563  1
  P  P241  1  0.20867090  0.08208289  0.47602049  1
  P  P242  1  0.20701194  0.08101244  0.72671038  1
  P  P243  1  0.20687312  0.08124852  0.97692342  1
  P  P244  1  0.20802192  0.41817684  0.22738818  1
  P  P245  1  0.20726833  0.41775058  0.47630020  1
  P  P246  1  0.20729319  0.41706078  0.72813552  1
  P  P247  1  0.20798502  0.41898141  0.97770797  1
  P  P248  1  0.20744444  0.74813766  0.22797025  1
  P  P249  1  0.20787848  0.74913974  0.47780050  1
  P  P250  1  0.20802709  0.75172299  0.72807805  1
  P  P251  1  0.20739230  0.75144107  0.97797345  1
  P  P252  1  0.70800180  0.08288839  0.22821518  1
  P  P253  1  0.70840610  0.08412361  0.47792521  1
  P  P254  1  0.70770801  0.08261805  0.72758194  1
  P  P255  1  0.70706976  0.08335947  0.97922463  1
  P  P256  1  0.70893102  0.41619015  0.22707173  1
  P  P257  1  0.70794017  0.41558319  0.47681992  1
  P  P258  1  0.70740364  0.41678626  0.72864661  1
  P  P259  1  0.70809485  0.41563069  0.97879496  1
  P  P260  1  0.70863969  0.74974556  0.22691500  1
  P  P261  1  0.70838336  0.74922424  0.47767105  1
  P  P262  1  0.70796542  0.75142566  0.72753306  1
  P  P263  1  0.70790556  0.75015895  0.97981748  1
  P  P264  1  0.29275657  0.24969834  0.02115248  1
  P  P265  1  0.29178656  0.24798074  0.27177079  1
  P  P266  1  0.29207470  0.24904032  0.52013657  1
  P  P267  1  0.29258051  0.24930275  0.77102590  1
  P  P268  1  0.29058195  0.58396589  0.02337669  1
  P  P269  1  0.29125414  0.58327170  0.27279698  1
  P  P270  1  0.29280638  0.58357169  0.52098473  1
  P  P271  1  0.29261737  0.58283386  0.77304843  1
  P  P272  1  0.29151404  0.91763781  0.02180188  1
  P  P273  1  0.29223968  0.91726661  0.27229926  1
  P  P274  1  0.29112823  0.91628860  0.52314400  1
  P  P275  1  0.29064663  0.91615792  0.77273979  1
  P  P276  1  0.79285630  0.25204610  0.02292255  1
  P  P277  1  0.79152044  0.25022577  0.27346831  1
  P  P278  1  0.79308376  0.24994286  0.52087705  1
  P  P279  1  0.79265544  0.25144829  0.77316464  1
  P  P280  1  0.79137855  0.58350176  0.02418385  1
  P  P281  1  0.79211983  0.58501302  0.27155453  1
  P  P282  1  0.79366624  0.58350215  0.52116051  1
  P  P283  1  0.79361052  0.58382532  0.77237158  1
  P  P284  1  0.79163051  0.91729379  0.02441666  1
  P  P285  1  0.79311899  0.91687285  0.27108146  1
  P  P286  1  0.79154994  0.91694485  0.52365493  1
  P  P287  1  0.79224686  0.91700736  0.77116216  1
  O  O288  1  0.03754288  0.24974434  0.18394244  1
  O  O289  1  0.03646044  0.24992748  0.43193310  1
  O  O290  1  0.03730870  0.25009051  0.68107258  1
  O  O291  1  0.03777271  0.25168990  0.93199545  1
  O  O292  1  0.03601693  0.58354428  0.18205624  1
  O  O293  1  0.03743412  0.58253389  0.43249228  1
  O  O294  1  0.03754496  0.58295181  0.68393625  1
  O  O295  1  0.03603333  0.58314137  0.93349181  1
  O  O296  1  0.03694443  0.91541400  0.18243242  1
  O  O297  1  0.03643038  0.91552468  0.43277042  1
  O  O298  1  0.03573400  0.91720792  0.68157519  1
  O  O299  1  0.03570413  0.91651102  0.93129683  1
  O  O300  1  0.53754083  0.24867529  0.18341305  1
  O  O301  1  0.53691252  0.24928001  0.43247141  1
  O  O302  1  0.53736583  0.25044154  0.68247332  1
  O  O303  1  0.53734428  0.24915396  0.93221638  1
  O  O304  1  0.53674453  0.58278086  0.18115693  1
  O  O305  1  0.53841739  0.58349003  0.43355311  1
  O  O306  1  0.53723981  0.58579271  0.68307233  1
  O  O307  1  0.53627042  0.58439006  0.93332289  1
  O  O308  1  0.53730549  0.91542670  0.18245179  1
  O  O309  1  0.53797886  0.91662418  0.43398807  1
  O  O310  1  0.53656417  0.91731865  0.68316794  1
  O  O311  1  0.53667686  0.91422150  0.93299920  1
  O  O312  1  0.46210673  0.08331842  0.06768091  1
  O  O313  1  0.46324845  0.08217600  0.31754223  1
  O  O314  1  0.46309882  0.08350658  0.56726494  1
  O  O315  1  0.46236705  0.08357915  0.81609364  1
  O  O316  1  0.46249524  0.41805136  0.06600904  1
  O  O317  1  0.46292090  0.41480485  0.31738123  1
  O  O318  1  0.46272163  0.41613461  0.56606501  1
  O  O319  1  0.46243211  0.41796190  0.81724809  1
  O  O320  1  0.46225179  0.74978320  0.06621725  1
  O  O321  1  0.46221616  0.74839366  0.31822769  1
  O  O322  1  0.46360446  0.74959098  0.56893858  1
  O  O323  1  0.46342333  0.74994753  0.81829886  1
  O  O324  1  0.96232485  0.08437250  0.06782525  1
  O  O325  1  0.96388225  0.08388375  0.31803321  1
  O  O326  1  0.96360911  0.08224780  0.56635307  1
  O  O327  1  0.96240521  0.08318262  0.81598217  1
  O  O328  1  0.96355705  0.41791587  0.06896159  1
  O  O329  1  0.96377730  0.41563703  0.31697155  1
  O  O330  1  0.96438466  0.41559719  0.56849217  1
  O  O331  1  0.96300609  0.41867041  0.81783853  1
  O  O332  1  0.96357766  0.75132663  0.06684269  1
  O  O333  1  0.96323552  0.75134834  0.31733475  1
  O  O334  1  0.96327873  0.75172931  0.56736212  1
  O  O335  1  0.96295857  0.75034463  0.81848857  1
  O  O336  1  0.21227805  0.08097235  0.05690261  1
  O  O337  1  0.21342734  0.08161380  0.30769622  1
  O  O338  1  0.21333036  0.08203015  0.55601446  1
  O  O339  1  0.21178983  0.08102865  0.80670706  1
  O  O340  1  0.21338957  0.41909828  0.05769928  1
  O  O341  1  0.21326632  0.41816148  0.30733041  1
  O  O342  1  0.21230886  0.41716103  0.55630334  1
  O  O343  1  0.21256784  0.41744587  0.80811567  1
  O  O344  1  0.21223896  0.75093543  0.05793504  1
  O  O345  1  0.21287168  0.74776071  0.30791495  1
  O  O346  1  0.21311606  0.75012247  0.55778712  1
  O  O347  1  0.21311522  0.75206524  0.80806035  1
  O  O348  1  0.71237438  0.08305658  0.05920507  1
  O  O349  1  0.71366763  0.08363329  0.30814949  1
  O  O350  1  0.71356429  0.08359410  0.55789420  1
  O  O351  1  0.71248022  0.08313413  0.80760364  1
  O  O352  1  0.71350537  0.41587915  0.05872226  1
  O  O353  1  0.71383713  0.41624455  0.30706425  1
  O  O354  1  0.71285881  0.41588461  0.55681345  1
  O  O355  1  0.71236993  0.41645246  0.80867852  1
  O  O356  1  0.71313260  0.74997284  0.05973525  1
  O  O357  1  0.71372411  0.74944920  0.30690650  1
  O  O358  1  0.71382627  0.75015880  0.55761948  1
  O  O359  1  0.71270903  0.75130413  0.80757501  1
  O  O360  1  0.28695493  0.24813507  0.19178389  1
  O  O361  1  0.28668509  0.24859801  0.44017046  1
  O  O362  1  0.28737490  0.24922944  0.69099071  1
  O  O363  1  0.28748075  0.24967343  0.94118233  1
  O  O364  1  0.28585790  0.58346612  0.19284124  1
  O  O365  1  0.28744204  0.58363339  0.44103454  1
  O  O366  1  0.28788804  0.58323983  0.69306245  1
  O  O367  1  0.28583635  0.58358818  0.94340310  1
  O  O368  1  0.28689328  0.91736244  0.19236877  1
  O  O369  1  0.28645877  0.91654828  0.44314619  1
  O  O370  1  0.28564754  0.91562072  0.69279910  1
  O  O371  1  0.28586389  0.91721272  0.94191573  1
  O  O372  1  0.78672883  0.25055906  0.19345283  1
  O  O373  1  0.78763228  0.24974157  0.44096359  1
  O  O374  1  0.78774923  0.25080727  0.69312963  1
  O  O375  1  0.78746540  0.25218379  0.94298657  1
  O  O376  1  0.78633978  0.58469074  0.19166734  1
  O  O377  1  0.78837642  0.58385466  0.44116247  1
  O  O378  1  0.78896009  0.58375219  0.69234084  1
  O  O379  1  0.78698362  0.58306299  0.94414328  1
  O  O380  1  0.78774976  0.91712373  0.19121247  1
  O  O381  1  0.78699164  0.91660526  0.44358367  1
  O  O382  1  0.78675650  0.91692752  0.69124344  1
  O  O383  1  0.78689704  0.91691932  0.94435443  1
  O  O384  1  0.22844399  0.24972944  0.05639225  1
  O  O385  1  0.22749747  0.24846681  0.30708893  1
  O  O386  1  0.22781722  0.24881979  0.55564081  1
  O  O387  1  0.22820978  0.24968826  0.80614098  1
  O  O388  1  0.22641979  0.58408338  0.05928670  1
  O  O389  1  0.22722364  0.58319971  0.30923253  1
  O  O390  1  0.22863471  0.58399953  0.55670378  1
  O  O391  1  0.22820587  0.58262640  0.80830608  1
  O  O392  1  0.22745676  0.91780437  0.05815038  1
  O  O393  1  0.22800575  0.91726999  0.30800124  1
  O  O394  1  0.22683425  0.91582341  0.55881160  1
  O  O395  1  0.22651976  0.91625388  0.80896064  1
  O  O396  1  0.72860897  0.25192017  0.05867274  1
  O  O397  1  0.72738708  0.24994914  0.30934761  1
  O  O398  1  0.72890117  0.24961424  0.55661026  1
  O  O399  1  0.72826263  0.25208601  0.80856253  1
  O  O400  1  0.72706134  0.58381819  0.05947811  1
  O  O401  1  0.72814894  0.58512599  0.30807497  1
  O  O402  1  0.72935538  0.58360821  0.55654908  1
  O  O403  1  0.72906981  0.58355406  0.80708379  1
  O  O404  1  0.72740622  0.91779190  0.06003503  1
  O  O405  1  0.72899760  0.91689686  0.30686140  1
  O  O406  1  0.72730774  0.91701839  0.55923403  1
  O  O407  1  0.72807804  0.91681480  0.80700723  1
  O  O408  1  0.27175374  0.08055823  0.19144461  1
  O  O409  1  0.27284623  0.08200640  0.44021947  1
  O  O410  1  0.27142388  0.08089476  0.69143381  1
  O  O411  1  0.27106902  0.08098997  0.94107439  1
  O  O412  1  0.27216647  0.41845784  0.19153115  1
  O  O413  1  0.27159465  0.41797920  0.44088798  1
  O  O414  1  0.27159395  0.41634848  0.69273899  1
  O  O415  1  0.27216273  0.41903976  0.94178942  1
  O  O416  1  0.27160013  0.74813201  0.19206785  1
  O  O417  1  0.27208701  0.74839715  0.44206148  1
  O  O418  1  0.27228817  0.75205862  0.69241694  1
  O  O419  1  0.27169008  0.75169745  0.94242422  1
  O  O420  1  0.77216232  0.08223638  0.19224757  1
  O  O421  1  0.77266175  0.08490850  0.44225224  1
  O  O422  1  0.77213659  0.08159855  0.69236985  1
  O  O423  1  0.77139650  0.08387012  0.94392817  1
  O  O424  1  0.77312739  0.41614233  0.19130516  1
  O  O425  1  0.77231183  0.41568852  0.44154159  1
  O  O426  1  0.77191272  0.41685127  0.69370695  1
  O  O427  1  0.77226716  0.41511613  0.94267133  1
  O  O428  1  0.77273024  0.74943914  0.19096570  1
  O  O429  1  0.77258534  0.74849709  0.44173032  1
  O  O430  1  0.77242977  0.75193214  0.69244649  1
  O  O431  1  0.77216573  0.75022187  0.94420539  1
  O  O432  1  0.02181016  0.08498461  0.18325804  1
  O  O433  1  0.02344106  0.08281306  0.43379411  1
  O  O434  1  0.02248348  0.08265006  0.68244448  1
  O  O435  1  0.02131718  0.08316907  0.93142414  1
  O  O436  1  0.02325299  0.41741547  0.18461714  1
  O  O437  1  0.02240906  0.41466581  0.43310527  1
  O  O438  1  0.02303042  0.41669039  0.68487343  1
  O  O439  1  0.02214117  0.41933253  0.93364080  1
  O  O440  1  0.02224703  0.75153033  0.18311045  1
  O  O441  1  0.02203870  0.75187302  0.43324881  1
  O  O442  1  0.02205317  0.75184226  0.68327636  1
  O  O443  1  0.02255200  0.75099012  0.93423776  1
  O  O444  1  0.52184292  0.08434202  0.18290606  1
  O  O445  1  0.52227273  0.08145520  0.43330451  1
  O  O446  1  0.52187343  0.08460443  0.68315493  1
  O  O447  1  0.52117503  0.08238731  0.93149962  1
  O  O448  1  0.52155544  0.41626424  0.18123522  1
  O  O449  1  0.52227630  0.41476348  0.43291076  1
  O  O450  1  0.52125520  0.41717888  0.68167114  1
  O  O451  1  0.52196928  0.41821393  0.93256279  1
  O  O452  1  0.52138516  0.74948010  0.18159650  1
  O  O453  1  0.52182351  0.74857420  0.43343339  1
  O  O454  1  0.52264865  0.75013337  0.68503677  1
  O  O455  1  0.52214812  0.74955831  0.93470002  1
  O  O456  1  0.47853560  0.24996824  0.06816295  1
  O  O457  1  0.47774071  0.24759652  0.31675751  1
  O  O458  1  0.47849900  0.25143724  0.56666779  1
  O  O459  1  0.47818461  0.24837270  0.81668418  1
  O  O460  1  0.47673971  0.58338698  0.06573789  1
  O  O461  1  0.47860692  0.58267279  0.31879667  1
  O  O462  1  0.47856615  0.58508074  0.56711745  1
  O  O463  1  0.47791512  0.58556280  0.81709063  1
  O  O464  1  0.47764453  0.91448360  0.06708002  1
  O  O465  1  0.47879898  0.91616796  0.31885073  1
  O  O466  1  0.47756788  0.91798921  0.56740079  1
  O  O467  1  0.47782046  0.91474355  0.81726777  1
  O  O468  1  0.97868535  0.25074814  0.06830271  1
  O  O469  1  0.97722891  0.24912803  0.31575201  1
  O  O470  1  0.97779257  0.25056401  0.56529181  1
  O  O471  1  0.97835663  0.25173119  0.81654079  1
  O  O472  1  0.97648673  0.58303888  0.06623543  1
  O  O473  1  0.97791215  0.58247458  0.31710281  1
  O  O474  1  0.97892209  0.58339242  0.56828682  1
  O  O475  1  0.97782918  0.58268584  0.81706561  1
  O  O476  1  0.97758832  0.91508253  0.06689997  1
  O  O477  1  0.97798161  0.91505883  0.31653181  1
  O  O478  1  0.97689269  0.91660624  0.56526821  1
  O  O479  1  0.97634686  0.91624987  0.81534688  1
  O  O480  1  0.07425001  0.31378016  0.07611675  1
  O  O481  1  0.07176106  0.31323963  0.32309547  1
  O  O482  1  0.07331323  0.31336387  0.57272544  1
  O  O483  1  0.07320781  0.31543130  0.82364533  1
  O  O484  1  0.07070218  0.64758512  0.07352575  1
  O  O485  1  0.07329227  0.64600042  0.32473414  1
  O  O486  1  0.07412820  0.64693367  0.57625590  1
  O  O487  1  0.07305291  0.64650530  0.82580102  1
  O  O488  1  0.07232795  0.97951521  0.07462994  1
  O  O489  1  0.07313677  0.97876538  0.32484703  1
  O  O490  1  0.07172321  0.98020804  0.57271262  1
  O  O491  1  0.07081128  0.98025971  0.82267064  1
  O  O492  1  0.57394258  0.31298798  0.07562139  1
  O  O493  1  0.57306099  0.31163578  0.32405893  1
  O  O494  1  0.57341113  0.31473653  0.57417554  1
  O  O495  1  0.57321468  0.31277993  0.82473756  1
  O  O496  1  0.57185647  0.64686031  0.07316646  1
  O  O497  1  0.57409044  0.64616316  0.32451225  1
  O  O498  1  0.57345016  0.64890034  0.57438188  1
  O  O499  1  0.57328920  0.64829024  0.82528548  1
  O  O500  1  0.57248999  0.97901800  0.07450898  1
  O  O501  1  0.57466268  0.97909244  0.32528383  1
  O  O502  1  0.57239347  0.98156408  0.57492038  1
  O  O503  1  0.57321301  0.97821828  0.82554812  1
  O  O504  1  0.42683103  0.01988514  0.17561122  1
  O  O505  1  0.42749390  0.01800854  0.42604228  1
  O  O506  1  0.42623338  0.02117196  0.67539726  1
  O  O507  1  0.42576545  0.01937720  0.92370786  1
  O  O508  1  0.42577164  0.35354640  0.17343530  1
  O  O509  1  0.42732014  0.35100332  0.42559005  1
  O  O510  1  0.42572116  0.35369686  0.67453672  1
  O  O511  1  0.42670385  0.35426035  0.92492282  1
  O  O512  1  0.42597300  0.68606742  0.17447092  1
  O  O513  1  0.42701710  0.68469156  0.42693189  1
  O  O514  1  0.42747422  0.68665114  0.67748869  1
  O  O515  1  0.42685223  0.68660132  0.92657410  1
  O  O516  1  0.92682580  0.02089461  0.17579394  1
  O  O517  1  0.92815801  0.01975847  0.42582972  1
  O  O518  1  0.92793906  0.01888182  0.67541929  1
  O  O519  1  0.92541416  0.02058918  0.92448525  1
  O  O520  1  0.92870308  0.35341603  0.17712486  1
  O  O521  1  0.92731470  0.35171295  0.42536215  1
  O  O522  1  0.92815717  0.35292019  0.67698703  1
  O  O523  1  0.92739563  0.35487777  0.92605595  1
  O  O524  1  0.92705164  0.68786964  0.17467259  1
  O  O525  1  0.92734402  0.68736448  0.42500938  1
  O  O526  1  0.92691546  0.68809466  0.67509281  1
  O  O527  1  0.92810598  0.68677991  0.92730370  1
  O  O528  1  0.17638883  0.01782574  0.19948114  1
  O  O529  1  0.17752985  0.01859603  0.44786760  1
  O  O530  1  0.17625419  0.01766251  0.69771111  1
  O  O531  1  0.17559891  0.01821715  0.94799203  1
  O  O532  1  0.17726392  0.35425497  0.19969923  1
  O  O533  1  0.17630073  0.35417911  0.44813126  1
  O  O534  1  0.17601523  0.35364110  0.69991073  1
  O  O535  1  0.17704620  0.35505727  0.95021045  1
  O  O536  1  0.17628656  0.68507843  0.19892475  1
  O  O537  1  0.17681189  0.68559698  0.44976530  1
  O  O538  1  0.17744181  0.68758407  0.70065292  1
  O  O539  1  0.17636294  0.68797163  0.94962225  1
  O  O540  1  0.67688770  0.01932802  0.20024126  1
  O  O541  1  0.67750185  0.02047986  0.44989309  1
  O  O542  1  0.67645152  0.01935873  0.69915316  1
  O  O543  1  0.67601635  0.02005279  0.95065687  1
  O  O544  1  0.67770456  0.35283033  0.19885504  1
  O  O545  1  0.67746236  0.35193959  0.44820315  1
  O  O546  1  0.67615243  0.35363166  0.69998354  1
  O  O547  1  0.67692912  0.35240894  0.95001645  1
  O  O548  1  0.67701677  0.68667649  0.19852530  1
  O  O549  1  0.67753372  0.68563336  0.44945166  1
  O  O550  1  0.67738313  0.68757067  0.69964580  1
  O  O551  1  0.67682035  0.68680798  0.95110523  1
  O  O552  1  0.32375549  0.31325215  0.04919094  1
  O  O553  1  0.32335939  0.31146004  0.29927761  1
  O  O554  1  0.32278334  0.31290183  0.54799745  1
  O  O555  1  0.32396568  0.31259340  0.79913134  1
  O  O556  1  0.32113763  0.64792791  0.05138904  1
  O  O557  1  0.32217455  0.64683917  0.30130150  1
  O  O558  1  0.32424540  0.64667007  0.54981305  1
  O  O559  1  0.32326815  0.64664090  0.80111686  1
  O  O560  1  0.32263126  0.98099690  0.05027582  1
  O  O561  1  0.32335386  0.98030113  0.30134866  1
  O  O562  1  0.32159572  0.97999505  0.55184930  1
  O  O563  1  0.32151172  0.97993907  0.80078878  1
  O  O564  1  0.82386521  0.31519047  0.05197689  1
  O  O565  1  0.82221433  0.31396407  0.30177777  1
  O  O566  1  0.82406109  0.31345922  0.54933127  1
  O  O567  1  0.82348753  0.31496772  0.80139189  1
  O  O568  1  0.82253451  0.64700138  0.05208345  1
  O  O569  1  0.82310928  0.64843490  0.30010886  1
  O  O570  1  0.82516715  0.64655247  0.54970740  1
  O  O571  1  0.82420106  0.64754378  0.80072234  1
  O  O572  1  0.82279744  0.98087523  0.05216297  1
  O  O573  1  0.82455069  0.98002190  0.29981921  1
  O  O574  1  0.82220778  0.98077607  0.55158358  1
  O  O575  1  0.82333060  0.98044636  0.79963718  1
  O  O576  1  0.42655565  0.14717466  0.17627853  1
  O  O577  1  0.42673671  0.14504840  0.42545982  1
  O  O578  1  0.42719204  0.14837526  0.67505061  1
  O  O579  1  0.42579829  0.14627221  0.92460075  1
  O  O580  1  0.42629130  0.48026097  0.17519109  1
  O  O581  1  0.42688261  0.47830147  0.42513060  1
  O  O582  1  0.42597456  0.48055907  0.67360238  1
  O  O583  1  0.42689486  0.48157726  0.92574942  1
  O  O584  1  0.42584080  0.81276941  0.17504426  1
  O  O585  1  0.42623801  0.81184945  0.42610952  1
  O  O586  1  0.42789334  0.81396249  0.67681225  1
  O  O587  1  0.42745276  0.81373167  0.92655513  1
  O  O588  1  0.92656611  0.14807893  0.17634142  1
  O  O589  1  0.92883499  0.14707640  0.42690060  1
  O  O590  1  0.92685735  0.14582950  0.67408047  1
  O  O591  1  0.92650238  0.14749197  0.92394570  1
  O  O592  1  0.92795005  0.48075886  0.17761502  1
  O  O593  1  0.92726946  0.47867705  0.42514735  1
  O  O594  1  0.92826788  0.48040987  0.67599052  1
  O  O595  1  0.92650360  0.48171238  0.92681992  1
  O  O596  1  0.92726222  0.81479534  0.17552463  1
  O  O597  1  0.92648586  0.81449324  0.42590077  1
  O  O598  1  0.92689889  0.81508443  0.67586601  1
  O  O599  1  0.92709947  0.81410465  0.92661313  1
  O  O600  1  0.07393709  0.18703167  0.07496452  1
  O  O601  1  0.07248964  0.18602675  0.32377689  1
  O  O602  1  0.07211334  0.18606488  0.57244730  1
  O  O603  1  0.07377269  0.18820568  0.82406185  1
  O  O604  1  0.07213601  0.52029030  0.07377596  1
  O  O605  1  0.07271760  0.51879831  0.32384950  1
  O  O606  1  0.07434153  0.52001270  0.57551122  1
  O  O607  1  0.07284500  0.51960435  0.82486676  1
  O  O608  1  0.07320157  0.85244978  0.07353572  1
  O  O609  1  0.07309354  0.85183337  0.32434246  1
  O  O610  1  0.07199539  0.85313239  0.57361726  1
  O  O611  1  0.07157025  0.85294952  0.82309290  1
  O  O612  1  0.57399167  0.18611044  0.07492406  1
  O  O613  1  0.57270027  0.18446449  0.32455259  1
  O  O614  1  0.57393566  0.18766289  0.57437317  1
  O  O615  1  0.57337101  0.18536580  0.82382566  1
  O  O616  1  0.57168343  0.51943759  0.07263284  1
  O  O617  1  0.57407043  0.51933356  0.32535642  1
  O  O618  1  0.57398892  0.52175887  0.57568368  1
  O  O619  1  0.57295779  0.52133433  0.82504039  1
  O  O620  1  0.57302410  0.85171608  0.07413623  1
  O  O621  1  0.57391636  0.85229800  0.32599525  1
  O  O622  1  0.57306314  0.85447133  0.57516561  1
  O  O623  1  0.57292764  0.85122492  0.82413494  1
  O  O624  1  0.32377735  0.18615777  0.04909637  1
  O  O625  1  0.32194182  0.18419820  0.30046182  1
  O  O626  1  0.32366046  0.18601163  0.54856165  1
  O  O627  1  0.32325750  0.18559913  0.79899394  1
  O  O628  1  0.32158887  0.52063290  0.05205257  1
  O  O629  1  0.32225175  0.51959132  0.30088130  1
  O  O630  1  0.32374542  0.51997275  0.54911182  1
  O  O631  1  0.32331989  0.51937244  0.80150617  1
  O  O632  1  0.32265827  0.85416064  0.05009130  1
  O  O633  1  0.32311894  0.85335402  0.29989851  1
  O  O634  1  0.32210967  0.85270718  0.55132648  1
  O  O635  1  0.32160077  0.85285905  0.80189181  1
  O  O636  1  0.82385276  0.18822241  0.05050784  1
  O  O637  1  0.82237500  0.18650858  0.30150803  1
  O  O638  1  0.82457469  0.18685954  0.54958046  1
  O  O639  1  0.82326132  0.18761797  0.80109213  1
  O  O640  1  0.82162802  0.51960754  0.05279797  1
  O  O641  1  0.82342210  0.52141879  0.29927886  1
  O  O642  1  0.82437287  0.51966543  0.54909491  1
  O  O643  1  0.82470224  0.52058449  0.80084794  1
  O  O644  1  0.82176779  0.85325290  0.05272865  1
  O  O645  1  0.82418607  0.85340891  0.29942295  1
  O  O646  1  0.82216154  0.85318267  0.55182352  1
  O  O647  1  0.82359099  0.85382597  0.79984949  1
  O  O648  1  0.17676854  0.14478212  0.19953643  1
  O  O649  1  0.17831991  0.14597209  0.44744009  1
  O  O650  1  0.17617131  0.14473596  0.69867399  1
  O  O651  1  0.17613344  0.14527274  0.94944855  1
  O  O652  1  0.17682451  0.48141694  0.19891835  1
  O  O653  1  0.17657567  0.48140820  0.44826075  1
  O  O654  1  0.17651115  0.48057463  0.69980680  1
  O  O655  1  0.17702998  0.48229031  0.94908126  1
  O  O656  1  0.17663864  0.81210101  0.20059149  1
  O  O657  1  0.17697580  0.81259325  0.44925936  1
  O  O658  1  0.17668741  0.81459335  0.69891341  1
  O  O659  1  0.17671106  0.81497020  0.94940653  1
  O  O660  1  0.67702736  0.14637984  0.20005306  1
  O  O661  1  0.67742270  0.14754047  0.44938332  1
  O  O662  1  0.67743719  0.14654735  0.69947652  1
  O  O663  1  0.67600317  0.14696006  0.95128911  1
  O  O664  1  0.67855620  0.48021762  0.19874848  1
  O  O665  1  0.67672367  0.47907171  0.44901700  1
  O  O666  1  0.67669179  0.48048669  0.70034520  1
  O  O667  1  0.67729567  0.47939349  0.95066710  1
  O  O668  1  0.67852501  0.81398949  0.19886158  1
  O  O669  1  0.67740543  0.81276629  0.44947160  1
  O  O670  1  0.67709399  0.81472470  0.69871967  1
  O  O671  1  0.67675531  0.81355779  0.95151952  1
