# generated using pymatgen
data_Na2MnFe(PO4)2
_symmetry_space_group_name_H-M   'P 1'
_cell_length_a   22.33870465
_cell_length_b   20.09071632
_cell_length_c   19.45416427
_cell_angle_alpha   89.90706712
_cell_angle_beta   90.05218687
_cell_angle_gamma   89.95545172
_symmetry_Int_Tables_number   1
_chemical_formula_structural   Na2MnFe(PO4)2
_chemical_formula_sum   'Na96 Mn48 Fe48 P96 O384'
_cell_volume   8731.02241906
_cell_formula_units_Z   48
loop_
 _symmetry_equiv_pos_site_id
 _symmetry_equiv_pos_as_xyz
  1  'x, y, z'
loop_
 _atom_site_type_symbol
 _atom_site_label
 _atom_site_symmetry_multiplicity
 _atom_site_fract_x
 _atom_site_fract_y
 _atom_site_fract_z
 _atom_site_occupancy
  Na  Na0  1  0.14061807  0.25081837  0.24367431  1
  Na  Na1  1  0.14049550  0.24964788  0.49293563  1
  Na  Na2  1  0.14028585  0.25142162  0.74387142  1
  Na  Na3  1  0.14019538  0.25049767  0.99219046  1
  Na  Na4  1  0.13973790  0.58378190  0.24218962  1
  Na  Na5  1  0.14034343  0.58283848  0.49343272  1
  Na  Na6  1  0.14023636  0.58459646  0.74190908  1
  Na  Na7  1  0.13983947  0.58337890  0.99193741  1
  Na  Na8  1  0.14062379  0.91739284  0.24342286  1
  Na  Na9  1  0.14047179  0.91621435  0.49442541  1
  Na  Na10  1  0.14060093  0.91699219  0.74352799  1
  Na  Na11  1  0.14034875  0.91716606  0.99312658  1
  Na  Na12  1  0.64045256  0.24926042  0.24525342  1
  Na  Na13  1  0.64037209  0.24855303  0.49410970  1
  Na  Na14  1  0.63995215  0.24997892  0.74473777  1
  Na  Na15  1  0.64009731  0.25079734  0.99487998  1
  Na  Na16  1  0.63921132  0.58314027  0.24309887  1
  Na  Na17  1  0.64001662  0.58375315  0.49398990  1
  Na  Na18  1  0.63989108  0.58482785  0.74406439  1
  Na  Na19  1  0.63957784  0.58354521  0.99398790  1
  Na  Na20  1  0.63996400  0.91774559  0.24510965  1
  Na  Na21  1  0.63996960  0.91702790  0.49349108  1
  Na  Na22  1  0.63995867  0.91718248  0.74313205  1
  Na  Na23  1  0.63983444  0.91639761  0.99493552  1
  Na  Na24  1  0.35934517  0.08233524  0.00690567  1
  Na  Na25  1  0.35945524  0.08303348  0.25636941  1
  Na  Na26  1  0.35931402  0.08149090  0.50667846  1
  Na  Na27  1  0.35916459  0.08371146  0.75660499  1
  Na  Na28  1  0.35970268  0.41662433  0.00666857  1
  Na  Na29  1  0.35956532  0.41774794  0.25612740  1
  Na  Na30  1  0.35916392  0.41638597  0.50633010  1
  Na  Na31  1  0.35904157  0.41749954  0.75668834  1
  Na  Na32  1  0.35920938  0.74930186  0.00641203  1
  Na  Na33  1  0.35916136  0.75024139  0.25683512  1
  Na  Na34  1  0.35996154  0.74894943  0.50790612  1
  Na  Na35  1  0.36018530  0.75008282  0.75663427  1
  Na  Na36  1  0.86027823  0.08338808  0.00703262  1
  Na  Na37  1  0.86013325  0.08330945  0.25609460  1
  Na  Na38  1  0.86048583  0.08226568  0.50674516  1
  Na  Na39  1  0.86048006  0.08338044  0.75553442  1
  Na  Na40  1  0.86069805  0.41684656  0.00662960  1
  Na  Na41  1  0.86014728  0.41552338  0.25558390  1
  Na  Na42  1  0.86008619  0.41508001  0.50640595  1
  Na  Na43  1  0.86067272  0.41651424  0.75643647  1
  Na  Na44  1  0.86024588  0.74958454  0.00573575  1
  Na  Na45  1  0.85995789  0.75042359  0.25547733  1
  Na  Na46  1  0.86015020  0.74951255  0.50563732  1
  Na  Na47  1  0.86016159  0.75040907  0.75536383  1
  Na  Na48  1  0.10968679  0.08414305  0.11751272  1
  Na  Na49  1  0.11006527  0.08264351  0.36934964  1
  Na  Na50  1  0.10982701  0.08410435  0.61829383  1
  Na  Na51  1  0.10981374  0.08485227  0.86908816  1
  Na  Na52  1  0.10958133  0.41792035  0.11738348  1
  Na  Na53  1  0.11022682  0.41695228  0.36758003  1
  Na  Na54  1  0.10980288  0.41710716  0.61781727  1
  Na  Na55  1  0.10929395  0.41745974  0.86770604  1
  Na  Na56  1  0.10960897  0.74967886  0.11707491  1
  Na  Na57  1  0.10960351  0.74846129  0.36887041  1
  Na  Na58  1  0.11038689  0.74995496  0.61835994  1
  Na  Na59  1  0.11018504  0.74975476  0.86748858  1
  Na  Na60  1  0.60905625  0.08320186  0.12018516  1
  Na  Na61  1  0.60982147  0.08267027  0.36955811  1
  Na  Na62  1  0.60937493  0.08366724  0.61768552  1
  Na  Na63  1  0.60904930  0.08221949  0.86967675  1
  Na  Na64  1  0.60897253  0.41734632  0.11864863  1
  Na  Na65  1  0.60895481  0.41696012  0.36904751  1
  Na  Na66  1  0.60886068  0.41743818  0.61930809  1
  Na  Na67  1  0.60903791  0.41755716  0.87048947  1
  Na  Na68  1  0.60881223  0.75008598  0.11910466  1
  Na  Na69  1  0.60878067  0.75019888  0.36905226  1
  Na  Na70  1  0.60920094  0.75114009  0.61841722  1
  Na  Na71  1  0.60913963  0.74974498  0.86937361  1
  Na  Na72  1  0.39034035  0.25071670  0.13100344  1
  Na  Na73  1  0.39014265  0.24977057  0.38211675  1
  Na  Na74  1  0.38978096  0.25009175  0.63166021  1
  Na  Na75  1  0.38979843  0.25018696  0.88269726  1
  Na  Na76  1  0.38999600  0.58307296  0.13113889  1
  Na  Na77  1  0.38995870  0.58284349  0.38157274  1
  Na  Na78  1  0.38984251  0.58502129  0.63174366  1
  Na  Na79  1  0.39008426  0.58369169  0.88174173  1
  Na  Na80  1  0.38932038  0.91598432  0.13201334  1
  Na  Na81  1  0.39008842  0.91595650  0.38195163  1
  Na  Na82  1  0.39033052  0.91531435  0.63156117  1
  Na  Na83  1  0.39023277  0.91437186  0.88184453  1
  Na  Na84  1  0.89099336  0.25110450  0.13105038  1
  Na  Na85  1  0.89116626  0.24873098  0.38231921  1
  Na  Na86  1  0.89101320  0.24963356  0.63081937  1
  Na  Na87  1  0.89122387  0.25073818  0.88190458  1
  Na  Na88  1  0.89118038  0.58331131  0.13024864  1
  Na  Na89  1  0.89096591  0.58208110  0.37993441  1
  Na  Na90  1  0.89132460  0.58288303  0.63095790  1
  Na  Na91  1  0.89132317  0.58273931  0.88038355  1
  Na  Na92  1  0.89081320  0.91631424  0.13123528  1
  Na  Na93  1  0.89103179  0.91643289  0.38171403  1
  Na  Na94  1  0.89077979  0.91639356  0.63126366  1
  Na  Na95  1  0.89101830  0.91728641  0.88090695  1
  Mn  Mn96  1  0.49927677  0.16672030  0.50004315  1
  Mn  Mn97  1  0.00007174  0.83257959  0.50028624  1
  Mn  Mn98  1  0.74998494  0.00018084  0.62488506  1
  Mn  Mn99  1  0.00035262  0.49959919  0.49957775  1
  Mn  Mn100  1  0.24990712  0.16591275  0.37420516  1
  Mn  Mn101  1  0.24993688  -0.00032291  0.62598104  1
  Mn  Mn102  1  0.74975931  0.66693239  0.37457093  1
  Mn  Mn103  1  0.74962211  0.16716298  0.12599592  1
  Mn  Mn104  1  0.74973061  0.33172733  0.37607562  1
  Mn  Mn105  1  0.25055513  0.16673509  0.12511825  1
  Mn  Mn106  1  0.00004792  0.83308104  -0.00063798  1
  Mn  Mn107  1  0.75041896  0.33351033  0.87477998  1
  Mn  Mn108  1  0.49974961  0.16595003  0.25076877  1
  Mn  Mn109  1  0.49949769  0.83322250  0.25020811  1
  Mn  Mn110  1  0.75003382  0.50020611  0.87513238  1
  Mn  Mn111  1  0.74961041  0.33200667  0.62551674  1
  Mn  Mn112  1  0.74989832  0.66732359  0.12470513  1
  Mn  Mn113  1  0.75004428  0.83380599  0.87501673  1
  Mn  Mn114  1  0.25001731  0.50057456  0.87422388  1
  Mn  Mn115  1  0.74971239  0.83407538  0.37517617  1
  Mn  Mn116  1  0.49948397  0.50068767  0.50042997  1
  Mn  Mn117  1  0.50012251  0.33407450  0.25039482  1
  Mn  Mn118  1  0.74995118  0.66739447  0.87469474  1
  Mn  Mn119  1  0.24929182  0.66595645  0.37527670  1
  Mn  Mn120  1  0.49968105  0.16637056  0.75056857  1
  Mn  Mn121  1  0.00117184  0.33385815  0.24977015  1
  Mn  Mn122  1  0.00071927  0.83351202  0.74966013  1
  Mn  Mn123  1  0.24945920  0.83371367  0.37547418  1
  Mn  Mn124  1  0.00034112  0.16703515  0.74997952  1
  Mn  Mn125  1  0.75029671  0.16694332  0.87571212  1
  Mn  Mn126  1  0.00107619  0.83206562  0.25005414  1
  Mn  Mn127  1  0.74977528  0.49916050  0.37455008  1
  Mn  Mn128  1  0.49945179  0.16587100  0.00084196  1
  Mn  Mn129  1  0.49947975  0.83259503  0.00082738  1
  Mn  Mn130  1  0.24961511  0.66682836  0.12487496  1
  Mn  Mn131  1  0.75016450  0.49924869  0.12465760  1
  Mn  Mn132  1  0.74965087  -0.00046713  0.12569583  1
  Mn  Mn133  1  0.25004830  0.33426224  0.12440412  1
  Mn  Mn134  1  0.49932637  0.33398723  0.75095427  1
  Mn  Mn135  1  0.49929713  -0.00141210  0.74950910  1
  Mn  Mn136  1  0.00012317  0.00010340  0.25015907  1
  Mn  Mn137  1  0.49915920  0.50143337  0.74985764  1
  Mn  Mn138  1  0.75080982  0.66754846  0.62428482  1
  Mn  Mn139  1  0.75023930  0.00025371  0.87491114  1
  Mn  Mn140  1  0.24999390  0.33316675  0.62460571  1
  Mn  Mn141  1  0.00048435  0.16689366  0.24988865  1
  Mn  Mn142  1  0.25026971  0.00013402  0.87479573  1
  Mn  Mn143  1  0.75018899  0.49988036  0.62494402  1
  Fe  Fe144  1  0.24987700  0.50005023  0.62485112  1
  Fe  Fe145  1  0.24955985  0.00003936  0.12470242  1
  Fe  Fe146  1  0.25032860  0.33358126  0.37473092  1
  Fe  Fe147  1  0.24987306  0.33377661  0.87439599  1
  Fe  Fe148  1  0.00039609  0.66595117  0.49929505  1
  Fe  Fe149  1  0.49935482  0.66623862  0.00040933  1
  Fe  Fe150  1  0.24928092  0.50023437  0.12444922  1
  Fe  Fe151  1  0.75104877  -0.00001272  0.37521626  1
  Fe  Fe152  1  0.00047668  0.00057264  0.75024283  1
  Fe  Fe153  1  0.25048973  0.83283529  0.62531638  1
  Fe  Fe154  1  0.24974618  0.66722987  0.87437986  1
  Fe  Fe155  1  0.49935579  -0.00089904  0.00017316  1
  Fe  Fe156  1  0.00035209  0.33355002  0.49989654  1
  Fe  Fe157  1  0.00050845  0.50049385  -0.00142333  1
  Fe  Fe158  1  0.49990829  0.66684394  0.50008366  1
  Fe  Fe159  1  0.49923618  0.66646266  0.25035282  1
  Fe  Fe160  1  0.49922647  -0.00041937  0.25078075  1
  Fe  Fe161  1  0.75022111  0.83385434  0.62452906  1
  Fe  Fe162  1  0.49978851  0.50094059  0.00043112  1
  Fe  Fe163  1  0.00059854  0.16650934  0.50086245  1
  Fe  Fe164  1  0.75082107  0.16572623  0.37497009  1
  Fe  Fe165  1  0.00109291  -0.00021498  0.50037233  1
  Fe  Fe166  1  0.00006033  0.66573750  0.24865782  1
  Fe  Fe167  1  0.25002565  0.16715537  0.87532663  1
  Fe  Fe168  1  0.49989831  0.33395201  0.00090066  1
  Fe  Fe169  1  0.00046546  0.33362051  0.75011292  1
  Fe  Fe170  1  0.75004517  0.33289353  0.12575532  1
  Fe  Fe171  1  0.24995147  0.16683440  0.62506320  1
  Fe  Fe172  1  0.49955431  0.33370994  0.50020778  1
  Fe  Fe173  1  0.75032390  0.16583220  0.62492689  1
  Fe  Fe174  1  0.25009213  0.66666077  0.62537603  1
  Fe  Fe175  1  0.00051368  0.49976631  0.74952273  1
  Fe  Fe176  1  0.24942995  0.83345096  0.12490127  1
  Fe  Fe177  1  0.00021575  0.00045191  -0.00011224  1
  Fe  Fe178  1  0.50055000  0.83293212  0.74995164  1
  Fe  Fe179  1  0.74999432  0.83373782  0.12537456  1
  Fe  Fe180  1  0.24985851  0.50019152  0.37495561  1
  Fe  Fe181  1  0.49925260  -0.00036730  0.50035042  1
  Fe  Fe182  1  0.00009039  0.50013527  0.24872187  1
  Fe  Fe183  1  0.25022932  -0.00036812  0.37531069  1
  Fe  Fe184  1  0.00012404  0.16745840  -0.00057230  1
  Fe  Fe185  1  0.00034380  0.66641863  0.74919156  1
  Fe  Fe186  1  0.49951978  0.83299893  0.50007226  1
  Fe  Fe187  1  0.00037683  0.66625247  -0.00141181  1
  Fe  Fe188  1  0.24993655  0.83318060  0.87474438  1
  Fe  Fe189  1  0.00027984  0.33437295  -0.00022446  1
  Fe  Fe190  1  0.50018554  0.66739453  0.75068261  1
  Fe  Fe191  1  0.49936962  0.50053092  0.25002225  1
  P  P192  1  0.04194583  0.25083127  0.10088217  1
  P  P193  1  0.04312541  0.24985628  0.35397651  1
  P  P194  1  0.04184044  0.25079156  0.60181707  1
  P  P195  1  0.04206189  0.25171852  0.85310903  1
  P  P196  1  0.04163529  0.58351102  0.10072100  1
  P  P197  1  0.04171687  0.58291822  0.35065433  1
  P  P198  1  0.04237221  0.58432243  0.60242707  1
  P  P199  1  0.04180500  0.58330241  0.85108444  1
  P  P200  1  0.04244824  0.91753521  0.10190788  1
  P  P201  1  0.04307663  0.91626408  0.35368309  1
  P  P202  1  0.04254320  0.91770148  0.60302669  1
  P  P203  1  0.04251270  0.91845289  0.85275904  1
  P  P204  1  0.54169595  0.25098797  0.10299150  1
  P  P205  1  0.54222525  0.25013356  0.35405025  1
  P  P206  1  0.54166717  0.25133325  0.60264287  1
  P  P207  1  0.54193600  0.25023546  0.85446126  1
  P  P208  1  0.54110257  0.58360020  0.10274645  1
  P  P209  1  0.54094013  0.58358273  0.35198929  1
  P  P210  1  0.54201487  0.58554769  0.60303197  1
  P  P211  1  0.54167110  0.58466253  0.85346435  1
  P  P212  1  0.54129983  0.91772782  0.10330719  1
  P  P213  1  0.54140954  0.91742307  0.35362249  1
  P  P214  1  0.54107053  0.91615970  0.60162361  1
  P  P215  1  0.54197845  0.91487584  0.85275430  1
  P  P216  1  0.45739246  0.08149914  0.14767338  1
  P  P217  1  0.45738533  0.08143222  0.39762783  1
  P  P218  1  0.45691592  0.08285259  0.64656012  1
  P  P219  1  0.45704730  0.08124072  0.89789173  1
  P  P220  1  0.45785741  0.41852285  0.14702235  1
  P  P221  1  0.45743819  0.41632304  0.39763586  1
  P  P222  1  0.45650889  0.41712581  0.64684630  1
  P  P223  1  0.45811521  0.41768827  0.89920594  1
  P  P224  1  0.45718570  0.74826056  0.14775150  1
  P  P225  1  0.45792951  0.74949065  0.39842704  1
  P  P226  1  0.45875293  0.75017640  0.64803576  1
  P  P227  1  0.45768134  0.74837011  0.89757720  1
  P  P228  1  0.95786638  0.08368776  0.14586299  1
  P  P229  1  0.95935605  0.08312530  0.39914066  1
  P  P230  1  0.95889063  0.08232882  0.64691849  1
  P  P231  1  0.95890115  0.08356315  0.89814319  1
  P  P232  1  0.95843400  0.41796028  0.14628726  1
  P  P233  1  0.95821508  0.41555911  0.39707613  1
  P  P234  1  0.95914908  0.41619731  0.64795496  1
  P  P235  1  0.95908140  0.41689052  0.89728124  1
  P  P236  1  0.95834939  0.74833463  0.14652407  1
  P  P237  1  0.95820699  0.74775256  0.39676904  1
  P  P238  1  0.95837913  0.74867761  0.64682505  1
  P  P239  1  0.95843583  0.74845736  0.89629277  1
  P  P240  1  0.20775892  0.08207917  0.22741217  1
  P  P241  1  0.20812644  0.08181899  0.47780034  1
  P  P242  1  0.20786334  0.08539113  0.72804545  1
  P  P243  1  0.20823334  0.08410376  0.97758398  1
  P  P244  1  0.20758129  0.41844396  0.22759363  1
  P  P245  1  0.20874313  0.41677772  0.47644916  1
  P  P246  1  0.20794258  0.41779202  0.72718525  1
  P  P247  1  0.20773648  0.41605984  0.97663672  1
  P  P248  1  0.20719602  0.75142132  0.22715301  1
  P  P249  1  0.20757035  0.74947984  0.47910725  1
  P  P250  1  0.20884377  0.75029387  0.72723187  1
  P  P251  1  0.20848417  0.75037543  0.97643432  1
  P  P252  1  0.70722911  0.08309674  0.22954231  1
  P  P253  1  0.70900295  0.08299608  0.47687989  1
  P  P254  1  0.70715653  0.08450789  0.72737992  1
  P  P255  1  0.70706293  0.08328441  0.97870452  1
  P  P256  1  0.70733980  0.41476960  0.22765506  1
  P  P257  1  0.70674916  0.41586946  0.47846442  1
  P  P258  1  0.70694362  0.41659650  0.72828739  1
  P  P259  1  0.70749398  0.41623526  0.97889260  1
  P  P260  1  0.70716926  0.75174186  0.22747770  1
  P  P261  1  0.70710910  0.75059453  0.47840482  1
  P  P262  1  0.70761009  0.75179730  0.72693750  1
  P  P263  1  0.70700411  0.75067355  0.97871731  1
  P  P264  1  0.29260488  0.25017956  0.02107940  1
  P  P265  1  0.29234152  0.25158374  0.27261985  1
  P  P266  1  0.29204310  0.24851435  0.52211205  1
  P  P267  1  0.29133705  0.25021048  0.77319796  1
  P  P268  1  0.29146691  0.58250942  0.02207870  1
  P  P269  1  0.29153445  0.58221348  0.27213520  1
  P  P270  1  0.29107909  0.58289148  0.52335003  1
  P  P271  1  0.29174907  0.58556764  0.77169499  1
  P  P272  1  0.29094667  0.91609770  0.02309208  1
  P  P273  1  0.29177868  0.91798336  0.27210581  1
  P  P274  1  0.29221970  0.91525727  0.52307941  1
  P  P275  1  0.29212184  0.91518735  0.77245615  1
  P  P276  1  0.79265146  0.25123684  0.02316360  1
  P  P277  1  0.79301727  0.24874358  0.27285322  1
  P  P278  1  0.79242521  0.24742554  0.52239881  1
  P  P279  1  0.79348260  0.24928303  0.77157902  1
  P  P280  1  0.79304908  0.58352387  0.02176020  1
  P  P281  1  0.79254984  0.58314457  0.27132504  1
  P  P282  1  0.79332210  0.58309260  0.52140029  1
  P  P283  1  0.79324698  0.58388529  0.77160830  1
  P  P284  1  0.79276252  0.91558912  0.02287530  1
  P  P285  1  0.79293832  0.91767495  0.27248021  1
  P  P286  1  0.79265738  0.91609307  0.52213627  1
  P  P287  1  0.79311495  0.91682950  0.77119065  1
  O  O288  1  0.03738602  0.25034132  0.18090113  1
  O  O289  1  0.03779387  0.24987073  0.43382266  1
  O  O290  1  0.03691275  0.25104027  0.68176960  1
  O  O291  1  0.03663605  0.25164294  0.93292026  1
  O  O292  1  0.03657775  0.58328754  0.18054390  1
  O  O293  1  0.03680659  0.58300303  0.43056998  1
  O  O294  1  0.03719456  0.58414704  0.68222952  1
  O  O295  1  0.03690137  0.58310010  0.93095544  1
  O  O296  1  0.03755940  0.91690486  0.18188707  1
  O  O297  1  0.03771417  0.91641189  0.43363111  1
  O  O298  1  0.03715140  0.91793212  0.68295503  1
  O  O299  1  0.03682683  0.91830321  0.93263500  1
  O  O300  1  0.53677460  0.25077871  0.18295641  1
  O  O301  1  0.53673697  0.25059249  0.43394169  1
  O  O302  1  0.53661075  0.25089216  0.68263115  1
  O  O303  1  0.53650982  0.25043341  0.93438343  1
  O  O304  1  0.53582312  0.58348407  0.18262764  1
  O  O305  1  0.53582476  0.58398702  0.43191508  1
  O  O306  1  0.53686125  0.58566999  0.68295366  1
  O  O307  1  0.53630042  0.58415538  0.93333636  1
  O  O308  1  0.53592217  0.91773765  0.18320374  1
  O  O309  1  0.53597420  0.91711330  0.43344177  1
  O  O310  1  0.53647412  0.91532247  0.68159234  1
  O  O311  1  0.53665541  0.91540371  0.93264273  1
  O  O312  1  0.46278337  0.08139621  0.06775296  1
  O  O313  1  0.46287489  0.08140014  0.31770564  1
  O  O314  1  0.46205801  0.08266543  0.56662378  1
  O  O315  1  0.46224401  0.08177921  0.81792326  1
  O  O316  1  0.46351870  0.41814951  0.06719529  1
  O  O317  1  0.46266926  0.41705481  0.31773328  1
  O  O318  1  0.46177437  0.41656056  0.56692946  1
  O  O319  1  0.46266213  0.41776566  0.81920207  1
  O  O320  1  0.46239600  0.74818507  0.06786728  1
  O  O321  1  0.46268893  0.74961937  0.31848057  1
  O  O322  1  0.46375798  0.75020947  0.56815303  1
  O  O323  1  0.46312099  0.74882805  0.81777015  1
  O  O324  1  0.96306340  0.08380403  0.06598700  1
  O  O325  1  0.96382464  0.08365604  0.31913800  1
  O  O326  1  0.96453630  0.08239505  0.56712075  1
  O  O327  1  0.96378842  0.08356368  0.81816189  1
  O  O328  1  0.96375791  0.41758078  0.06645713  1
  O  O329  1  0.96335923  0.41627044  0.31722309  1
  O  O330  1  0.96396317  0.41602583  0.56800675  1
  O  O331  1  0.96411908  0.41685382  0.81740519  1
  O  O332  1  0.96350509  0.74854606  0.06658392  1
  O  O333  1  0.96374548  0.74787505  0.31684856  1
  O  O334  1  0.96371662  0.74860781  0.56690747  1
  O  O335  1  0.96397519  0.74878582  0.81641001  1
  O  O336  1  0.21348656  0.08330645  0.05750378  1
  O  O337  1  0.21285115  0.08184902  0.30738509  1
  O  O338  1  0.21333816  0.08244349  0.55771335  1
  O  O339  1  0.21336662  0.08567507  0.80794820  1
  O  O340  1  0.21258866  0.41658725  0.05655009  1
  O  O341  1  0.21295455  0.41826818  0.30743326  1
  O  O342  1  0.21357683  0.41655485  0.55638714  1
  O  O343  1  0.21326210  0.41719252  0.80705221  1
  O  O344  1  0.21324598  0.75030829  0.05640030  1
  O  O345  1  0.21205004  0.75084137  0.30709348  1
  O  O346  1  0.21306685  0.74903008  0.55898123  1
  O  O347  1  0.21390642  0.75021253  0.80716816  1
  O  O348  1  0.71194381  0.08319591  0.05866989  1
  O  O349  1  0.71286161  0.08292913  0.30942078  1
  O  O350  1  0.71381254  0.08342868  0.55688502  1
  O  O351  1  0.71203398  0.08401976  0.80735378  1
  O  O352  1  0.71269423  0.41551725  0.05885199  1
  O  O353  1  0.71230360  0.41495537  0.30764142  1
  O  O354  1  0.71179869  0.41592076  0.55840762  1
  O  O355  1  0.71210430  0.41676684  0.80827893  1
  O  O356  1  0.71210207  0.75126025  0.05866300  1
  O  O357  1  0.71225368  0.75134672  0.30744507  1
  O  O358  1  0.71253114  0.75104121  0.55830280  1
  O  O359  1  0.71257578  0.75132386  0.80693006  1
  O  O360  1  0.28738674  0.25164671  0.19267284  1
  O  O361  1  0.28695014  0.24895060  0.44222701  1
  O  O362  1  0.28622074  0.24987769  0.69320078  1
  O  O363  1  0.28735679  0.25014211  0.94117048  1
  O  O364  1  0.28631254  0.58233938  0.19222082  1
  O  O365  1  0.28597350  0.58231099  0.44338514  1
  O  O366  1  0.28664726  0.58583692  0.69183681  1
  O  O367  1  0.28650810  0.58328194  0.94217351  1
  O  O368  1  0.28622067  0.91782303  0.19226009  1
  O  O369  1  0.28710769  0.91593142  0.44318600  1
  O  O370  1  0.28686222  0.91523753  0.69257094  1
  O  O371  1  0.28606029  0.91586100  0.94312416  1
  O  O372  1  0.78759893  0.24981213  0.19293725  1
  O  O373  1  0.78713452  0.24717347  0.44246920  1
  O  O374  1  0.78836532  0.24856279  0.69161754  1
  O  O375  1  0.78781621  0.25106568  0.94318426  1
  O  O376  1  0.78741465  0.58322645  0.19136318  1
  O  O377  1  0.78801751  0.58305794  0.44144291  1
  O  O378  1  0.78844947  0.58389834  0.69162543  1
  O  O379  1  0.78801933  0.58363559  0.94179572  1
  O  O380  1  0.78752622  0.91677502  0.19256589  1
  O  O381  1  0.78747094  0.91711433  0.44221938  1
  O  O382  1  0.78800720  0.91646800  0.69122073  1
  O  O383  1  0.78785671  0.91615598  0.94286621  1
  O  O384  1  0.22836860  0.25013991  0.05667717  1
  O  O385  1  0.22800844  0.25112105  0.30790485  1
  O  O386  1  0.22776813  0.24850522  0.55787020  1
  O  O387  1  0.22721416  0.25049145  0.80924225  1
  O  O388  1  0.22718077  0.58251472  0.05769257  1
  O  O389  1  0.22726061  0.58165345  0.30784548  1
  O  O390  1  0.22699476  0.58324061  0.55939741  1
  O  O391  1  0.22753491  0.58514039  0.80746685  1
  O  O392  1  0.22683678  0.91587345  0.05912047  1
  O  O393  1  0.22767440  0.91828468  0.30834476  1
  O  O394  1  0.22801442  0.91488328  0.55888367  1
  O  O395  1  0.22790742  0.91549085  0.80821173  1
  O  O396  1  0.72818126  0.25175797  0.05836429  1
  O  O397  1  0.72868587  0.24761028  0.30842708  1
  O  O398  1  0.72812838  0.24735374  0.55808642  1
  O  O399  1  0.72898403  0.24977282  0.80651072  1
  O  O400  1  0.72854569  0.58339224  0.05656060  1
  O  O401  1  0.72805739  0.58311557  0.30622610  1
  O  O402  1  0.72886852  0.58351550  0.55633706  1
  O  O403  1  0.72865242  0.58380505  0.80625478  1
  O  O404  1  0.72824938  0.91506278  0.05800632  1
  O  O405  1  0.72865080  0.91893358  0.30812991  1
  O  O406  1  0.72832327  0.91554287  0.55773889  1
  O  O407  1  0.72863221  0.91715150  0.80613752  1
  O  O408  1  0.27209403  0.08201581  0.19198321  1
  O  O409  1  0.27228852  0.08171825  0.44183867  1
  O  O410  1  0.27201138  0.08498436  0.69205915  1
  O  O411  1  0.27239368  0.08442582  0.94172399  1
  O  O412  1  0.27177189  0.41889037  0.19152536  1
  O  O413  1  0.27286539  0.41738883  0.44044978  1
  O  O414  1  0.27213257  0.41787368  0.69138346  1
  O  O415  1  0.27206194  0.41583493  0.94115637  1
  O  O416  1  0.27157461  0.75160685  0.19180285  1
  O  O417  1  0.27166957  0.74953761  0.44317372  1
  O  O418  1  0.27292181  0.75022794  0.69096022  1
  O  O419  1  0.27268138  0.75064628  0.94066096  1
  O  O420  1  0.77143162  0.08316301  0.19385332  1
  O  O421  1  0.77326345  0.08287409  0.44103216  1
  O  O422  1  0.77171490  0.08432679  0.69237946  1
  O  O423  1  0.77166099  0.08318356  0.94399496  1
  O  O424  1  0.77181146  0.41459004  0.19248742  1
  O  O425  1  0.77126892  0.41581734  0.44365845  1
  O  O426  1  0.77146496  0.41610495  0.69350414  1
  O  O427  1  0.77191722  0.41671905  0.94375364  1
  O  O428  1  0.77159889  0.75186554  0.19221870  1
  O  O429  1  0.77146580  0.75031191  0.44316989  1
  O  O430  1  0.77208145  0.75237412  0.69171415  1
  O  O431  1  0.77146248  0.75037859  0.94367317  1
  O  O432  1  0.02215971  0.08350372  0.18157099  1
  O  O433  1  0.02361284  0.08277117  0.43474711  1
  O  O434  1  0.02288108  0.08213880  0.68351793  1
  O  O435  1  0.02303516  0.08318147  0.93416888  1
  O  O436  1  0.02262457  0.41851729  0.18245403  1
  O  O437  1  0.02255532  0.41498979  0.43283457  1
  O  O438  1  0.02332898  0.41591882  0.68395454  1
  O  O439  1  0.02313866  0.41634638  0.93365550  1
  O  O440  1  0.02266105  0.74786435  0.18227923  1
  O  O441  1  0.02235091  0.74801817  0.43295017  1
  O  O442  1  0.02260815  0.74869845  0.68276707  1
  O  O443  1  0.02261544  0.74853013  0.93235901  1
  O  O444  1  0.52159498  0.08164844  0.18365020  1
  O  O445  1  0.52155997  0.08160621  0.43365193  1
  O  O446  1  0.52129121  0.08270776  0.68188669  1
  O  O447  1  0.52136061  0.08115771  0.93353110  1
  O  O448  1  0.52188857  0.41900043  0.18352771  1
  O  O449  1  0.52164546  0.41617708  0.43356822  1
  O  O450  1  0.52084174  0.41752347  0.68227923  1
  O  O451  1  0.52229734  0.41808531  0.93503266  1
  O  O452  1  0.52141493  0.74849158  0.18362740  1
  O  O453  1  0.52212727  0.74913539  0.43433107  1
  O  O454  1  0.52280427  0.75019860  0.68457957  1
  O  O455  1  0.52174578  0.74814557  0.93396771  1
  O  O456  1  0.47740942  0.25059489  0.06751604  1
  O  O457  1  0.47800323  0.25003279  0.31838587  1
  O  O458  1  0.47731570  0.25140101  0.56713980  1
  O  O459  1  0.47760905  0.24993361  0.81891893  1
  O  O460  1  0.47703581  0.58342026  0.06618319  1
  O  O461  1  0.47676854  0.58309710  0.31580577  1
  O  O462  1  0.47768899  0.58551300  0.56731882  1
  O  O463  1  0.47749991  0.58542491  0.81728315  1
  O  O464  1  0.47709450  0.91761051  0.06728197  1
  O  O465  1  0.47728527  0.91719412  0.31730948  1
  O  O466  1  0.47681293  0.91693080  0.56591741  1
  O  O467  1  0.47770103  0.91419542  0.81689554  1
  O  O468  1  0.97767137  0.25149737  0.06531264  1
  O  O469  1  0.97891791  0.25032951  0.31806676  1
  O  O470  1  0.97772734  0.25129875  0.56571635  1
  O  O471  1  0.97803313  0.25186246  0.81667155  1
  O  O472  1  0.97762219  0.58406221  0.06424279  1
  O  O473  1  0.97759423  0.58282449  0.31435198  1
  O  O474  1  0.97826187  0.58437735  0.56615811  1
  O  O475  1  0.97778790  0.58352923  0.81471477  1
  O  O476  1  0.97809945  0.91783614  0.06640511  1
  O  O477  1  0.97881631  0.91583259  0.31806116  1
  O  O478  1  0.97839973  0.91781343  0.56692854  1
  O  O479  1  0.97841281  0.91822803  0.81650656  1
  O  O480  1  0.07327848  0.31434678  0.07321582  1
  O  O481  1  0.07457061  0.31301892  0.32525237  1
  O  O482  1  0.07341958  0.31381824  0.57320809  1
  O  O483  1  0.07317849  0.31494852  0.82421487  1
  O  O484  1  0.07310350  0.64683410  0.07230899  1
  O  O485  1  0.07271085  0.64645210  0.32229662  1
  O  O486  1  0.07326713  0.64765189  0.57348474  1
  O  O487  1  0.07306688  0.64678346  0.82287619  1
  O  O488  1  0.07323314  0.98113642  0.07372397  1
  O  O489  1  0.07395665  0.97978006  0.32532389  1
  O  O490  1  0.07371914  0.98091737  0.57434456  1
  O  O491  1  0.07336844  0.98192294  0.82429085  1
  O  O492  1  0.57182898  0.31494010  0.07447582  1
  O  O493  1  0.57366948  0.31327317  0.32564222  1
  O  O494  1  0.57222222  0.31502641  0.57428716  1
  O  O495  1  0.57302849  0.31366155  0.82616476  1
  O  O496  1  0.57181481  0.64736072  0.07435242  1
  O  O497  1  0.57158251  0.64729804  0.32352756  1
  O  O498  1  0.57298291  0.64869611  0.57402206  1
  O  O499  1  0.57296870  0.64791349  0.82484229  1
  O  O500  1  0.57228139  0.98095993  0.07447700  1
  O  O501  1  0.57209881  0.98098548  0.32492521  1
  O  O502  1  0.57221249  0.97990461  0.57393373  1
  O  O503  1  0.57292017  0.97844747  0.82440729  1
  O  O504  1  0.42648344  0.01821255  0.17649322  1
  O  O505  1  0.42648255  0.01812025  0.42636605  1
  O  O506  1  0.42556208  0.01957177  0.67483161  1
  O  O507  1  0.42648375  0.01736208  0.92583220  1
  O  O508  1  0.42676035  0.35485920  0.17509058  1
  O  O509  1  0.42697710  0.35244478  0.42586941  1
  O  O510  1  0.42535349  0.35395037  0.67567678  1
  O  O511  1  0.42807641  0.35348171  0.92743688  1
  O  O512  1  0.42632816  0.68497590  0.17668529  1
  O  O513  1  0.42669114  0.68608638  0.42669127  1
  O  O514  1  0.42780925  0.68662394  0.67654494  1
  O  O515  1  0.42658504  0.68506102  0.92629566  1
  O  O516  1  0.92664738  0.02034753  0.17450527  1
  O  O517  1  0.92838325  0.01937086  0.42685455  1
  O  O518  1  0.92771487  0.01907049  0.67565767  1
  O  O519  1  0.92744447  0.02029700  0.92634823  1
  O  O520  1  0.92763097  0.35433443  0.17482640  1
  O  O521  1  0.92726741  0.35210249  0.42558794  1
  O  O522  1  0.92775353  0.35301432  0.67643363  1
  O  O523  1  0.92758857  0.35375795  0.92594450  1
  O  O524  1  0.92715817  0.68510753  0.17510479  1
  O  O525  1  0.92747086  0.68420798  0.42521562  1
  O  O526  1  0.92737666  0.68540926  0.67549892  1
  O  O527  1  0.92754144  0.68503656  0.92474067  1
  O  O528  1  0.17674828  0.01903844  0.19829246  1
  O  O529  1  0.17772753  0.01796075  0.44967832  1
  O  O530  1  0.17674422  0.02150852  0.70090845  1
  O  O531  1  0.17703725  0.02075830  0.94932364  1
  O  O532  1  0.17664222  0.35472662  0.19956476  1
  O  O533  1  0.17890350  0.35256315  0.44798306  1
  O  O534  1  0.17657052  0.35455132  0.69899415  1
  O  O535  1  0.17725505  0.35238608  0.94813298  1
  O  O536  1  0.17640107  0.68778263  0.19901392  1
  O  O537  1  0.17628369  0.68626264  0.45036260  1
  O  O538  1  0.17786734  0.68683174  0.69871433  1
  O  O539  1  0.17828422  0.68637271  0.94790631  1
  O  O540  1  0.67590267  0.01989639  0.20102808  1
  O  O541  1  0.67851698  0.01898242  0.44909372  1
  O  O542  1  0.67596218  0.02111954  0.69916136  1
  O  O543  1  0.67617198  0.01984240  0.95035131  1
  O  O544  1  0.67673734  0.35112907  0.19941139  1
  O  O545  1  0.67580984  0.35230944  0.45056297  1
  O  O546  1  0.67569814  0.35315874  0.70044409  1
  O  O547  1  0.67639668  0.35310104  0.95018695  1
  O  O548  1  0.67612823  0.68813013  0.19971477  1
  O  O549  1  0.67605249  0.68707455  0.45030191  1
  O  O550  1  0.67695850  0.68798915  0.69912606  1
  O  O551  1  0.67614789  0.68698573  0.95073600  1
  O  O552  1  0.32370892  0.31358219  0.04947146  1
  O  O553  1  0.32264518  0.31527539  0.30134537  1
  O  O554  1  0.32322953  0.31194627  0.55023674  1
  O  O555  1  0.32203204  0.31421185  0.80091036  1
  O  O556  1  0.32277007  0.64576266  0.05044630  1
  O  O557  1  0.32189262  0.64635177  0.29991296  1
  O  O558  1  0.32212084  0.64658409  0.55108268  1
  O  O559  1  0.32230290  0.64886129  0.80113819  1
  O  O560  1  0.32115767  0.98020547  0.05116112  1
  O  O561  1  0.32273431  0.98120720  0.30111103  1
  O  O562  1  0.32330001  0.97860832  0.55140597  1
  O  O563  1  0.32321596  0.97891483  0.80008284  1
  O  O564  1  0.82353902  0.31458615  0.05167885  1
  O  O565  1  0.82379715  0.31224539  0.30134212  1
  O  O566  1  0.82322801  0.31138375  0.54983061  1
  O  O567  1  0.82452668  0.31291389  0.79936045  1
  O  O568  1  0.82395731  0.64699273  0.04991583  1
  O  O569  1  0.82346274  0.64670413  0.29929293  1
  O  O570  1  0.82457359  0.64645783  0.54936641  1
  O  O571  1  0.82397956  0.64749617  0.79971655  1
  O  O572  1  0.82348179  0.97926317  0.05088364  1
  O  O573  1  0.82426800  0.98098142  0.30062973  1
  O  O574  1  0.82372267  0.97940682  0.55060621  1
  O  O575  1  0.82396424  0.98049715  0.79930716  1
  O  O576  1  0.42632541  0.14540297  0.17510112  1
  O  O577  1  0.42611896  0.14522427  0.42489265  1
  O  O578  1  0.42604804  0.14647903  0.67474316  1
  O  O579  1  0.42582762  0.14466376  0.92587167  1
  O  O580  1  0.42670009  0.48184865  0.17553363  1
  O  O581  1  0.42606008  0.47966283  0.42574011  1
  O  O582  1  0.42550741  0.48084831  0.67461395  1
  O  O583  1  0.42675612  0.48109676  0.92711983  1
  O  O584  1  0.42612150  0.81204625  0.17531392  1
  O  O585  1  0.42768553  0.81346416  0.42698539  1
  O  O586  1  0.42793372  0.81380740  0.67656099  1
  O  O587  1  0.42651671  0.81189270  0.92585285  1
  O  O588  1  0.92685333  0.14713898  0.17443635  1
  O  O589  1  0.92902516  0.14693724  0.42782193  1
  O  O590  1  0.92782332  0.14609500  0.67469794  1
  O  O591  1  0.92874624  0.14778532  0.92630976  1
  O  O592  1  0.92729312  0.48127760  0.17485505  1
  O  O593  1  0.92729686  0.47911354  0.42538031  1
  O  O594  1  0.92900174  0.48038706  0.67613133  1
  O  O595  1  0.92881180  0.48093494  0.92571003  1
  O  O596  1  0.92769349  0.81219651  0.17454608  1
  O  O597  1  0.92689175  0.81137306  0.42443642  1
  O  O598  1  0.92741789  0.81254093  0.67436506  1
  O  O599  1  0.92727412  0.81214810  0.92404782  1
  O  O600  1  0.07202857  0.18681828  0.07230286  1
  O  O601  1  0.07406699  0.18632865  0.32549375  1
  O  O602  1  0.07186182  0.18639134  0.57396030  1
  O  O603  1  0.07317124  0.18805205  0.82512504  1
  O  O604  1  0.07201769  0.51970682  0.07184301  1
  O  O605  1  0.07229773  0.51906233  0.32251078  1
  O  O606  1  0.07342118  0.52063127  0.57433371  1
  O  O607  1  0.07227544  0.51944354  0.82241455  1
  O  O608  1  0.07330117  0.85387133  0.07382357  1
  O  O609  1  0.07439991  0.85280444  0.32575006  1
  O  O610  1  0.07344858  0.85375631  0.57573240  1
  O  O611  1  0.07376780  0.85473364  0.82525233  1
  O  O612  1  0.57327757  0.18755239  0.07557673  1
  O  O613  1  0.57319249  0.18635872  0.32637424  1
  O  O614  1  0.57284059  0.18770896  0.57490512  1
  O  O615  1  0.57306168  0.18663857  0.82643456  1
  O  O616  1  0.57232537  0.52021102  0.07430578  1
  O  O617  1  0.57193032  0.51989456  0.32405475  1
  O  O618  1  0.57291452  0.52169149  0.57533267  1
  O  O619  1  0.57248905  0.52095348  0.82521944  1
  O  O620  1  0.57225644  0.85381785  0.07586370  1
  O  O621  1  0.57282954  0.85399535  0.32548798  1
  O  O622  1  0.57136473  0.85251297  0.57255131  1
  O  O623  1  0.57294596  0.85140192  0.82440814  1
  O  O624  1  0.32397252  0.18689298  0.04976992  1
  O  O625  1  0.32379256  0.18795824  0.30005339  1
  O  O626  1  0.32257642  0.18479675  0.55081289  1
  O  O627  1  0.32236384  0.18671603  0.80169689  1
  O  O628  1  0.32183965  0.51860455  0.05045679  1
  O  O629  1  0.32303902  0.51929529  0.30107100  1
  O  O630  1  0.32187586  0.51922926  0.55199243  1
  O  O631  1  0.32324875  0.52194845  0.79946010  1
  O  O632  1  0.32225663  0.85273411  0.05163051  1
  O  O633  1  0.32291937  0.85422387  0.30017258  1
  O  O634  1  0.32303168  0.85148685  0.55131175  1
  O  O635  1  0.32291092  0.85176987  0.80128292  1
  O  O636  1  0.82326056  0.18728404  0.05101524  1
  O  O637  1  0.82420469  0.18515054  0.30091649  1
  O  O638  1  0.82348144  0.18417192  0.55124520  1
  O  O639  1  0.82452603  0.18603779  0.80064810  1
  O  O640  1  0.82418198  0.52001654  0.04986112  1
  O  O641  1  0.82357336  0.51948888  0.29930376  1
  O  O642  1  0.82421219  0.51942545  0.54958131  1
  O  O643  1  0.82421660  0.52031595  0.79989338  1
  O  O644  1  0.82355141  0.85196571  0.05127189  1
  O  O645  1  0.82364969  0.85389869  0.30076812  1
  O  O646  1  0.82347906  0.85228558  0.55010114  1
  O  O647  1  0.82443033  0.85363984  0.79985657  1
  O  O648  1  0.17692074  0.14616525  0.19982363  1
  O  O649  1  0.17673320  0.14513355  0.44944159  1
  O  O650  1  0.17706292  0.14873943  0.69892752  1
  O  O651  1  0.17742617  0.14788025  0.94944727  1
  O  O652  1  0.17651918  0.48168991  0.19832166  1
  O  O653  1  0.17714905  0.48009657  0.44836814  1
  O  O654  1  0.17742849  0.48167929  0.69883896  1
  O  O655  1  0.17650195  0.47950956  0.94833549  1
  O  O656  1  0.17645070  0.81500481  0.19870898  1
  O  O657  1  0.17623218  0.81297818  0.45108017  1
  O  O658  1  0.17795759  0.81404535  0.69881048  1
  O  O659  1  0.17714911  0.81372913  0.94803613  1
  O  O660  1  0.67588886  0.14653564  0.20118041  1
  O  O661  1  0.67793912  0.14641405  0.44827749  1
  O  O662  1  0.67673762  0.14820871  0.69873430  1
  O  O663  1  0.67621366  0.14697180  0.95060416  1
  O  O664  1  0.67638987  0.47851912  0.19971501  1
  O  O665  1  0.67574230  0.47939553  0.45007910  1
  O  O666  1  0.67607293  0.48024348  0.70011491  1
  O  O667  1  0.67637490  0.48000939  0.95114786  1
  O  O668  1  0.67658272  0.81556175  0.19931212  1
  O  O669  1  0.67585054  0.81391798  0.45000479  1
  O  O670  1  0.67676763  0.81534478  0.69846916  1
  O  O671  1  0.67577111  0.81389523  0.94997617  1
