# generated using pymatgen
data_Na2MnFe(PO4)2
_symmetry_space_group_name_H-M   'P 1'
_cell_length_a   22.34164172
_cell_length_b   20.09480373
_cell_length_c   19.45001266
_cell_angle_alpha   90.05736972
_cell_angle_beta   89.98490945
_cell_angle_gamma   89.98503834
_symmetry_Int_Tables_number   1
_chemical_formula_structural   Na2MnFe(PO4)2
_chemical_formula_sum   'Na96 Mn48 Fe48 P96 O384'
_cell_volume   8732.09581607
_cell_formula_units_Z   48
loop_
 _symmetry_equiv_pos_site_id
 _symmetry_equiv_pos_as_xyz
  1  'x, y, z'
loop_
 _atom_site_type_symbol
 _atom_site_label
 _atom_site_symmetry_multiplicity
 _atom_site_fract_x
 _atom_site_fract_y
 _atom_site_fract_z
 _atom_site_occupancy
  Na  Na0  1  0.14025377  0.24904019  0.24327284  1
  Na  Na1  1  0.14006164  0.24881247  0.49354086  1
  Na  Na2  1  0.14023918  0.25009894  0.74183122  1
  Na  Na3  1  0.13995910  0.24848206  0.99270924  1
  Na  Na4  1  0.14069695  0.58365431  0.24379068  1
  Na  Na5  1  0.14079826  0.58099680  0.49368008  1
  Na  Na6  1  0.14096503  0.58251424  0.74372465  1
  Na  Na7  1  0.14062332  0.58358018  0.99373827  1
  Na  Na8  1  0.14032287  0.91595853  0.24308020  1
  Na  Na9  1  0.13988574  0.91551659  0.49339156  1
  Na  Na10  1  0.13979203  0.91724627  0.74300828  1
  Na  Na11  1  0.14029243  0.91597184  0.99348095  1
  Na  Na12  1  0.64060871  0.25034695  0.24412652  1
  Na  Na13  1  0.64041773  0.25115124  0.49432095  1
  Na  Na14  1  0.63983889  0.25126947  0.74300322  1
  Na  Na15  1  0.64073624  0.24982188  0.99394914  1
  Na  Na16  1  0.64058696  0.58245205  0.24479837  1
  Na  Na17  1  0.64037836  0.58444600  0.49397052  1
  Na  Na18  1  0.64054686  0.58537700  0.74259417  1
  Na  Na19  1  0.64071115  0.58453832  0.99375665  1
  Na  Na20  1  0.64042919  0.91663777  0.24418071  1
  Na  Na21  1  0.64031877  0.91562850  0.49393188  1
  Na  Na22  1  0.64023414  0.91634565  0.74473325  1
  Na  Na23  1  0.64016314  0.91725804  0.99345730  1
  Na  Na24  1  0.35931512  0.08175492  0.00561726  1
  Na  Na25  1  0.35930773  0.08318690  0.25559666  1
  Na  Na26  1  0.35847719  0.08342599  0.50679857  1
  Na  Na27  1  0.35905299  0.08396030  0.75643454  1
  Na  Na28  1  0.35949960  0.41760435  0.00539748  1
  Na  Na29  1  0.35950379  0.41741277  0.25695157  1
  Na  Na30  1  0.35952029  0.41483422  0.50775251  1
  Na  Na31  1  0.35992129  0.41704619  0.75610971  1
  Na  Na32  1  0.35886400  0.75129145  0.00602045  1
  Na  Na33  1  0.35953283  0.75114296  0.25610438  1
  Na  Na34  1  0.35967105  0.74917219  0.50701036  1
  Na  Na35  1  0.35948965  0.75076590  0.75688656  1
  Na  Na36  1  0.86013054  0.08415538  0.00651339  1
  Na  Na37  1  0.85975977  0.08295897  0.25634110  1
  Na  Na38  1  0.85963968  0.08166827  0.50550914  1
  Na  Na39  1  0.86014359  0.08282414  0.75716245  1
  Na  Na40  1  0.85970399  0.41661959  0.00685122  1
  Na  Na41  1  0.86018559  0.41586742  0.25658520  1
  Na  Na42  1  0.86039662  0.41734191  0.50687838  1
  Na  Na43  1  0.86042581  0.41773559  0.75616548  1
  Na  Na44  1  0.85979447  0.75095604  0.00568406  1
  Na  Na45  1  0.85965746  0.75006785  0.25707397  1
  Na  Na46  1  0.85991835  0.75008709  0.50686962  1
  Na  Na47  1  0.85969094  0.75147452  0.75558056  1
  Na  Na48  1  0.10960277  0.08251995  0.11895143  1
  Na  Na49  1  0.10938478  0.08207108  0.36761109  1
  Na  Na50  1  0.10990004  0.08271434  0.61819598  1
  Na  Na51  1  0.10938444  0.08307304  0.86710499  1
  Na  Na52  1  0.10960991  0.41533602  0.11922267  1
  Na  Na53  1  0.10979896  0.41432874  0.36846940  1
  Na  Na54  1  0.11027759  0.41576118  0.61848724  1
  Na  Na55  1  0.10950307  0.41510264  0.86693318  1
  Na  Na56  1  0.11027429  0.75026134  0.11855953  1
  Na  Na57  1  0.10965317  0.74953712  0.36781190  1
  Na  Na58  1  0.10979577  0.74994891  0.61929121  1
  Na  Na59  1  0.10998235  0.74999448  0.86781623  1
  Na  Na60  1  0.60947431  0.08311844  0.11841137  1
  Na  Na61  1  0.60942428  0.08326743  0.36913320  1
  Na  Na62  1  0.60925608  0.08416549  0.61917326  1
  Na  Na63  1  0.60920412  0.08370323  0.86888354  1
  Na  Na64  1  0.60984540  0.41688846  0.11885566  1
  Na  Na65  1  0.61008007  0.41764595  0.37011154  1
  Na  Na66  1  0.60966718  0.41790865  0.61807347  1
  Na  Na67  1  0.60941443  0.41798469  0.86870778  1
  Na  Na68  1  0.61009690  0.75008605  0.11824792  1
  Na  Na69  1  0.60995641  0.75025392  0.37010415  1
  Na  Na70  1  0.60981635  0.74942496  0.61803435  1
  Na  Na71  1  0.60964317  0.75134006  0.86894092  1
  Na  Na72  1  0.39031718  0.25047666  0.13052501  1
  Na  Na73  1  0.39000478  0.25105263  0.38230172  1
  Na  Na74  1  0.38979016  0.25098434  0.63198912  1
  Na  Na75  1  0.38995047  0.25096716  0.88017816  1
  Na  Na76  1  0.39007522  0.58395832  0.13051763  1
  Na  Na77  1  0.39037412  0.58363336  0.38273857  1
  Na  Na78  1  0.39034635  0.58249315  0.63149360  1
  Na  Na79  1  0.39034277  0.58521854  0.88149725  1
  Na  Na80  1  0.38944558  0.91669470  0.13059907  1
  Na  Na81  1  0.38975083  0.91657190  0.38169166  1
  Na  Na82  1  0.39002577  0.91669325  0.63174985  1
  Na  Na83  1  0.38931889  0.91708695  0.88230221  1
  Na  Na84  1  0.89064561  0.24930022  0.13220241  1
  Na  Na85  1  0.89060844  0.24923791  0.37967960  1
  Na  Na86  1  0.89120042  0.25025977  0.63172935  1
  Na  Na87  1  0.89075822  0.24990088  0.88082669  1
  Na  Na88  1  0.89076995  0.58329492  0.13251813  1
  Na  Na89  1  0.89084129  0.58176817  0.38180705  1
  Na  Na90  1  0.89041015  0.58328994  0.63189966  1
  Na  Na91  1  0.89066183  0.58297436  0.88023381  1
  Na  Na92  1  0.89049830  0.91729044  0.13186993  1
  Na  Na93  1  0.88982526  0.91610571  0.38113565  1
  Na  Na94  1  0.89035429  0.91663669  0.63151142  1
  Na  Na95  1  0.89001212  0.91753613  0.88105428  1
  Mn  Mn96  1  0.00080592  0.66688443  0.50051083  1
  Mn  Mn97  1  0.75020956  0.16598705  0.37479391  1
  Mn  Mn98  1  0.49979534  -0.00026609  0.25008747  1
  Mn  Mn99  1  0.50014859  0.83351531  0.25004980  1
  Mn  Mn100  1  0.24945266  0.50096564  0.12530431  1
  Mn  Mn101  1  0.24939057  0.83367259  0.62523273  1
  Mn  Mn102  1  0.25012556  0.49940582  0.37504715  1
  Mn  Mn103  1  0.24959849  0.16602271  0.37517394  1
  Mn  Mn104  1  0.75048894  0.50020192  0.12487998  1
  Mn  Mn105  1  0.75066017  0.66625223  0.37584687  1
  Mn  Mn106  1  0.00021229  0.66633647  0.74953793  1
  Mn  Mn107  1  0.24963636  0.16648233  0.87433734  1
  Mn  Mn108  1  0.00016529  0.66631456  0.25047841  1
  Mn  Mn109  1  0.75079491  0.33414851  0.37482898  1
  Mn  Mn110  1  -0.00055804  0.16662563  0.49927419  1
  Mn  Mn111  1  0.00026042  0.66634784  -0.00003357  1
  Mn  Mn112  1  0.75095932  0.33470098  0.62429709  1
  Mn  Mn113  1  0.25051917  0.16536960  0.12394206  1
  Mn  Mn114  1  0.75062955  0.83308189  0.12498757  1
  Mn  Mn115  1  0.49991921  0.83298577  0.75040702  1
  Mn  Mn116  1  0.75080632  0.66845336  0.87393016  1
  Mn  Mn117  1  0.75042632  0.16683714  0.87509485  1
  Mn  Mn118  1  0.50021575  0.66691191  0.25028634  1
  Mn  Mn119  1  0.50002740  0.00053270  0.75019622  1
  Mn  Mn120  1  0.75037041  0.00025304  0.12489681  1
  Mn  Mn121  1  0.00021072  0.49898295  0.00036450  1
  Mn  Mn122  1  0.00055188  0.49845971  0.50043443  1
  Mn  Mn123  1  0.74952307  -0.00105715  0.62571525  1
  Mn  Mn124  1  0.24998694  0.83320907  0.37503644  1
  Mn  Mn125  1  -0.00016082  0.33199804  -0.00064108  1
  Mn  Mn126  1  0.50073272  0.50102211  0.74933355  1
  Mn  Mn127  1  0.74980791  0.33394494  0.87491014  1
  Mn  Mn128  1  0.49964727  0.50022746  0.25103423  1
  Mn  Mn129  1  0.49938609  -0.00011340  0.50033574  1
  Mn  Mn130  1  0.49973180  0.33426453  0.25040753  1
  Mn  Mn131  1  0.49933983  0.16792581  0.50014474  1
  Mn  Mn132  1  0.00008266  0.83369601  -0.00032733  1
  Mn  Mn133  1  0.49984875  0.16703607  0.25017314  1
  Mn  Mn134  1  0.24981470  0.50017561  0.87487325  1
  Mn  Mn135  1  0.50011710  0.66721897  0.00010391  1
  Mn  Mn136  1  -0.00017157  -0.00112085  0.49927691  1
  Mn  Mn137  1  0.50025725  0.33461573  -0.00015067  1
  Mn  Mn138  1  0.75008447  0.16619652  0.62480440  1
  Mn  Mn139  1  0.24969566  0.66583615  0.62563127  1
  Mn  Mn140  1  0.00041774  0.00089476  0.00009020  1
  Mn  Mn141  1  0.50011412  0.16688095  -0.00005500  1
  Mn  Mn142  1  0.25017978  0.33305365  0.12461951  1
  Mn  Mn143  1  0.75028163  0.50120134  0.87548297  1
  Fe  Fe144  1  0.00076732  0.49932084  0.74988440  1
  Fe  Fe145  1  0.24943929  0.16611578  0.62458523  1
  Fe  Fe146  1  0.49990761  0.83292706  0.50088918  1
  Fe  Fe147  1  0.75030297  0.50098647  0.62512236  1
  Fe  Fe148  1  0.24935084  -0.00053555  0.87490783  1
  Fe  Fe149  1  0.24950964  0.83370120  0.87545041  1
  Fe  Fe150  1  0.49979330  0.50107660  -0.00061221  1
  Fe  Fe151  1  -0.00006284  0.33286908  0.75005762  1
  Fe  Fe152  1  0.00010915  0.83334194  0.49958718  1
  Fe  Fe153  1  0.25007422  0.66724851  0.87502238  1
  Fe  Fe154  1  0.75060068  0.50038162  0.37491267  1
  Fe  Fe155  1  0.74952314  0.16647644  0.12529246  1
  Fe  Fe156  1  0.00015987  0.33245467  0.49979844  1
  Fe  Fe157  1  -0.00029325  0.83298867  0.24979003  1
  Fe  Fe158  1  0.00046443  0.33208165  0.24965926  1
  Fe  Fe159  1  0.75025574  0.66762058  0.62454739  1
  Fe  Fe160  1  0.50056487  0.33379033  0.50083002  1
  Fe  Fe161  1  0.49926237  0.00029035  -0.00046756  1
  Fe  Fe162  1  0.49957792  0.83377184  -0.00033839  1
  Fe  Fe163  1  0.24943063  -0.00084729  0.12482846  1
  Fe  Fe164  1  -0.00034539  0.83344434  0.74956294  1
  Fe  Fe165  1  0.24976571  0.33280368  0.62478169  1
  Fe  Fe166  1  0.25019804  0.66756583  0.12448656  1
  Fe  Fe167  1  0.24977507  0.33346813  0.87404748  1
  Fe  Fe168  1  0.24961758  0.83322142  0.12476191  1
  Fe  Fe169  1  0.25001618  -0.00038604  0.62513574  1
  Fe  Fe170  1  0.49974812  0.50013626  0.50111767  1
  Fe  Fe171  1  0.74982360  0.33342846  0.12556217  1
  Fe  Fe172  1  0.75018715  0.66684675  0.12542798  1
  Fe  Fe173  1  0.25007797  0.66655905  0.37493883  1
  Fe  Fe174  1  0.74981409  0.00018758  0.87541743  1
  Fe  Fe175  1  0.24962016  -0.00038234  0.37488579  1
  Fe  Fe176  1  0.74940015  -0.00043609  0.37524354  1
  Fe  Fe177  1  0.75047670  0.83392351  0.62511630  1
  Fe  Fe178  1  0.49980043  0.33437641  0.75007137  1
  Fe  Fe179  1  0.74977525  0.83288694  0.37526953  1
  Fe  Fe180  1  0.49978567  0.66686999  0.50042304  1
  Fe  Fe181  1  0.00008366  0.16630500  -0.00020041  1
  Fe  Fe182  1  0.00033401  0.16596880  0.24973719  1
  Fe  Fe183  1  0.00061775  0.49883889  0.25070781  1
  Fe  Fe184  1  0.49969706  0.66710700  0.75000916  1
  Fe  Fe185  1  0.49973499  0.16753406  0.74988738  1
  Fe  Fe186  1  0.25055176  0.49931784  0.62504481  1
  Fe  Fe187  1  0.74947379  0.83371854  0.87504351  1
  Fe  Fe188  1  -0.00004980  -0.00040978  0.24986089  1
  Fe  Fe189  1  -0.00016781  0.00007764  0.74954080  1
  Fe  Fe190  1  0.24999421  0.33243429  0.37535561  1
  Fe  Fe191  1  0.00030287  0.16664118  0.74907134  1
  P  P192  1  0.04209399  0.24794031  0.10267584  1
  P  P193  1  0.04171345  0.24898891  0.35142491  1
  P  P194  1  0.04191291  0.25054527  0.60279370  1
  P  P195  1  0.04165631  0.24905066  0.85102398  1
  P  P196  1  0.04294533  0.58268350  0.10390783  1
  P  P197  1  0.04263342  0.58130327  0.35283072  1
  P  P198  1  0.04308544  0.58252039  0.60364045  1
  P  P199  1  0.04273607  0.58168910  0.85217003  1
  P  P200  1  0.04241182  0.91686264  0.10374221  1
  P  P201  1  0.04120422  0.91568062  0.35133810  1
  P  P202  1  0.04200158  0.91515619  0.60287130  1
  P  P203  1  0.04101299  0.91693406  0.85104053  1
  P  P204  1  0.54299166  0.25060223  0.10303642  1
  P  P205  1  0.54287490  0.25102484  0.35390020  1
  P  P206  1  0.54205634  0.25175194  0.60361388  1
  P  P207  1  0.54121481  0.25085679  0.85135237  1
  P  P208  1  0.54257036  0.58251687  0.10237514  1
  P  P209  1  0.54255052  0.58385904  0.35482565  1
  P  P210  1  0.54129484  0.58418868  0.60208142  1
  P  P211  1  0.54251073  0.58525533  0.85244620  1
  P  P212  1  0.54121453  0.91691822  0.10109223  1
  P  P213  1  0.54250360  0.91620480  0.35412534  1
  P  P214  1  0.54210017  0.91554252  0.60282883  1
  P  P215  1  0.54195603  0.91710714  0.85415203  1
  P  P216  1  0.45705292  0.08302411  0.14629169  1
  P  P217  1  0.45644018  0.08364192  0.39726327  1
  P  P218  1  0.45742636  0.08504476  0.64789268  1
  P  P219  1  0.45752937  0.08316538  0.89697927  1
  P  P220  1  0.45678153  0.41777303  0.14659870  1
  P  P221  1  0.45843229  0.41683961  0.39961554  1
  P  P222  1  0.45822210  0.41602695  0.64703006  1
  P  P223  1  0.45785879  0.41864484  0.89678967  1
  P  P224  1  0.45748064  0.75042690  0.14642085  1
  P  P225  1  0.45823497  0.75016805  0.39905392  1
  P  P226  1  0.45778652  0.74854921  0.64701588  1
  P  P227  1  0.45739905  0.75131856  0.89743781  1
  P  P228  1  0.95859642  0.08330806  0.14823831  1
  P  P229  1  0.95750456  0.08266949  0.39564243  1
  P  P230  1  0.95849900  0.08321224  0.64800409  1
  P  P231  1  0.95820647  0.08495082  0.89657481  1
  P  P232  1  0.95889998  0.41596057  0.14884053  1
  P  P233  1  0.95846282  0.41421866  0.39685251  1
  P  P234  1  0.95916201  0.41611242  0.64826586  1
  P  P235  1  0.95742716  0.41604623  0.89603780  1
  P  P236  1  0.95752789  0.75088392  0.14776065  1
  P  P237  1  0.95814126  0.75091863  0.39733954  1
  P  P238  1  0.95814478  0.75140492  0.64699815  1
  P  P239  1  0.95772086  0.75012696  0.89608018  1
  P  P240  1  0.20795959  0.08156801  0.22738160  1
  P  P241  1  0.20716403  0.08133657  0.47790401  1
  P  P242  1  0.20857419  0.08286441  0.72654826  1
  P  P243  1  0.20742855  0.08134395  0.97701919  1
  P  P244  1  0.20753050  0.41645298  0.22852993  1
  P  P245  1  0.20811488  0.41420249  0.47812728  1
  P  P246  1  0.20904312  0.41622277  0.72657528  1
  P  P247  1  0.20721345  0.41537461  0.97673404  1
  P  P248  1  0.20876092  0.74996405  0.22670242  1
  P  P249  1  0.20755106  0.74820800  0.47731590  1
  P  P250  1  0.20741059  0.75036154  0.72911416  1
  P  P251  1  0.20815845  0.75015722  0.97708937  1
  P  P252  1  0.70750450  0.08394903  0.22778113  1
  P  P253  1  0.70733315  0.08174394  0.47764581  1
  P  P254  1  0.70726952  0.08291239  0.72891302  1
  P  P255  1  0.70793700  0.08284423  0.97787790  1
  P  P256  1  0.70806062  0.41617697  0.22788915  1
  P  P257  1  0.70876509  0.41916817  0.47796487  1
  P  P258  1  0.70780725  0.41872651  0.72710064  1
  P  P259  1  0.70732816  0.41700371  0.97879196  1
  P  P260  1  0.70789320  0.74892045  0.22803542  1
  P  P261  1  0.70858398  0.75108510  0.47844934  1
  P  P262  1  0.70866638  0.75132502  0.72646498  1
  P  P263  1  0.70774752  0.75137479  0.97764132  1
  P  P264  1  0.29263561  0.24967630  0.02069934  1
  P  P265  1  0.29235827  0.25051877  0.27276952  1
  P  P266  1  0.29093288  0.24945064  0.52331574  1
  P  P267  1  0.29136165  0.25136110  0.77122945  1
  P  P268  1  0.29188842  0.58519323  0.02205265  1
  P  P269  1  0.29233496  0.58516502  0.27251943  1
  P  P270  1  0.29204538  0.58146370  0.52258801  1
  P  P271  1  0.29244924  0.58440356  0.77267933  1
  P  P272  1  0.29047963  0.91630445  0.02261630  1
  P  P273  1  0.29180227  0.91778459  0.27196931  1
  P  P274  1  0.29182648  0.91770079  0.52247017  1
  P  P275  1  0.29104370  0.91699860  0.77335817  1
  P  P276  1  0.79136741  0.25003794  0.02402898  1
  P  P277  1  0.79241245  0.24978586  0.27092974  1
  P  P278  1  0.79350389  0.24988829  0.52166833  1
  P  P279  1  0.79294571  0.25057203  0.77172007  1
  P  P280  1  0.79297864  0.58545639  0.02267943  1
  P  P281  1  0.79290804  0.58233277  0.27255077  1
  P  P282  1  0.79182338  0.58351867  0.52336151  1
  P  P283  1  0.79271491  0.58409083  0.77072897  1
  P  P284  1  0.79301108  0.91693373  0.02116702  1
  P  P285  1  0.79119987  0.91640554  0.27373196  1
  P  P286  1  0.79219459  0.91532009  0.52199615  1
  P  P287  1  0.79126763  0.91637438  0.77356096  1
  O  O288  1  0.03694724  0.24804724  0.18253963  1
  O  O289  1  0.03676280  0.24972218  0.43137298  1
  O  O290  1  0.03653619  0.25018388  0.68264925  1
  O  O291  1  0.03709202  0.24908766  0.93100852  1
  O  O292  1  0.03763614  0.58240662  0.18389593  1
  O  O293  1  0.03736198  0.58159311  0.43280274  1
  O  O294  1  0.03784564  0.58232307  0.68356944  1
  O  O295  1  0.03759114  0.58191182  0.93216720  1
  O  O296  1  0.03699048  0.91684090  0.18360249  1
  O  O297  1  0.03638350  0.91538528  0.43135240  1
  O  O298  1  0.03650779  0.91553533  0.68273030  1
  O  O299  1  0.03665825  0.91753199  0.93105066  1
  O  O300  1  0.53785884  0.25060333  0.18299944  1
  O  O301  1  0.53787017  0.25152319  0.43392035  1
  O  O302  1  0.53667390  0.25144756  0.68351467  1
  O  O303  1  0.53648599  0.25072137  0.93135261  1
  O  O304  1  0.53752938  0.58282628  0.18237845  1
  O  O305  1  0.53718125  0.58390093  0.43472767  1
  O  O306  1  0.53664353  0.58454144  0.68207636  1
  O  O307  1  0.53730902  0.58439356  0.93237474  1
  O  O308  1  0.53653760  0.91698562  0.18117733  1
  O  O309  1  0.53722580  0.91556819  0.43405655  1
  O  O310  1  0.53704412  0.91586065  0.68280301  1
  O  O311  1  0.53641604  0.91713918  0.93403401  1
  O  O312  1  0.46235222  0.08252675  0.06631338  1
  O  O313  1  0.46155596  0.08357095  0.31727479  1
  O  O314  1  0.46235406  0.08466813  0.56794224  1
  O  O315  1  0.46290482  0.08393584  0.81705104  1
  O  O316  1  0.46176184  0.41834464  0.06661491  1
  O  O317  1  0.46281281  0.41709984  0.31955116  1
  O  O318  1  0.46348985  0.41596677  0.56716794  1
  O  O319  1  0.46343359  0.41798316  0.81686537  1
  O  O320  1  0.46256461  0.75102473  0.06647652  1
  O  O321  1  0.46312897  0.75015959  0.31903561  1
  O  O322  1  0.46322759  0.74876666  0.56711034  1
  O  O323  1  0.46242218  0.75057354  0.81749432  1
  O  O324  1  0.96349080  0.08356233  0.06825384  1
  O  O325  1  0.96296809  0.08251573  0.31578516  1
  O  O326  1  0.96311587  0.08256893  0.56800470  1
  O  O327  1  0.96339040  0.08486645  0.81670556  1
  O  O328  1  0.96338222  0.41571395  0.06881871  1
  O  O329  1  0.96403017  0.41476822  0.31701005  1
  O  O330  1  0.96390808  0.41533543  0.56828539  1
  O  O331  1  0.96275488  0.41639937  0.81614697  1
  O  O332  1  0.96258196  0.75048746  0.06777909  1
  O  O333  1  0.96336784  0.75068505  0.31736897  1
  O  O334  1  0.96357985  0.75142402  0.56706747  1
  O  O335  1  0.96298205  0.75043480  0.81612703  1
  O  O336  1  0.21279031  0.08114795  0.05692274  1
  O  O337  1  0.21308142  0.08186906  0.30731668  1
  O  O338  1  0.21267088  0.08158402  0.55776779  1
  O  O339  1  0.21329652  0.08305222  0.80648056  1
  O  O340  1  0.21240756  0.41573836  0.05667679  1
  O  O341  1  0.21289151  0.41595820  0.30846700  1
  O  O342  1  0.21357400  0.41416708  0.55798903  1
  O  O343  1  0.21369698  0.41637751  0.80655158  1
  O  O344  1  0.21351843  0.75001883  0.05700450  1
  O  O345  1  0.21338222  0.75015757  0.30666013  1
  O  O346  1  0.21251700  0.74859267  0.55725166  1
  O  O347  1  0.21273618  0.75066869  0.80900600  1
  O  O348  1  0.71303205  0.08360323  0.05785311  1
  O  O349  1  0.71245733  0.08310261  0.30775142  1
  O  O350  1  0.71251455  0.08189677  0.55764137  1
  O  O351  1  0.71254357  0.08261477  0.80885542  1
  O  O352  1  0.71265730  0.41632449  0.05874552  1
  O  O353  1  0.71344212  0.41691611  0.30783081  1
  O  O354  1  0.71418260  0.41956749  0.55789670  1
  O  O355  1  0.71254827  0.41842615  0.80711970  1
  O  O356  1  0.71289693  0.75041793  0.05753706  1
  O  O357  1  0.71321140  0.74939999  0.30797630  1
  O  O358  1  0.71382656  0.75116024  0.55828770  1
  O  O359  1  0.71335998  0.75163547  0.80645891  1
  O  O360  1  0.28753135  0.25021450  0.19279264  1
  O  O361  1  0.28633930  0.24932988  0.44332390  1
  O  O362  1  0.28574543  0.25121669  0.69136883  1
  O  O363  1  0.28714239  0.25006455  0.94076339  1
  O  O364  1  0.28693541  0.58542285  0.19258590  1
  O  O365  1  0.28712749  0.58172005  0.44270889  1
  O  O366  1  0.28734597  0.58358127  0.69278743  1
  O  O367  1  0.28645812  0.58509403  0.94214316  1
  O  O368  1  0.28637403  0.91737846  0.19211450  1
  O  O369  1  0.28672591  0.91756509  0.44254058  1
  O  O370  1  0.28631000  0.91738258  0.69337825  1
  O  O371  1  0.28535657  0.91584988  0.94274202  1
  O  O372  1  0.78667841  0.24977722  0.19107396  1
  O  O373  1  0.78836848  0.24995728  0.44170574  1
  O  O374  1  0.78824049  0.25051887  0.69175906  1
  O  O375  1  0.78638779  0.25011906  0.94399318  1
  O  O376  1  0.78784438  0.58297620  0.19265100  1
  O  O377  1  0.78723264  0.58317494  0.44334844  1
  O  O378  1  0.78736647  0.58375021  0.69083041  1
  O  O379  1  0.78791322  0.58533922  0.94267335  1
  O  O380  1  0.78663637  0.91637987  0.19372200  1
  O  O381  1  0.78675873  0.91572903  0.44215828  1
  O  O382  1  0.78641394  0.91604368  0.69357226  1
  O  O383  1  0.78768047  0.91709944  0.94129828  1
  O  O384  1  0.22837224  0.24925498  0.05623501  1
  O  O385  1  0.22792323  0.25079436  0.30813672  1
  O  O386  1  0.22672757  0.24978122  0.55900479  1
  O  O387  1  0.22730791  0.25145023  0.80761641  1
  O  O388  1  0.22773603  0.58549490  0.05811361  1
  O  O389  1  0.22808080  0.58459850  0.30839495  1
  O  O390  1  0.22779403  0.58125211  0.55829413  1
  O  O391  1  0.22813498  0.58464644  0.80828969  1
  O  O392  1  0.22653771  0.91670417  0.05912965  1
  O  O393  1  0.22766946  0.91784854  0.30831607  1
  O  O394  1  0.22747625  0.91808251  0.55803083  1
  O  O395  1  0.22676252  0.91642543  0.80911398  1
  O  O396  1  0.72714160  0.25018231  0.05978145  1
  O  O397  1  0.72839901  0.25011673  0.30717703  1
  O  O398  1  0.72904040  0.25043496  0.55668679  1
  O  O399  1  0.72840850  0.25025891  0.80651341  1
  O  O400  1  0.72858348  0.58510997  0.05810879  1
  O  O401  1  0.72859313  0.58221002  0.30821185  1
  O  O402  1  0.72759079  0.58326870  0.55902750  1
  O  O403  1  0.72852443  0.58448050  0.80654650  1
  O  O404  1  0.72873203  0.91680975  0.05679916  1
  O  O405  1  0.72698637  0.91675340  0.30945508  1
  O  O406  1  0.72796994  0.91480909  0.55804497  1
  O  O407  1  0.72710655  0.91625905  0.80960581  1
  O  O408  1  0.27213848  0.08101026  0.19139676  1
  O  O409  1  0.27133596  0.08120177  0.44171624  1
  O  O410  1  0.27268536  0.08253116  0.69053513  1
  O  O411  1  0.27165258  0.08166363  0.94119030  1
  O  O412  1  0.27177613  0.41696420  0.19297891  1
  O  O413  1  0.27225386  0.41433756  0.44191059  1
  O  O414  1  0.27320640  0.41569514  0.69075990  1
  O  O415  1  0.27159174  0.41522182  0.94121637  1
  O  O416  1  0.27289194  0.74980953  0.19074028  1
  O  O417  1  0.27197381  0.74835895  0.44198063  1
  O  O418  1  0.27156764  0.75017282  0.69326016  1
  O  O419  1  0.27218717  0.75054212  0.94055451  1
  O  O420  1  0.77188706  0.08445179  0.19234366  1
  O  O421  1  0.77166782  0.08119109  0.44209987  1
  O  O422  1  0.77164758  0.08267894  0.69358778  1
  O  O423  1  0.77222757  0.08247452  0.94228847  1
  O  O424  1  0.77227946  0.41569185  0.19199913  1
  O  O425  1  0.77295566  0.41899908  0.44201864  1
  O  O426  1  0.77233922  0.41914862  0.69204203  1
  O  O427  1  0.77172549  0.41712537  0.94351828  1
  O  O428  1  0.77222101  0.74855484  0.19229344  1
  O  O429  1  0.77263983  0.75112713  0.44217737  1
  O  O430  1  0.77287291  0.75146732  0.69062448  1
  O  O431  1  0.77203318  0.75248785  0.94184609  1
  O  O432  1  0.02274920  0.08333511  0.18424361  1
  O  O433  1  0.02162010  0.08282147  0.43159462  1
  O  O434  1  0.02278108  0.08349296  0.68354675  1
  O  O435  1  0.02242674  0.08515725  0.93259111  1
  O  O436  1  0.02315905  0.41658318  0.18434937  1
  O  O437  1  0.02257405  0.41388661  0.43312530  1
  O  O438  1  0.02330712  0.41654167  0.68418117  1
  O  O439  1  0.02171694  0.41553789  0.93162424  1
  O  O440  1  0.02193665  0.75102909  0.18309412  1
  O  O441  1  0.02244555  0.75130314  0.43302474  1
  O  O442  1  0.02228212  0.75131242  0.68292396  1
  O  O443  1  0.02204706  0.74986565  0.93149168  1
  O  O444  1  0.52139062  0.08336683  0.18171814  1
  O  O445  1  0.52089212  0.08381155  0.43219486  1
  O  O446  1  0.52181405  0.08515486  0.68315786  1
  O  O447  1  0.52173303  0.08230309  0.93280575  1
  O  O448  1  0.52125940  0.41747256  0.18166009  1
  O  O449  1  0.52279766  0.41658390  0.43486050  1
  O  O450  1  0.52237270  0.41588583  0.68305338  1
  O  O451  1  0.52204684  0.41926983  0.93277617  1
  O  O452  1  0.52190513  0.75021207  0.18158955  1
  O  O453  1  0.52248107  0.75027000  0.43477193  1
  O  O454  1  0.52199558  0.74834672  0.68301441  1
  O  O455  1  0.52171737  0.75182475  0.93293878  1
  O  O456  1  0.47858587  0.25078189  0.06797071  1
  O  O457  1  0.47838996  0.25074105  0.31889020  1
  O  O458  1  0.47783085  0.25229097  0.56763870  1
  O  O459  1  0.47698069  0.25098341  0.81568721  1
  O  O460  1  0.47817940  0.58248595  0.06692712  1
  O  O461  1  0.47826729  0.58400795  0.31914369  1
  O  O462  1  0.47711502  0.58442985  0.56636730  1
  O  O463  1  0.47821698  0.58540101  0.81674485  1
  O  O464  1  0.47689843  0.91681312  0.06553102  1
  O  O465  1  0.47812872  0.91639625  0.31882757  1
  O  O466  1  0.47769981  0.91528108  0.56755365  1
  O  O467  1  0.47779473  0.91697413  0.81832009  1
  O  O468  1  0.97785479  0.24781054  0.06667541  1
  O  O469  1  0.97763968  0.24812948  0.31534851  1
  O  O470  1  0.97778168  0.25102224  0.56659901  1
  O  O471  1  0.97740138  0.24860120  0.81542950  1
  O  O472  1  0.97858852  0.58288025  0.06856476  1
  O  O473  1  0.97839115  0.58117141  0.31714192  1
  O  O474  1  0.97879312  0.58280991  0.56827427  1
  O  O475  1  0.97845990  0.58131187  0.81658406  1
  O  O476  1  0.97824497  0.91723028  0.06791228  1
  O  O477  1  0.97701440  0.91554150  0.31549370  1
  O  O478  1  0.97785515  0.91457485  0.56665884  1
  O  O479  1  0.97674051  0.91667313  0.81561560  1
  O  O480  1  0.07312350  0.31153142  0.07445594  1
  O  O481  1  0.07198012  0.31269703  0.32242021  1
  O  O482  1  0.07295597  0.31383957  0.57413276  1
  O  O483  1  0.07163441  0.31320654  0.82249346  1
  O  O484  1  0.07382910  0.64633267  0.07574891  1
  O  O485  1  0.07363112  0.64506408  0.32532036  1
  O  O486  1  0.07425354  0.64606625  0.57571554  1
  O  O487  1  0.07357846  0.64545328  0.82453623  1
  O  O488  1  0.07382514  0.98002838  0.07516786  1
  O  O489  1  0.07147932  0.97980564  0.32336325  1
  O  O490  1  0.07274136  0.97891232  0.57460696  1
  O  O491  1  0.07127663  0.98078893  0.82231313  1
  O  O492  1  0.57408400  0.31394736  0.07481350  1
  O  O493  1  0.57399543  0.31427629  0.32533783  1
  O  O494  1  0.57325214  0.31501978  0.57496148  1
  O  O495  1  0.57208823  0.31461804  0.82354196  1
  O  O496  1  0.57361556  0.64618339  0.07464684  1
  O  O497  1  0.57383333  0.64709916  0.32620406  1
  O  O498  1  0.57275145  0.64723516  0.57358261  1
  O  O499  1  0.57288993  0.64913875  0.82425152  1
  O  O500  1  0.57181488  0.98069889  0.07297399  1
  O  O501  1  0.57336658  0.97988425  0.32614841  1
  O  O502  1  0.57304488  0.97926714  0.57519539  1
  O  O503  1  0.57321978  0.98039740  0.82574948  1
  O  O504  1  0.42598595  0.01971888  0.17478189  1
  O  O505  1  0.42556954  0.02014410  0.42548984  1
  O  O506  1  0.42637771  0.02136640  0.67555552  1
  O  O507  1  0.42646288  0.01963674  0.92515149  1
  O  O508  1  0.42585868  0.35411295  0.17468325  1
  O  O509  1  0.42747641  0.35328141  0.42763776  1
  O  O510  1  0.42712648  0.35290685  0.67611074  1
  O  O511  1  0.42677260  0.35511044  0.92471274  1
  O  O512  1  0.42668067  0.68674596  0.17446900  1
  O  O513  1  0.42747179  0.68645684  0.42706406  1
  O  O514  1  0.42688116  0.68521788  0.67585861  1
  O  O515  1  0.42635970  0.68790853  0.92571787  1
  O  O516  1  0.92812718  0.01931884  0.17634614  1
  O  O517  1  0.92639982  0.01930935  0.42421361  1
  O  O518  1  0.92814106  0.01939134  0.67669473  1
  O  O519  1  0.92724372  0.02133264  0.92478513  1
  O  O520  1  0.92889686  0.35177246  0.17702703  1
  O  O521  1  0.92747887  0.35081432  0.42534698  1
  O  O522  1  0.92851270  0.35256319  0.67712983  1
  O  O523  1  0.92613507  0.35265619  0.92435180  1
  O  O524  1  0.92651294  0.68740801  0.17589839  1
  O  O525  1  0.92749927  0.68696466  0.42520909  1
  O  O526  1  0.92707890  0.68758539  0.67435994  1
  O  O527  1  0.92673401  0.68651294  0.92411375  1
  O  O528  1  0.17660433  0.01841176  0.19895502  1
  O  O529  1  0.17613874  0.01806717  0.44901243  1
  O  O530  1  0.17725139  0.01950596  0.69838677  1
  O  O531  1  0.17662121  0.01795248  0.94811552  1
  O  O532  1  0.17633128  0.35320361  0.20002619  1
  O  O533  1  0.17732230  0.35075740  0.44915177  1
  O  O534  1  0.17730597  0.35318571  0.69834760  1
  O  O535  1  0.17649921  0.35183980  0.94816946  1
  O  O536  1  0.17747637  0.68662344  0.19844544  1
  O  O537  1  0.17712073  0.68448678  0.44885198  1
  O  O538  1  0.17608820  0.68694488  0.70098249  1
  O  O539  1  0.17742979  0.68644200  0.94861096  1
  O  O540  1  0.67644171  0.02047926  0.19934207  1
  O  O541  1  0.67633019  0.01832888  0.44930439  1
  O  O542  1  0.67575422  0.01975096  0.70059380  1
  O  O543  1  0.67730755  0.01911723  0.94953750  1
  O  O544  1  0.67724128  0.35249659  0.19975218  1
  O  O545  1  0.67775037  0.35520807  0.45073197  1
  O  O546  1  0.67722249  0.35490441  0.69897871  1
  O  O547  1  0.67599891  0.35390849  0.94999032  1
  O  O548  1  0.67731248  0.68519071  0.19956963  1
  O  O549  1  0.67737028  0.68744338  0.45060112  1
  O  O550  1  0.67859386  0.68713439  0.69809252  1
  O  O551  1  0.67705540  0.68782625  0.94893981  1
  O  O552  1  0.32394576  0.31289646  0.04910766  1
  O  O553  1  0.32310459  0.31404237  0.30136045  1
  O  O554  1  0.32241948  0.31260495  0.55162811  1
  O  O555  1  0.32238061  0.31471535  0.80000934  1
  O  O556  1  0.32315536  0.64840616  0.05052699  1
  O  O557  1  0.32279737  0.64870977  0.30157573  1
  O  O558  1  0.32326924  0.64488755  0.55068440  1
  O  O559  1  0.32294044  0.64819454  0.80103171  1
  O  O560  1  0.32182981  0.97975857  0.05066192  1
  O  O561  1  0.32276669  0.98112892  0.30067385  1
  O  O562  1  0.32304558  0.98077290  0.55137154  1
  O  O563  1  0.32155552  0.98078506  0.80193167  1
  O  O564  1  0.82233021  0.31371008  0.05208713  1
  O  O565  1  0.82399146  0.31305588  0.29909523  1
  O  O566  1  0.82481787  0.31326709  0.54973070  1
  O  O567  1  0.82355830  0.31423936  0.80003490  1
  O  O568  1  0.82320890  0.64919961  0.05131934  1
  O  O569  1  0.82423979  0.64554846  0.30110421  1
  O  O570  1  0.82183031  0.64785834  0.55149045  1
  O  O571  1  0.82411248  0.64759893  0.79863469  1
  O  O572  1  0.82423375  0.98022669  0.04995808  1
  O  O573  1  0.82210727  0.98008527  0.30169742  1
  O  O574  1  0.82309254  0.97895692  0.55053241  1
  O  O575  1  0.82157778  0.98050446  0.80162118  1
  O  O576  1  0.42598462  0.14671835  0.17415389  1
  O  O577  1  0.42527270  0.14708886  0.42541807  1
  O  O578  1  0.42683120  0.14870796  0.67634975  1
  O  O579  1  0.42656758  0.14679808  0.92506169  1
  O  O580  1  0.42569177  0.48093761  0.17565051  1
  O  O581  1  0.42805093  0.48076387  0.42810586  1
  O  O582  1  0.42719149  0.47979822  0.67489447  1
  O  O583  1  0.42700951  0.48234494  0.92495644  1
  O  O584  1  0.42627278  0.81362341  0.17518114  1
  O  O585  1  0.42734931  0.81386529  0.42722037  1
  O  O586  1  0.42659884  0.81218834  0.67508058  1
  O  O587  1  0.42659192  0.81497735  0.92574521  1
  O  O588  1  0.92743629  0.14664465  0.17666351  1
  O  O589  1  0.92615878  0.14602762  0.42397411  1
  O  O590  1  0.92744053  0.14685319  0.67569476  1
  O  O591  1  0.92727125  0.14820963  0.92582979  1
  O  O592  1  0.92762933  0.47936698  0.17702694  1
  O  O593  1  0.92737053  0.47780075  0.42527946  1
  O  O594  1  0.92822598  0.47998437  0.67593677  1
  O  O595  1  0.92637349  0.47936056  0.92492822  1
  O  O596  1  0.92676003  0.81454676  0.17602800  1
  O  O597  1  0.92694439  0.81416271  0.42580131  1
  O  O598  1  0.92711766  0.81468788  0.67579703  1
  O  O599  1  0.92661294  0.81350387  0.92447796  1
  O  O600  1  0.07294717  0.18455366  0.07366079  1
  O  O601  1  0.07316421  0.18543757  0.32376244  1
  O  O602  1  0.07277397  0.18681916  0.57451037  1
  O  O603  1  0.07325180  0.18599673  0.82244128  1
  O  O604  1  0.07416731  0.51937343  0.07549689  1
  O  O605  1  0.07344243  0.51770148  0.32467605  1
  O  O606  1  0.07422330  0.51918905  0.57519582  1
  O  O607  1  0.07372784  0.51821765  0.82377472  1
  O  O608  1  0.07340474  0.85334400  0.07519910  1
  O  O609  1  0.07255407  0.85240689  0.32283346  1
  O  O610  1  0.07337683  0.85200116  0.57413906  1
  O  O611  1  0.07200768  0.85325528  0.82322292  1
  O  O612  1  0.57386857  0.18701213  0.07484762  1
  O  O613  1  0.57376906  0.18728614  0.32586710  1
  O  O614  1  0.57304309  0.18810174  0.57530492  1
  O  O615  1  0.57186191  0.18700652  0.82316249  1
  O  O616  1  0.57313808  0.51900290  0.07366143  1
  O  O617  1  0.57356344  0.52036347  0.32629800  1
  O  O618  1  0.57134616  0.51984888  0.57405983  1
  O  O619  1  0.57398718  0.52206392  0.82399923  1
  O  O620  1  0.57205409  0.85311732  0.07317754  1
  O  O621  1  0.57379258  0.85307147  0.32530134  1
  O  O622  1  0.57278911  0.85188305  0.57453906  1
  O  O623  1  0.57331598  0.85375986  0.82576344  1
  O  O624  1  0.32367681  0.18597283  0.04853591  1
  O  O625  1  0.32316188  0.18680725  0.30070596  1
  O  O626  1  0.32103473  0.18534770  0.55182226  1
  O  O627  1  0.32256408  0.18772628  0.79899851  1
  O  O628  1  0.32255731  0.52120199  0.04975636  1
  O  O629  1  0.32377459  0.52162115  0.30010582  1
  O  O630  1  0.32248266  0.51769807  0.55130171  1
  O  O631  1  0.32377040  0.52104243  0.80081974  1
  O  O632  1  0.32102831  0.85261658  0.05152229  1
  O  O633  1  0.32294158  0.85418180  0.30016434  1
  O  O634  1  0.32240729  0.85372956  0.55039047  1
  O  O635  1  0.32217002  0.85350553  0.80150900  1
  O  O636  1  0.82197403  0.18612677  0.05189781  1
  O  O637  1  0.82354125  0.18632309  0.29916418  1
  O  O638  1  0.82407353  0.18607499  0.54959897  1
  O  O639  1  0.82411352  0.18724272  0.79999602  1
  O  O640  1  0.82434553  0.52189196  0.05021339  1
  O  O641  1  0.82336798  0.51852093  0.30086163  1
  O  O642  1  0.82342450  0.52049313  0.55182304  1
  O  O643  1  0.82379321  0.52085830  0.79962897  1
  O  O644  1  0.82424460  0.85363396  0.04968358  1
  O  O645  1  0.82157128  0.85241926  0.30174868  1
  O  O646  1  0.82340947  0.85216967  0.55079298  1
  O  O647  1  0.82243634  0.85303966  0.80180324  1
  O  O648  1  0.17746719  0.14554442  0.19935884  1
  O  O649  1  0.17607079  0.14500442  0.44986799  1
  O  O650  1  0.17833432  0.14688698  0.69802308  1
  O  O651  1  0.17624767  0.14497018  0.94929140  1
  O  O652  1  0.17648684  0.48015360  0.20076488  1
  O  O653  1  0.17673775  0.47772356  0.45035828  1
  O  O654  1  0.17919583  0.48050584  0.69814461  1
  O  O655  1  0.17622081  0.47911021  0.94908312  1
  O  O656  1  0.17841000  0.81388646  0.19808149  1
  O  O657  1  0.17642061  0.81174315  0.44937593  1
  O  O658  1  0.17631614  0.81367184  0.70033984  1
  O  O659  1  0.17688520  0.81366321  0.94894873  1
  O  O660  1  0.67680779  0.14759863  0.19942922  1
  O  O661  1  0.67661337  0.14566816  0.45014996  1
  O  O662  1  0.67656306  0.14663247  0.70072252  1
  O  O663  1  0.67660232  0.14621348  0.94974963  1
  O  O664  1  0.67684820  0.47961246  0.19981513  1
  O  O665  1  0.67780928  0.48237833  0.44909922  1
  O  O666  1  0.67684717  0.48211725  0.69867957  1
  O  O667  1  0.67656566  0.48083887  0.95103738  1
  O  O668  1  0.67673737  0.81240809  0.19994585  1
  O  O669  1  0.67761301  0.81430991  0.44935490  1
  O  O670  1  0.67731951  0.81451562  0.69809554  1
  O  O671  1  0.67660254  0.81485291  0.94960593  1
