# generated using pymatgen
data_Na2MnFe(PO4)2
_symmetry_space_group_name_H-M   'P 1'
_cell_length_a   22.34413390
_cell_length_b   20.09125080
_cell_length_c   19.44899987
_cell_angle_alpha   90.00074168
_cell_angle_beta   90.03093203
_cell_angle_gamma   90.05367065
_symmetry_Int_Tables_number   1
_chemical_formula_structural   Na2MnFe(PO4)2
_chemical_formula_sum   'Na96 Mn48 Fe48 P96 O384'
_cell_volume   8731.07100288
_cell_formula_units_Z   48
loop_
 _symmetry_equiv_pos_site_id
 _symmetry_equiv_pos_as_xyz
  1  'x, y, z'
loop_
 _atom_site_type_symbol
 _atom_site_label
 _atom_site_symmetry_multiplicity
 _atom_site_fract_x
 _atom_site_fract_y
 _atom_site_fract_z
 _atom_site_occupancy
  Na  Na0  1  0.14040356  0.25014906  0.24314605  1
  Na  Na1  1  0.14014905  0.24969843  0.49306977  1
  Na  Na2  1  0.13956482  0.24992131  0.74396615  1
  Na  Na3  1  0.14003838  0.25105843  0.99243938  1
  Na  Na4  1  0.13983404  0.58256302  0.24319160  1
  Na  Na5  1  0.14032447  0.58368792  0.49387980  1
  Na  Na6  1  0.14069031  0.58305501  0.74423290  1
  Na  Na7  1  0.14028789  0.58174476  0.99493603  1
  Na  Na8  1  0.14010351  0.91713989  0.24499448  1
  Na  Na9  1  0.13992555  0.91622775  0.49448889  1
  Na  Na10  1  0.14013273  0.91564355  0.74322247  1
  Na  Na11  1  0.14001409  0.91629729  0.99407167  1
  Na  Na12  1  0.64093373  0.24954413  0.24365645  1
  Na  Na13  1  0.64042632  0.24993260  0.49385084  1
  Na  Na14  1  0.64012397  0.24897537  0.74365729  1
  Na  Na15  1  0.64014442  0.24904433  0.99357387  1
  Na  Na16  1  0.64020792  0.58302729  0.24377927  1
  Na  Na17  1  0.64052468  0.58350882  0.49360491  1
  Na  Na18  1  0.64017409  0.58482477  0.74334685  1
  Na  Na19  1  0.63988335  0.58489459  0.99220437  1
  Na  Na20  1  0.64027963  0.91790355  0.24365295  1
  Na  Na21  1  0.63998456  0.91631882  0.49396928  1
  Na  Na22  1  0.64020693  0.91636339  0.74427526  1
  Na  Na23  1  0.64043593  0.91773179  0.99352492  1
  Na  Na24  1  0.36010728  0.08364553  0.00637264  1
  Na  Na25  1  0.35989207  0.08290358  0.25521578  1
  Na  Na26  1  0.35973972  0.08202374  0.50656218  1
  Na  Na27  1  0.36021353  0.08371468  0.75802052  1
  Na  Na28  1  0.35988265  0.41696548  0.00553939  1
  Na  Na29  1  0.35993133  0.41739094  0.25445941  1
  Na  Na30  1  0.35949164  0.41795420  0.50562097  1
  Na  Na31  1  0.35960623  0.41631785  0.75736228  1
  Na  Na32  1  0.36011413  0.74891857  0.00689436  1
  Na  Na33  1  0.35922025  0.75044208  0.25561396  1
  Na  Na34  1  0.36008663  0.74966503  0.50707980  1
  Na  Na35  1  0.36000501  0.74835286  0.75598452  1
  Na  Na36  1  0.85988535  0.08431589  0.00650459  1
  Na  Na37  1  0.85987427  0.08384825  0.25655827  1
  Na  Na38  1  0.85990868  0.08215242  0.50638883  1
  Na  Na39  1  0.85970402  0.08275467  0.75587638  1
  Na  Na40  1  0.85936294  0.41600755  0.00602747  1
  Na  Na41  1  0.85966460  0.41662122  0.25669383  1
  Na  Na42  1  0.85987174  0.41605033  0.50551606  1
  Na  Na43  1  0.85950291  0.41658141  0.75622906  1
  Na  Na44  1  0.85987009  0.75167086  0.00596382  1
  Na  Na45  1  0.85936002  0.75012905  0.25735288  1
  Na  Na46  1  0.85942752  0.75106327  0.50699178  1
  Na  Na47  1  0.85978393  0.75129194  0.75633999  1
  Na  Na48  1  0.10915683  0.08406904  0.11833993  1
  Na  Na49  1  0.10964302  0.08290265  0.36975678  1
  Na  Na50  1  0.10909142  0.08376902  0.61857605  1
  Na  Na51  1  0.10933782  0.08439963  0.86851972  1
  Na  Na52  1  0.10976200  0.41619996  0.11773909  1
  Na  Na53  1  0.10954608  0.41652312  0.36754425  1
  Na  Na54  1  0.10942743  0.41529235  0.61921850  1
  Na  Na55  1  0.10979599  0.41495846  0.86876870  1
  Na  Na56  1  0.10897931  0.74964729  0.11974594  1
  Na  Na57  1  0.10906300  0.74983437  0.36984396  1
  Na  Na58  1  0.10986756  0.75105490  0.61862751  1
  Na  Na59  1  0.10953374  0.75059872  0.86927755  1
  Na  Na60  1  0.61006525  0.08229959  0.11801238  1
  Na  Na61  1  0.60995958  0.08247204  0.36847036  1
  Na  Na62  1  0.60948646  0.08153898  0.61950191  1
  Na  Na63  1  0.60983877  0.08355473  0.86940019  1
  Na  Na64  1  0.60954781  0.41749212  0.11866955  1
  Na  Na65  1  0.61023445  0.41701829  0.36830185  1
  Na  Na66  1  0.60967976  0.41841498  0.61842490  1
  Na  Na67  1  0.60911253  0.41762290  0.86769822  1
  Na  Na68  1  0.60921415  0.75034924  0.11730399  1
  Na  Na69  1  0.60943918  0.75068572  0.36923236  1
  Na  Na70  1  0.60991827  0.75018173  0.61912655  1
  Na  Na71  1  0.60999007  0.75030380  0.86834949  1
  Na  Na72  1  0.39050245  0.24984914  0.13017106  1
  Na  Na73  1  0.39078161  0.25028131  0.38039291  1
  Na  Na74  1  0.39073339  0.24977683  0.63263797  1
  Na  Na75  1  0.39037193  0.24970511  0.88211883  1
  Na  Na76  1  0.39046060  0.58297942  0.13013399  1
  Na  Na77  1  0.39019972  0.58331844  0.38081864  1
  Na  Na78  1  0.39035779  0.58405153  0.63140748  1
  Na  Na79  1  0.39064958  0.58373579  0.88114592  1
  Na  Na80  1  0.39032199  0.91615261  0.13044223  1
  Na  Na81  1  0.39030033  0.91645241  0.38146339  1
  Na  Na82  1  0.39058606  0.91541329  0.63197632  1
  Na  Na83  1  0.39098835  0.91684971  0.88196070  1
  Na  Na84  1  0.89026245  0.25044734  0.13090186  1
  Na  Na85  1  0.89078535  0.24918694  0.38098517  1
  Na  Na86  1  0.89075462  0.24965024  0.63012764  1
  Na  Na87  1  0.89006484  0.24944016  0.88096067  1
  Na  Na88  1  0.89035910  0.58322531  0.13165730  1
  Na  Na89  1  0.89041152  0.58259030  0.38144142  1
  Na  Na90  1  0.89045112  0.58297828  0.63173057  1
  Na  Na91  1  0.89047861  0.58401094  0.88144733  1
  Na  Na92  1  0.89027530  0.91696781  0.13205508  1
  Na  Na93  1  0.88985853  0.91742144  0.38303441  1
  Na  Na94  1  0.88946607  0.91752787  0.63113636  1
  Na  Na95  1  0.89041667  0.91710754  0.88118043  1
  Mn  Mn96  1  0.50053704  0.16556010  0.25006086  1
  Mn  Mn97  1  0.50024876  0.33380523  0.50056612  1
  Mn  Mn98  1  0.25053160  0.33423442  0.37415733  1
  Mn  Mn99  1  0.24971726  -0.00093186  0.62621910  1
  Mn  Mn100  1  0.25033067  0.00001613  0.87472088  1
  Mn  Mn101  1  0.49998271  0.16606185  0.50038521  1
  Mn  Mn102  1  0.24937540  0.50047946  0.62553172  1
  Mn  Mn103  1  0.00010387  0.66693771  0.50076324  1
  Mn  Mn104  1  0.74979094  0.16598382  0.37503896  1
  Mn  Mn105  1  0.49940969  0.83361953  0.24890119  1
  Mn  Mn106  1  0.49913203  -0.00080063  0.50030551  1
  Mn  Mn107  1  0.00013272  0.49915170  0.00026320  1
  Mn  Mn108  1  0.24940652  0.16748639  0.12517130  1
  Mn  Mn109  1  0.49958689  0.50117859  0.49983319  1
  Mn  Mn110  1  0.75010282  0.00022576  0.87513107  1
  Mn  Mn111  1  0.74911484  0.33271477  0.12524138  1
  Mn  Mn112  1  0.24910006  0.66542565  0.87602987  1
  Mn  Mn113  1  -0.00002296  0.83292497  0.25119538  1
  Mn  Mn114  1  0.25085134  0.16613220  0.37419060  1
  Mn  Mn115  1  0.24991544  0.66617110  0.12538243  1
  Mn  Mn116  1  0.75000382  0.66669274  0.37575550  1
  Mn  Mn117  1  0.75045925  0.66713647  0.62461523  1
  Mn  Mn118  1  0.74938133  0.83462138  0.12551765  1
  Mn  Mn119  1  0.00007225  0.00072725  0.25061970  1
  Mn  Mn120  1  0.25003712  0.33334266  0.62489858  1
  Mn  Mn121  1  0.24970856  0.83377680  0.37602638  1
  Mn  Mn122  1  0.00008947  0.00035466  -0.00015617  1
  Mn  Mn123  1  0.75014585  0.16531577  0.62375532  1
  Mn  Mn124  1  0.50070061  0.33380378  0.24957189  1
  Mn  Mn125  1  0.74982943  0.50022983  0.12440868  1
  Mn  Mn126  1  0.00053504  0.33262667  0.24955571  1
  Mn  Mn127  1  0.50036635  0.33357629  0.75037054  1
  Mn  Mn128  1  0.24940713  0.66633908  0.37490147  1
  Mn  Mn129  1  0.00011869  0.49865701  0.75069600  1
  Mn  Mn130  1  0.24989732  0.83224860  0.87491052  1
  Mn  Mn131  1  0.00005526  0.00055118  0.75011356  1
  Mn  Mn132  1  0.74958487  0.50113852  0.87498762  1
  Mn  Mn133  1  0.24930369  -0.00037912  0.12487921  1
  Mn  Mn134  1  0.00030217  0.66730750  0.00068589  1
  Mn  Mn135  1  0.74926129  0.33254202  0.87519905  1
  Mn  Mn136  1  0.50043286  0.33365501  -0.00038454  1
  Mn  Mn137  1  0.49951292  0.66633643  0.24891713  1
  Mn  Mn138  1  0.49984675  0.83308359  0.75065212  1
  Mn  Mn139  1  0.00057807  0.49886804  0.50047793  1
  Mn  Mn140  1  0.00030904  0.66784701  0.75090960  1
  Mn  Mn141  1  0.74995336  0.66737935  0.12538121  1
  Mn  Mn142  1  0.25043528  0.16644071  0.62495266  1
  Mn  Mn143  1  0.75014284  0.33374246  0.62445567  1
  Fe  Fe144  1  0.24943827  0.16733398  0.87562150  1
  Fe  Fe145  1  0.25006733  0.49925016  0.12440220  1
  Fe  Fe146  1  0.50038377  0.50089226  -0.00094250  1
  Fe  Fe147  1  0.74952029  0.83375298  0.62528102  1
  Fe  Fe148  1  0.75017353  0.49977534  0.37483667  1
  Fe  Fe149  1  0.50003949  0.83355868  -0.00079167  1
  Fe  Fe150  1  0.24974842  0.50005985  0.37445559  1
  Fe  Fe151  1  0.25040719  0.83255247  0.62488739  1
  Fe  Fe152  1  0.25020655  0.33388987  0.12388755  1
  Fe  Fe153  1  0.75014999  0.16617369  0.87489490  1
  Fe  Fe154  1  0.75075084  0.00045100  0.12511751  1
  Fe  Fe155  1  0.49993122  0.00013000  -0.00016808  1
  Fe  Fe156  1  0.50027089  0.50063989  0.24945544  1
  Fe  Fe157  1  0.00015401  0.33253037  0.49937186  1
  Fe  Fe158  1  0.25038920  0.66617141  0.62506438  1
  Fe  Fe159  1  0.75058686  0.66792797  0.87394003  1
  Fe  Fe160  1  -0.00080687  0.66650722  0.25043874  1
  Fe  Fe161  1  0.75028421  0.33347048  0.37466312  1
  Fe  Fe162  1  0.25017910  0.49924125  0.87486766  1
  Fe  Fe163  1  -0.00006147  0.16732365  -0.00094372  1
  Fe  Fe164  1  -0.00054892  0.33213591  0.74942900  1
  Fe  Fe165  1  -0.00018758  0.83363273  0.00072970  1
  Fe  Fe166  1  0.49994374  0.66707157  0.75015880  1
  Fe  Fe167  1  0.50012932  0.50116972  0.74947003  1
  Fe  Fe168  1  -0.00074426  0.83367900  0.50026147  1
  Fe  Fe169  1  0.00030411  0.16666936  0.25012958  1
  Fe  Fe170  1  0.50041848  0.16594511  0.00017787  1
  Fe  Fe171  1  0.75067302  0.83408507  0.87490550  1
  Fe  Fe172  1  -0.00032872  0.49941508  0.25004707  1
  Fe  Fe173  1  0.75027509  0.50014958  0.62461187  1
  Fe  Fe174  1  0.24962013  0.83341147  0.12558910  1
  Fe  Fe175  1  0.74953162  -0.00090825  0.62548797  1
  Fe  Fe176  1  0.74966148  0.83399116  0.37537781  1
  Fe  Fe177  1  -0.00018851  0.00047789  0.50063970  1
  Fe  Fe178  1  -0.00066438  0.33288112  -0.00018731  1
  Fe  Fe179  1  0.50039318  0.16615502  0.75106450  1
  Fe  Fe180  1  0.25002552  0.33338109  0.87528799  1
  Fe  Fe181  1  0.50031612  0.66688924  0.49997929  1
  Fe  Fe182  1  0.25033863  -0.00054284  0.37523369  1
  Fe  Fe183  1  0.00003880  0.83443068  0.74982240  1
  Fe  Fe184  1  0.75042604  0.16646829  0.12536403  1
  Fe  Fe185  1  0.49975480  -0.00067572  0.24914565  1
  Fe  Fe186  1  -0.00060887  0.16721944  0.74910519  1
  Fe  Fe187  1  0.50010525  0.83299894  0.50033577  1
  Fe  Fe188  1  0.50015344  0.66645699  -0.00071010  1
  Fe  Fe189  1  0.00009515  0.16672219  0.50009864  1
  Fe  Fe190  1  0.74955903  -0.00025688  0.37516249  1
  Fe  Fe191  1  0.50032105  0.00002445  0.75116808  1
  P  P192  1  0.04157836  0.24990542  0.10125591  1
  P  P193  1  0.04259271  0.24825159  0.35288207  1
  P  P194  1  0.04167904  0.24990230  0.60179538  1
  P  P195  1  0.04087666  0.24964226  0.85182564  1
  P  P196  1  0.04217021  0.58306176  0.10438886  1
  P  P197  1  0.04118051  0.58315349  0.35171530  1
  P  P198  1  0.04291733  0.58301920  0.60367196  1
  P  P199  1  0.04296747  0.58309637  0.85352405  1
  P  P200  1  0.04198669  0.91593536  0.10286210  1
  P  P201  1  0.04207644  0.91704996  0.35470929  1
  P  P202  1  0.04077677  0.91679513  0.60206578  1
  P  P203  1  0.04238315  0.91590588  0.85281160  1
  P  P204  1  0.54237405  0.24872854  0.10211914  1
  P  P205  1  0.54344310  0.24989312  0.35298879  1
  P  P206  1  0.54285653  0.24952974  0.60408474  1
  P  P207  1  0.54211451  0.24868236  0.85322826  1
  P  P208  1  0.54193881  0.58355587  0.10114537  1
  P  P209  1  0.54209629  0.58313063  0.35228582  1
  P  P210  1  0.54231676  0.58516412  0.60301781  1
  P  P211  1  0.54150665  0.58402886  0.85178931  1
  P  P212  1  0.54127756  0.91692075  0.10114821  1
  P  P213  1  0.54175650  0.91726946  0.35226174  1
  P  P214  1  0.54195048  0.91525848  0.60310224  1
  P  P215  1  0.54209922  0.91777441  0.85359625  1
  P  P216  1  0.45818899  0.08159378  0.14629058  1
  P  P217  1  0.45707077  0.08258890  0.39649278  1
  P  P218  1  0.45845970  0.08274466  0.64947998  1
  P  P219  1  0.45874713  0.08329355  0.89804375  1
  P  P220  1  0.45861579  0.41859766  0.14649984  1
  P  P221  1  0.45754525  0.41726678  0.39635107  1
  P  P222  1  0.45777970  0.41831565  0.64801269  1
  P  P223  1  0.45841984  0.41853498  0.89685583  1
  P  P224  1  0.45698514  0.74979178  0.14520030  1
  P  P225  1  0.45846216  0.74996054  0.39835634  1
  P  P226  1  0.45833265  0.74875911  0.64716508  1
  P  P227  1  0.45881728  0.74955413  0.89792697  1
  P  P228  1  0.95815048  0.08525442  0.14720344  1
  P  P229  1  0.95870146  0.08373841  0.39856037  1
  P  P230  1  0.95786559  0.08466947  0.64663526  1
  P  P231  1  0.95774493  0.08485818  0.89698612  1
  P  P232  1  0.95771803  0.41710224  0.14740587  1
  P  P233  1  0.95833924  0.41512983  0.39694696  1
  P  P234  1  0.95766983  0.41440070  0.64717844  1
  P  P235  1  0.95759133  0.41446847  0.89715003  1
  P  P236  1  0.95711150  0.74917135  0.14801662  1
  P  P237  1  0.95728099  0.75065177  0.39790922  1
  P  P238  1  0.95796676  0.75218441  0.64757404  1
  P  P239  1  0.95811398  0.75211015  0.89763507  1
  P  P240  1  0.20693279  0.08293083  0.22843007  1
  P  P241  1  0.20822965  0.08171663  0.47745875  1
  P  P242  1  0.20727607  0.08386751  0.72894836  1
  P  P243  1  0.20772083  0.08430798  0.97727025  1
  P  P244  1  0.20833373  0.41663453  0.22608627  1
  P  P245  1  0.20740015  0.41812774  0.47691071  1
  P  P246  1  0.20726069  0.41615664  0.72908719  1
  P  P247  1  0.20858969  0.41663470  0.97693335  1
  P  P248  1  0.20730137  0.75119822  0.22783370  1
  P  P249  1  0.20736068  0.74968729  0.47931984  1
  P  P250  1  0.20854301  0.74902822  0.72654949  1
  P  P251  1  0.20712591  0.74966925  0.97924729  1
  P  P252  1  0.70871084  0.08294158  0.22684032  1
  P  P253  1  0.70749221  0.08103723  0.47782335  1
  P  P254  1  0.70791953  0.08193458  0.72767757  1
  P  P255  1  0.70837985  0.08462097  0.97827882  1
  P  P256  1  0.70743814  0.41686345  0.22882354  1
  P  P257  1  0.70871282  0.41694965  0.47663423  1
  P  P258  1  0.70778952  0.41815954  0.72707977  1
  P  P259  1  0.70649954  0.41677343  0.97778763  1
  P  P260  1  0.70679605  0.75101586  0.22885599  1
  P  P261  1  0.70801796  0.75184514  0.47796095  1
  P  P262  1  0.70837311  0.75148383  0.72803578  1
  P  P263  1  0.70879800  0.75104561  0.97623913  1
  P  P264  1  0.29173019  0.25149024  0.02145311  1
  P  P265  1  0.29318311  0.25084310  0.27074389  1
  P  P266  1  0.29345381  0.25011348  0.52167290  1
  P  P267  1  0.29154808  0.25008548  0.77395091  1
  P  P268  1  0.29207927  0.58130276  0.02226720  1
  P  P269  1  0.29179750  0.58177612  0.27179429  1
  P  P270  1  0.29232156  0.58411405  0.52227140  1
  P  P271  1  0.29211250  0.58220841  0.77269298  1
  P  P272  1  0.29208866  0.91521803  0.02263071  1
  P  P273  1  0.29222875  0.91731467  0.27238472  1
  P  P274  1  0.29228754  0.91557612  0.52292352  1
  P  P275  1  0.29306466  0.91544364  0.77165864  1
  P  P276  1  0.79172373  0.24840437  0.02240527  1
  P  P277  1  0.79210019  0.25046394  0.27243524  1
  P  P278  1  0.79258676  0.25004135  0.52084246  1
  P  P279  1  0.79177931  0.24845356  0.77226410  1
  P  P280  1  0.79261684  0.58477094  0.02113829  1
  P  P281  1  0.79226890  0.58255350  0.27292011  1
  P  P282  1  0.79251011  0.58183621  0.52210859  1
  P  P283  1  0.79249978  0.58496453  0.77197135  1
  P  P284  1  0.79244085  0.91829765  0.02259954  1
  P  P285  1  0.79163965  0.91740555  0.27359500  1
  P  P286  1  0.79075194  0.91659488  0.52291400  1
  P  P287  1  0.79221034  0.91585164  0.77201725  1
  O  O288  1  0.03696713  0.24968184  0.18123453  1
  O  O289  1  0.03734430  0.24853254  0.43272188  1
  O  O290  1  0.03598664  0.24998367  0.68166310  1
  O  O291  1  0.03562025  0.24958572  0.93171252  1
  O  O292  1  0.03644062  0.58302639  0.18427248  1
  O  O293  1  0.03646279  0.58285491  0.43176620  1
  O  O294  1  0.03779707  0.58310751  0.68358307  1
  O  O295  1  0.03780679  0.58309003  0.93348850  1
  O  O296  1  0.03689453  0.91638037  0.18280287  1
  O  O297  1  0.03653636  0.91708026  0.43457992  1
  O  O298  1  0.03622315  0.91690343  0.68209538  1
  O  O299  1  0.03707938  0.91574286  0.93274759  1
  O  O300  1  0.53723715  0.24896807  0.18205987  1
  O  O301  1  0.53844323  0.24994062  0.43298992  1
  O  O302  1  0.53761148  0.24913906  0.68409580  1
  O  O303  1  0.53689414  0.24850648  0.93317567  1
  O  O304  1  0.53695014  0.58313986  0.18110849  1
  O  O305  1  0.53695381  0.58398523  0.43221080  1
  O  O306  1  0.53707111  0.58484934  0.68289962  1
  O  O307  1  0.53628701  0.58388959  0.93171205  1
  O  O308  1  0.53625680  0.91685917  0.18111890  1
  O  O309  1  0.53655015  0.91664944  0.43220130  1
  O  O310  1  0.53694823  0.91574781  0.68301715  1
  O  O311  1  0.53655107  0.91760088  0.93341886  1
  O  O312  1  0.46370323  0.08194523  0.06637823  1
  O  O313  1  0.46216013  0.08199147  0.31653789  1
  O  O314  1  0.46310122  0.08276520  0.56945209  1
  O  O315  1  0.46407818  0.08339292  0.81815520  1
  O  O316  1  0.46428283  0.41872922  0.06658382  1
  O  O317  1  0.46296725  0.41759397  0.31640644  1
  O  O318  1  0.46280912  0.41794874  0.56802391  1
  O  O319  1  0.46375998  0.41853213  0.81694730  1
  O  O320  1  0.46222010  0.74985312  0.06533512  1
  O  O321  1  0.46322407  0.75007936  0.31834114  1
  O  O322  1  0.46371845  0.74901761  0.56732082  1
  O  O323  1  0.46370494  0.74943593  0.81794039  1
  O  O324  1  0.96355164  0.08529124  0.06726466  1
  O  O325  1  0.96347080  0.08357855  0.31859087  1
  O  O326  1  0.96337680  0.08432572  0.56678559  1
  O  O327  1  0.96287145  0.08489024  0.81703755  1
  O  O328  1  0.96267485  0.41650178  0.06745211  1
  O  O329  1  0.96370712  0.41594028  0.31701099  1
  O  O330  1  0.96314665  0.41431295  0.56722910  1
  O  O331  1  0.96279547  0.41421245  0.81719752  1
  O  O332  1  0.96247953  0.74985413  0.06808947  1
  O  O333  1  0.96246827  0.74971625  0.31796610  1
  O  O334  1  0.96318591  0.75205069  0.56762250  1
  O  O335  1  0.96352135  0.75240236  0.81770253  1
  O  O336  1  0.21231064  0.08424460  0.05727887  1
  O  O337  1  0.21253658  0.08240680  0.30832974  1
  O  O338  1  0.21332788  0.08200008  0.55745844  1
  O  O339  1  0.21244242  0.08446196  0.80890171  1
  O  O340  1  0.21381171  0.41653107  0.05684382  1
  O  O341  1  0.21334105  0.41711740  0.30604738  1
  O  O342  1  0.21226697  0.41777963  0.55689942  1
  O  O343  1  0.21272678  0.41590995  0.80897696  1
  O  O344  1  0.21242675  0.75029911  0.05916823  1
  O  O345  1  0.21253219  0.75090761  0.30780783  1
  O  O346  1  0.21284389  0.74939327  0.55921784  1
  O  O347  1  0.21304597  0.74898391  0.80661653  1
  O  O348  1  0.71394691  0.08444088  0.05812108  1
  O  O349  1  0.71352395  0.08243892  0.30684417  1
  O  O350  1  0.71268649  0.08075561  0.55775384  1
  O  O351  1  0.71327294  0.08284944  0.80761106  1
  O  O352  1  0.71141480  0.41668600  0.05777534  1
  O  O353  1  0.71304929  0.41680894  0.30874956  1
  O  O354  1  0.71373987  0.41739255  0.55664946  1
  O  O355  1  0.71268584  0.41786423  0.80704574  1
  O  O356  1  0.71341444  0.75079704  0.05629402  1
  O  O357  1  0.71193163  0.75135990  0.30880432  1
  O  O358  1  0.71344762  0.75181783  0.55789492  1
  O  O359  1  0.71406928  0.75118229  0.80789213  1
  O  O360  1  0.28761720  0.25136279  0.19080244  1
  O  O361  1  0.28866185  0.25012441  0.44166250  1
  O  O362  1  0.28723254  0.24984389  0.69387164  1
  O  O363  1  0.28605275  0.25105604  0.94154313  1
  O  O364  1  0.28649074  0.58160894  0.19185386  1
  O  O365  1  0.28718173  0.58362129  0.44232174  1
  O  O366  1  0.28680194  0.58328178  0.69275429  1
  O  O367  1  0.28671440  0.58121031  0.94236182  1
  O  O368  1  0.28679437  0.91637018  0.19244818  1
  O  O369  1  0.28720969  0.91665049  0.44294755  1
  O  O370  1  0.28789215  0.91494075  0.69169617  1
  O  O371  1  0.28711866  0.91561747  0.94266044  1
  O  O372  1  0.78687921  0.24975579  0.19245095  1
  O  O373  1  0.78715364  0.25054414  0.44093589  1
  O  O374  1  0.78668453  0.24891041  0.69231478  1
  O  O375  1  0.78645800  0.24811001  0.94245118  1
  O  O376  1  0.78726063  0.58308291  0.19292570  1
  O  O377  1  0.78711636  0.58165145  0.44217609  1
  O  O378  1  0.78750904  0.58430413  0.69198368  1
  O  O379  1  0.78742419  0.58547464  0.94114682  1
  O  O380  1  0.78682475  0.91785715  0.19358783  1
  O  O381  1  0.78548608  0.91658428  0.44300142  1
  O  O382  1  0.78670318  0.91601082  0.69216641  1
  O  O383  1  0.78743312  0.91759063  0.94267299  1
  O  O384  1  0.22764290  0.25208890  0.05767658  1
  O  O385  1  0.22895498  0.25027015  0.30629785  1
  O  O386  1  0.22882527  0.24988374  0.55627730  1
  O  O387  1  0.22716259  0.25051863  0.80911783  1
  O  O388  1  0.22793214  0.58147872  0.05818914  1
  O  O389  1  0.22754566  0.58170128  0.30759868  1
  O  O390  1  0.22801099  0.58483970  0.55790255  1
  O  O391  1  0.22786751  0.58115043  0.80845835  1
  O  O392  1  0.22769729  0.91469089  0.05798374  1
  O  O393  1  0.22802403  0.91800923  0.30828933  1
  O  O394  1  0.22797705  0.91502258  0.55842963  1
  O  O395  1  0.22861399  0.91590755  0.80662501  1
  O  O396  1  0.72752549  0.24802766  0.05822068  1
  O  O397  1  0.72793146  0.25074498  0.30820378  1
  O  O398  1  0.72839035  0.24972058  0.55644007  1
  O  O399  1  0.72749336  0.24777172  0.80787554  1
  O  O400  1  0.72820312  0.58428319  0.05628395  1
  O  O401  1  0.72795336  0.58233150  0.30833427  1
  O  O402  1  0.72828863  0.58217546  0.55792488  1
  O  O403  1  0.72815678  0.58547581  0.80740071  1
  O  O404  1  0.72808434  0.91904306  0.05811575  1
  O  O405  1  0.72732411  0.91747278  0.30925779  1
  O  O406  1  0.72679309  0.91662648  0.55955515  1
  O  O407  1  0.72813147  0.91551375  0.80823468  1
  O  O408  1  0.27117760  0.08328106  0.19291365  1
  O  O409  1  0.27251172  0.08137816  0.44185437  1
  O  O410  1  0.27171384  0.08325356  0.69393671  1
  O  O411  1  0.27213930  0.08427973  0.94225781  1
  O  O412  1  0.27253891  0.41620631  0.19008552  1
  O  O413  1  0.27186121  0.41868343  0.44170989  1
  O  O414  1  0.27149653  0.41657649  0.69339129  1
  O  O415  1  0.27265481  0.41662166  0.94057960  1
  O  O416  1  0.27157218  0.75145344  0.19220249  1
  O  O417  1  0.27153479  0.74961258  0.44353723  1
  O  O418  1  0.27284832  0.74883714  0.69102553  1
  O  O419  1  0.27145612  0.74909146  0.94393017  1
  O  O420  1  0.77298707  0.08300913  0.19110663  1
  O  O421  1  0.77177812  0.08125048  0.44219249  1
  O  O422  1  0.77206202  0.08122767  0.69166188  1
  O  O423  1  0.77243048  0.08493650  0.94190641  1
  O  O424  1  0.77157509  0.41658384  0.19294178  1
  O  O425  1  0.77283865  0.41695400  0.44058991  1
  O  O426  1  0.77216624  0.41831672  0.69172202  1
  O  O427  1  0.77097523  0.41681621  0.94297188  1
  O  O428  1  0.77121695  0.75119814  0.19375193  1
  O  O429  1  0.77213902  0.75171466  0.44202079  1
  O  O430  1  0.77235481  0.75189488  0.69160276  1
  O  O431  1  0.77306193  0.75137486  0.94062236  1
  O  O432  1  0.02234223  0.08510727  0.18320212  1
  O  O433  1  0.02279739  0.08423128  0.43458804  1
  O  O434  1  0.02187268  0.08503072  0.68311858  1
  O  O435  1  0.02198566  0.08478509  0.93279810  1
  O  O436  1  0.02205327  0.41745544  0.18292376  1
  O  O437  1  0.02252179  0.41461123  0.43293054  1
  O  O438  1  0.02185943  0.41422341  0.68313751  1
  O  O439  1  0.02185151  0.41431259  0.93294008  1
  O  O440  1  0.02134395  0.74830019  0.18391409  1
  O  O441  1  0.02156292  0.75152284  0.43360414  1
  O  O442  1  0.02224878  0.75231669  0.68334644  1
  O  O443  1  0.02229341  0.75213879  0.93360857  1
  O  O444  1  0.52229202  0.08103880  0.18260684  1
  O  O445  1  0.52144020  0.08246129  0.43180180  1
  O  O446  1  0.52277676  0.08262584  0.68506073  1
  O  O447  1  0.52279748  0.08301637  0.93443364  1
  O  O448  1  0.52266299  0.41882792  0.18282772  1
  O  O449  1  0.52182963  0.41737300  0.43192516  1
  O  O450  1  0.52216907  0.41840554  0.68337958  1
  O  O451  1  0.52258225  0.41831386  0.93279747  1
  O  O452  1  0.52122286  0.74984723  0.18090147  1
  O  O453  1  0.52265658  0.75013713  0.43430299  1
  O  O454  1  0.52239579  0.74876543  0.68353053  1
  O  O455  1  0.52294753  0.74902083  0.93386411  1
  O  O456  1  0.47814439  0.24890426  0.06644173  1
  O  O457  1  0.47905959  0.24976355  0.31783694  1
  O  O458  1  0.47849203  0.24985477  0.56873986  1
  O  O459  1  0.47790967  0.24908847  0.81746563  1
  O  O460  1  0.47773043  0.58392249  0.06515566  1
  O  O461  1  0.47782059  0.58221429  0.31644015  1
  O  O462  1  0.47807965  0.58569263  0.56706260  1
  O  O463  1  0.47742249  0.58395923  0.81545100  1
  O  O464  1  0.47716726  0.91719916  0.06515981  1
  O  O465  1  0.47750753  0.91800385  0.31633701  1
  O  O466  1  0.47766841  0.91460187  0.56736048  1
  O  O467  1  0.47805399  0.91808304  0.81723006  1
  O  O468  1  0.97728036  0.25006084  0.06551096  1
  O  O469  1  0.97839961  0.24831778  0.31678761  1
  O  O470  1  0.97773520  0.24987001  0.56496020  1
  O  O471  1  0.97684214  0.24956449  0.81527988  1
  O  O472  1  0.97812745  0.58303350  0.06821924  1
  O  O473  1  0.97695848  0.58336302  0.31592542  1
  O  O474  1  0.97853747  0.58269090  0.56848931  1
  O  O475  1  0.97859007  0.58333398  0.81834111  1
  O  O476  1  0.97769783  0.91608198  0.06725872  1
  O  O477  1  0.97793070  0.91693915  0.31877234  1
  O  O478  1  0.97661483  0.91637185  0.56623930  1
  O  O479  1  0.97811227  0.91588798  0.81696486  1
  O  O480  1  0.07202625  0.31389524  0.07302809  1
  O  O481  1  0.07391800  0.31170189  0.32456427  1
  O  O482  1  0.07266339  0.31347074  0.57329778  1
  O  O483  1  0.07183355  0.31329164  0.82352543  1
  O  O484  1  0.07354497  0.64648101  0.07623968  1
  O  O485  1  0.07200836  0.64699978  0.32397970  1
  O  O486  1  0.07363599  0.64669057  0.57544826  1
  O  O487  1  0.07417841  0.64663720  0.82566541  1
  O  O488  1  0.07331195  0.97939097  0.07481778  1
  O  O489  1  0.07330122  0.98036752  0.32610775  1
  O  O490  1  0.07096786  0.98106041  0.57393203  1
  O  O491  1  0.07320981  0.97987708  0.82518350  1
  O  O492  1  0.57372068  0.31230051  0.07447463  1
  O  O493  1  0.57441045  0.31335336  0.32469387  1
  O  O494  1  0.57395138  0.31323815  0.57621558  1
  O  O495  1  0.57358579  0.31227131  0.82562973  1
  O  O496  1  0.57277945  0.64737952  0.07305848  1
  O  O497  1  0.57295111  0.64674748  0.32393599  1
  O  O498  1  0.57350282  0.64839050  0.57414494  1
  O  O499  1  0.57245320  0.64774432  0.82360458  1
  O  O500  1  0.57284968  0.98015853  0.07310660  1
  O  O501  1  0.57274554  0.98074540  0.32379884  1
  O  O502  1  0.57284196  0.97887513  0.57489645  1
  O  O503  1  0.57322895  0.98112446  0.82495401  1
  O  O504  1  0.42704321  0.01822294  0.17484292  1
  O  O505  1  0.42558895  0.01960549  0.42537648  1
  O  O506  1  0.42767901  0.01897798  0.67750088  1
  O  O507  1  0.42737143  0.01984511  0.92619673  1
  O  O508  1  0.42766500  0.35456016  0.17371330  1
  O  O509  1  0.42663055  0.35359062  0.42447962  1
  O  O510  1  0.42662774  0.35474806  0.67599279  1
  O  O511  1  0.42727358  0.35476719  0.92454226  1
  O  O512  1  0.42577520  0.68641996  0.17378216  1
  O  O513  1  0.42776519  0.68608755  0.42624219  1
  O  O514  1  0.42740698  0.68535435  0.67603278  1
  O  O515  1  0.42710581  0.68644024  0.92610023  1
  O  O516  1  0.92704453  0.02146509  0.17487929  1
  O  O517  1  0.92848225  0.01968442  0.42720745  1
  O  O518  1  0.92678836  0.02106309  0.67485780  1
  O  O519  1  0.92679340  0.02098534  0.92471099  1
  O  O520  1  0.92658010  0.35357783  0.17555292  1
  O  O521  1  0.92753459  0.35136829  0.42487310  1
  O  O522  1  0.92643236  0.35119345  0.67579895  1
  O  O523  1  0.92646820  0.35127407  0.92603580  1
  O  O524  1  0.92603393  0.68567832  0.17628865  1
  O  O525  1  0.92642532  0.68706330  0.42632720  1
  O  O526  1  0.92705919  0.68827927  0.67532167  1
  O  O527  1  0.92711236  0.68816643  0.92499225  1
  O  O528  1  0.17559216  0.01973762  0.19985560  1
  O  O529  1  0.17736718  0.01808114  0.44936899  1
  O  O530  1  0.17601405  0.02018924  0.70121096  1
  O  O531  1  0.17647999  0.02072190  0.94951457  1
  O  O532  1  0.17749631  0.35283818  0.19799181  1
  O  O533  1  0.17672822  0.35433302  0.44880746  1
  O  O534  1  0.17632452  0.35268940  0.70028745  1
  O  O535  1  0.17757245  0.35305572  0.94843375  1
  O  O536  1  0.17642074  0.68734569  0.20024926  1
  O  O537  1  0.17588142  0.68656572  0.45047938  1
  O  O538  1  0.17759656  0.68538647  0.69853712  1
  O  O539  1  0.17593341  0.68596655  0.95151912  1
  O  O540  1  0.67779278  0.01952680  0.19805826  1
  O  O541  1  0.67647825  0.01786871  0.44880934  1
  O  O542  1  0.67700125  0.01810173  0.69997987  1
  O  O543  1  0.67730061  0.02092176  0.95024441  1
  O  O544  1  0.67589354  0.35352190  0.20063788  1
  O  O545  1  0.67814239  0.35288713  0.44874117  1
  O  O546  1  0.67675593  0.35441442  0.69932984  1
  O  O547  1  0.67560311  0.35313925  0.94968062  1
  O  O548  1  0.67606282  0.68724431  0.20065152  1
  O  O549  1  0.67694156  0.68794070  0.45051297  1
  O  O550  1  0.67725511  0.68790215  0.69979259  1
  O  O551  1  0.67825414  0.68731460  0.94765039  1
  O  O552  1  0.32314202  0.31484016  0.04968623  1
  O  O553  1  0.32434242  0.31418479  0.29916808  1
  O  O554  1  0.32413264  0.31376642  0.55008335  1
  O  O555  1  0.32273200  0.31361869  0.80200979  1
  O  O556  1  0.32322006  0.64503608  0.04996803  1
  O  O557  1  0.32272611  0.64576879  0.29926530  1
  O  O558  1  0.32333964  0.64756271  0.55081786  1
  O  O559  1  0.32287995  0.64580667  0.80123310  1
  O  O560  1  0.32275361  0.97920386  0.05032707  1
  O  O561  1  0.32309683  0.98099858  0.30047152  1
  O  O562  1  0.32364392  0.97878090  0.55147893  1
  O  O563  1  0.32407565  0.97912369  0.79969261  1
  O  O564  1  0.82239795  0.31255809  0.04982434  1
  O  O565  1  0.82286338  0.31419854  0.30066364  1
  O  O566  1  0.82384062  0.31323296  0.54945672  1
  O  O567  1  0.82232285  0.31238534  0.80032312  1
  O  O568  1  0.82373101  0.64793767  0.05009642  1
  O  O569  1  0.82321748  0.64619735  0.30104180  1
  O  O570  1  0.82373968  0.64564731  0.54957767  1
  O  O571  1  0.82325381  0.64873687  0.80019957  1
  O  O572  1  0.82340877  0.98186512  0.05089730  1
  O  O573  1  0.82283586  0.98075216  0.30218671  1
  O  O574  1  0.82174030  0.98026159  0.55125490  1
  O  O575  1  0.82336297  0.97948634  0.80009576  1
  O  O576  1  0.42720618  0.14532042  0.17416265  1
  O  O577  1  0.42643757  0.14642373  0.42450424  1
  O  O578  1  0.42795127  0.14657096  0.67779740  1
  O  O579  1  0.42808187  0.14702838  0.92653543  1
  O  O580  1  0.42756062  0.48181562  0.17518509  1
  O  O581  1  0.42613118  0.48042464  0.42477208  1
  O  O582  1  0.42717889  0.48203815  0.67607085  1
  O  O583  1  0.42758626  0.48191433  0.92546249  1
  O  O584  1  0.42584814  0.81305380  0.17397390  1
  O  O585  1  0.42781779  0.81369167  0.42664726  1
  O  O586  1  0.42702675  0.81213525  0.67542119  1
  O  O587  1  0.42884486  0.81387832  0.92595085  1
  O  O588  1  0.92746320  0.14859253  0.17614820  1
  O  O589  1  0.92718833  0.14697064  0.42654367  1
  O  O590  1  0.92671746  0.14804684  0.67496558  1
  O  O591  1  0.92681187  0.14806302  0.92579595  1
  O  O592  1  0.92699131  0.48066566  0.17593058  1
  O  O593  1  0.92725714  0.47854500  0.42525177  1
  O  O594  1  0.92686034  0.47829326  0.67487890  1
  O  O595  1  0.92675547  0.47838454  0.92468276  1
  O  O596  1  0.92630609  0.81285139  0.17613330  1
  O  O597  1  0.92628108  0.81423274  0.42592329  1
  O  O598  1  0.92699202  0.81550539  0.67607969  1
  O  O599  1  0.92720447  0.81535980  0.92657342  1
  O  O600  1  0.07254266  0.18655204  0.07260178  1
  O  O601  1  0.07320298  0.18478468  0.32392731  1
  O  O602  1  0.07273305  0.18626171  0.57381818  1
  O  O603  1  0.07183043  0.18616212  0.82323392  1
  O  O604  1  0.07354746  0.51977849  0.07600520  1
  O  O605  1  0.07165740  0.51930945  0.32344782  1
  O  O606  1  0.07414819  0.51964739  0.57559416  1
  O  O607  1  0.07374327  0.51946603  0.82555584  1
  O  O608  1  0.07239272  0.85211472  0.07475013  1
  O  O609  1  0.07344094  0.85368362  0.32653053  1
  O  O610  1  0.07214872  0.85360412  0.57373580  1
  O  O611  1  0.07348562  0.85284086  0.82379910  1
  O  O612  1  0.57291440  0.18496947  0.07396792  1
  O  O613  1  0.57446910  0.18634943  0.32493784  1
  O  O614  1  0.57388418  0.18618050  0.57559432  1
  O  O615  1  0.57269968  0.18517774  0.82445751  1
  O  O616  1  0.57277261  0.52010334  0.07255900  1
  O  O617  1  0.57300585  0.51958254  0.32410891  1
  O  O618  1  0.57315346  0.52149992  0.57469266  1
  O  O619  1  0.57252427  0.52054378  0.82326296  1
  O  O620  1  0.57152138  0.85286716  0.07270153  1
  O  O621  1  0.57256916  0.85365252  0.32406699  1
  O  O622  1  0.57271643  0.85178294  0.57445310  1
  O  O623  1  0.57308011  0.85410225  0.82563188  1
  O  O624  1  0.32266119  0.18783755  0.04963285  1
  O  O625  1  0.32445621  0.18725073  0.29836466  1
  O  O626  1  0.32443651  0.18667072  0.55004859  1
  O  O627  1  0.32179814  0.18621567  0.80257171  1
  O  O628  1  0.32295800  0.51794282  0.05088670  1
  O  O629  1  0.32268294  0.51855174  0.30070542  1
  O  O630  1  0.32316485  0.52054939  0.55057905  1
  O  O631  1  0.32317935  0.51866072  0.80059670  1
  O  O632  1  0.32295572  0.85181362  0.05102856  1
  O  O633  1  0.32328823  0.85385719  0.30075383  1
  O  O634  1  0.32284994  0.85166159  0.55089572  1
  O  O635  1  0.32420721  0.85219738  0.80019096  1
  O  O636  1  0.82308635  0.18550868  0.05149340  1
  O  O637  1  0.82331332  0.18701192  0.30050501  1
  O  O638  1  0.82356581  0.18627894  0.54848003  1
  O  O639  1  0.82286385  0.18503202  0.80037480  1
  O  O640  1  0.82361906  0.52096023  0.04876199  1
  O  O641  1  0.82310254  0.51897855  0.30104011  1
  O  O642  1  0.82324520  0.51849342  0.55100750  1
  O  O643  1  0.82360745  0.52155445  0.80030620  1
  O  O644  1  0.82316082  0.85479845  0.05123174  1
  O  O645  1  0.82190121  0.85337435  0.30185293  1
  O  O646  1  0.82172628  0.85307425  0.55136380  1
  O  O647  1  0.82331911  0.85265680  0.80088888  1
  O  O648  1  0.17585558  0.14654416  0.20051274  1
  O  O649  1  0.17745091  0.14550659  0.44966943  1
  O  O650  1  0.17633536  0.14701941  0.69988735  1
  O  O651  1  0.17733649  0.14808911  0.94873830  1
  O  O652  1  0.17757722  0.48019644  0.19759433  1
  O  O653  1  0.17660380  0.48160940  0.44841266  1
  O  O654  1  0.17577249  0.47940652  0.70090482  1
  O  O655  1  0.17763907  0.48019516  0.94859490  1
  O  O656  1  0.17648774  0.81477294  0.19970603  1
  O  O657  1  0.17622686  0.81321064  0.45125437  1
  O  O658  1  0.17822808  0.81303522  0.69836708  1
  O  O659  1  0.17609318  0.81281887  0.95031981  1
  O  O660  1  0.67810300  0.14688195  0.19894487  1
  O  O661  1  0.67655510  0.14489119  0.45022220  1
  O  O662  1  0.67689548  0.14528825  0.69921790  1
  O  O663  1  0.67723881  0.14775554  0.94932290  1
  O  O664  1  0.67639556  0.48027384  0.20027452  1
  O  O665  1  0.67765127  0.48042744  0.44826956  1
  O  O666  1  0.67726426  0.48183470  0.69868483  1
  O  O667  1  0.67554197  0.48023397  0.94960222  1
  O  O668  1  0.67548235  0.81411003  0.20003292  1
  O  O669  1  0.67706230  0.81510948  0.44928606  1
  O  O670  1  0.67708530  0.81479444  0.69962544  1
  O  O671  1  0.67799518  0.81487393  0.94851362  1
