# generated using pymatgen
data_Na2MnFe(PO4)2
_symmetry_space_group_name_H-M   'P 1'
_cell_length_a   22.34145233
_cell_length_b   20.09497896
_cell_length_c   19.45002443
_cell_angle_alpha   90.00127889
_cell_angle_beta   90.04984992
_cell_angle_gamma   90.01570290
_symmetry_Int_Tables_number   1
_chemical_formula_structural   Na2MnFe(PO4)2
_chemical_formula_sum   'Na96 Mn48 Fe48 P96 O384'
_cell_volume   8732.10456651
_cell_formula_units_Z   48
loop_
 _symmetry_equiv_pos_site_id
 _symmetry_equiv_pos_as_xyz
  1  'x, y, z'
loop_
 _atom_site_type_symbol
 _atom_site_label
 _atom_site_symmetry_multiplicity
 _atom_site_fract_x
 _atom_site_fract_y
 _atom_site_fract_z
 _atom_site_occupancy
  Na  Na0  1  0.14007103  0.24954915  0.24244693  1
  Na  Na1  1  0.13985371  0.24953839  0.49335490  1
  Na  Na2  1  0.14012428  0.25034232  0.74276363  1
  Na  Na3  1  0.13976037  0.25102222  0.99230692  1
  Na  Na4  1  0.14007134  0.58382207  0.24321980  1
  Na  Na5  1  0.14009509  0.58300154  0.49486835  1
  Na  Na6  1  0.13934308  0.58290506  0.74287278  1
  Na  Na7  1  0.13925296  0.58387612  0.99324191  1
  Na  Na8  1  0.14060261  0.91740979  0.24366433  1
  Na  Na9  1  0.14006136  0.91640476  0.49388703  1
  Na  Na10  1  0.14007389  0.91685373  0.74376395  1
  Na  Na11  1  0.14014358  0.91841981  0.99369596  1
  Na  Na12  1  0.63997243  0.24923235  0.24245328  1
  Na  Na13  1  0.64024482  0.24930019  0.49281681  1
  Na  Na14  1  0.64044484  0.24915940  0.74471458  1
  Na  Na15  1  0.63999771  0.24848698  0.99387121  1
  Na  Na16  1  0.64055444  0.58343893  0.24450711  1
  Na  Na17  1  0.64003234  0.58315763  0.49400205  1
  Na  Na18  1  0.64003609  0.58334965  0.74371106  1
  Na  Na19  1  0.63991358  0.58259328  0.99471860  1
  Na  Na20  1  0.64109473  0.91710688  0.24403534  1
  Na  Na21  1  0.64065584  0.91595545  0.49432548  1
  Na  Na22  1  0.64005890  0.91722301  0.74407157  1
  Na  Na23  1  0.64064296  0.91780751  0.99397440  1
  Na  Na24  1  0.35992291  0.08470060  0.00570422  1
  Na  Na25  1  0.35981709  0.08415434  0.25499954  1
  Na  Na26  1  0.35959952  0.08302094  0.50659295  1
  Na  Na27  1  0.35983450  0.08346723  0.75598719  1
  Na  Na28  1  0.35943526  0.41700826  0.00692169  1
  Na  Na29  1  0.35942934  0.41656121  0.25517812  1
  Na  Na30  1  0.36011122  0.41650709  0.50727115  1
  Na  Na31  1  0.35969525  0.41666324  0.75625948  1
  Na  Na32  1  0.35929055  0.74995947  0.00648104  1
  Na  Na33  1  0.35898793  0.75014902  0.25572594  1
  Na  Na34  1  0.35960035  0.75009062  0.50777171  1
  Na  Na35  1  0.35950261  0.75013874  0.75612654  1
  Na  Na36  1  0.86037906  0.08348049  0.00649210  1
  Na  Na37  1  0.86052398  0.08356050  0.25579879  1
  Na  Na38  1  0.86016262  0.08222609  0.50543970  1
  Na  Na39  1  0.86013761  0.08303896  0.75638164  1
  Na  Na40  1  0.86008313  0.41650804  0.00729972  1
  Na  Na41  1  0.85952249  0.41670741  0.25568803  1
  Na  Na42  1  0.85986231  0.41567355  0.50650614  1
  Na  Na43  1  0.86053200  0.41574969  0.75738966  1
  Na  Na44  1  0.85974209  0.75026635  0.00770979  1
  Na  Na45  1  0.85962854  0.75037665  0.25597513  1
  Na  Na46  1  0.86036107  0.74938317  0.50680686  1
  Na  Na47  1  0.86022087  0.75094038  0.75681435  1
  Na  Na48  1  0.10986385  0.08442346  0.11683276  1
  Na  Na49  1  0.11027705  0.08262191  0.36852904  1
  Na  Na50  1  0.10914807  0.08314727  0.61733027  1
  Na  Na51  1  0.11005072  0.08483143  0.86865639  1
  Na  Na52  1  0.10882625  0.41737111  0.11677224  1
  Na  Na53  1  0.10945995  0.41528347  0.36948797  1
  Na  Na54  1  0.10974336  0.41665487  0.61848600  1
  Na  Na55  1  0.10910690  0.41820134  0.86807119  1
  Na  Na56  1  0.10918315  0.74974019  0.11726628  1
  Na  Na57  1  0.10990358  0.74988350  0.37003140  1
  Na  Na58  1  0.10914220  0.75043116  0.61852542  1
  Na  Na59  1  0.10894327  0.74965580  0.86967527  1
  Na  Na60  1  0.61054164  0.08434738  0.11808926  1
  Na  Na61  1  0.61036144  0.08417345  0.36726049  1
  Na  Na62  1  0.60977825  0.08405027  0.61952897  1
  Na  Na63  1  0.61008218  0.08313575  0.86840458  1
  Na  Na64  1  0.60903316  0.41528180  0.11831575  1
  Na  Na65  1  0.60920046  0.41601773  0.36926416  1
  Na  Na66  1  0.60919549  0.41767989  0.61905736  1
  Na  Na67  1  0.60925460  0.41575709  0.87041858  1
  Na  Na68  1  0.60939473  0.74850423  0.11897209  1
  Na  Na69  1  0.60967169  0.74861451  0.36978175  1
  Na  Na70  1  0.60938207  0.75025838  0.61893314  1
  Na  Na71  1  0.60917475  0.74953521  0.86869085  1
  Na  Na72  1  0.39021370  0.24966367  0.12982276  1
  Na  Na73  1  0.39058236  0.25082136  0.38012826  1
  Na  Na74  1  0.39057995  0.25129369  0.63145636  1
  Na  Na75  1  0.39033013  0.24989551  0.88113797  1
  Na  Na76  1  0.38931907  0.58170422  0.13147071  1
  Na  Na77  1  0.39026261  0.58206955  0.38160735  1
  Na  Na78  1  0.39048736  0.58354192  0.63168706  1
  Na  Na79  1  0.38976489  0.58165927  0.88163273  1
  Na  Na80  1  0.39044131  0.91825791  0.13126807  1
  Na  Na81  1  0.39017564  0.91693181  0.38163425  1
  Na  Na82  1  0.39032496  0.91767406  0.63232679  1
  Na  Na83  1  0.39044249  0.91771478  0.88009439  1
  Na  Na84  1  0.89050177  0.24927957  0.13048052  1
  Na  Na85  1  0.89083436  0.24805391  0.38084222  1
  Na  Na86  1  0.89074819  0.25035624  0.63059127  1
  Na  Na87  1  0.89112171  0.25014787  0.88230812  1
  Na  Na88  1  0.88973860  0.58358915  0.13157233  1
  Na  Na89  1  0.89037429  0.58346123  0.38140422  1
  Na  Na90  1  0.89110157  0.58318714  0.63168287  1
  Na  Na91  1  0.89097059  0.58348030  0.88201476  1
  Na  Na92  1  0.89073267  0.91811627  0.13095659  1
  Na  Na93  1  0.89102152  0.91666740  0.38249478  1
  Na  Na94  1  0.89024980  0.91589549  0.63121238  1
  Na  Na95  1  0.89070463  0.91754739  0.88282097  1
  Mn  Mn96  1  0.74959216  -0.00089634  0.62517474  1
  Mn  Mn97  1  0.25035595  0.00138295  0.87432414  1
  Mn  Mn98  1  0.00006308  0.49934175  0.24997036  1
  Mn  Mn99  1  0.50001718  0.66609893  0.75015545  1
  Mn  Mn100  1  0.50030191  0.83301779  0.50061749  1
  Mn  Mn101  1  0.49983717  0.83340078  -0.00024107  1
  Mn  Mn102  1  0.24965060  0.33368933  0.87469349  1
  Mn  Mn103  1  0.50087804  0.00100191  0.25017442  1
  Mn  Mn104  1  0.75057103  0.49969916  0.62534403  1
  Mn  Mn105  1  0.75030478  0.16553845  0.62462451  1
  Mn  Mn106  1  0.49861874  0.66503288  -0.00091778  1
  Mn  Mn107  1  0.00016963  0.83329932  0.25022645  1
  Mn  Mn108  1  0.74987695  0.83404491  0.12565017  1
  Mn  Mn109  1  0.24919389  0.66623861  0.87507545  1
  Mn  Mn110  1  0.00018776  0.00029645  0.75008636  1
  Mn  Mn111  1  0.24972852  0.49987544  0.37494709  1
  Mn  Mn112  1  0.75039246  0.83282792  0.37422408  1
  Mn  Mn113  1  0.74963134  0.33250675  0.37441532  1
  Mn  Mn114  1  0.25044579  0.66651802  0.37550430  1
  Mn  Mn115  1  0.24986854  0.16621546  0.62428323  1
  Mn  Mn116  1  0.00098398  0.00064344  0.25040100  1
  Mn  Mn117  1  -0.00031102  0.33200514  0.24906346  1
  Mn  Mn118  1  0.00039991  0.83275119  0.75087527  1
  Mn  Mn119  1  0.24977020  0.66630348  0.62575470  1
  Mn  Mn120  1  0.49963271  0.83274166  0.25077337  1
  Mn  Mn121  1  -0.00007084  0.49960639  0.50038923  1
  Mn  Mn122  1  0.74961131  0.83459409  0.87650194  1
  Mn  Mn123  1  0.24979977  0.83422230  0.37504431  1
  Mn  Mn124  1  -0.00006033  0.66662151  0.24976369  1
  Mn  Mn125  1  0.24920715  0.33384018  0.12390826  1
  Mn  Mn126  1  0.75064445  0.66736373  0.62529441  1
  Mn  Mn127  1  0.75013589  0.33246488  0.12539667  1
  Mn  Mn128  1  0.24985939  0.83440102  0.12532254  1
  Mn  Mn129  1  0.50036526  0.00073615  0.50018592  1
  Mn  Mn130  1  -0.00052737  0.16789845  0.74955261  1
  Mn  Mn131  1  0.50026687  0.49802856  0.25098484  1
  Mn  Mn132  1  0.49940756  0.66546745  0.24998114  1
  Mn  Mn133  1  0.25037524  0.16602901  0.37439420  1
  Mn  Mn134  1  0.24956909  0.33358105  0.37424704  1
  Mn  Mn135  1  0.74994271  0.50047357  0.37541012  1
  Mn  Mn136  1  0.74989269  0.66713368  0.87559822  1
  Mn  Mn137  1  0.49967250  0.16798057  0.49983716  1
  Mn  Mn138  1  0.75012472  0.33218479  0.62523777  1
  Mn  Mn139  1  0.24996750  0.83406905  0.87553159  1
  Mn  Mn140  1  0.50001550  0.33395286  0.75052991  1
  Mn  Mn141  1  0.74968041  0.33205496  0.87615143  1
  Mn  Mn142  1  0.75015998  0.49989191  0.87578121  1
  Mn  Mn143  1  0.50074273  0.00103757  0.00010612  1
  Fe  Fe144  1  0.24895245  0.50067373  0.12485302  1
  Fe  Fe145  1  0.49962195  0.83351835  0.74967821  1
  Fe  Fe146  1  0.24940039  0.66687500  0.12500327  1
  Fe  Fe147  1  0.00058605  0.16662673  0.49988944  1
  Fe  Fe148  1  0.49986221  0.49995484  0.74980852  1
  Fe  Fe149  1  0.75034083  0.16558037  0.12466343  1
  Fe  Fe150  1  0.74940681  0.66684179  0.12570184  1
  Fe  Fe151  1  0.24965200  -0.00019271  0.62520323  1
  Fe  Fe152  1  0.74964273  0.50036572  0.12606382  1
  Fe  Fe153  1  0.49987044  0.16696782  -0.00049539  1
  Fe  Fe154  1  0.75029653  0.83318859  0.62502431  1
  Fe  Fe155  1  -0.00032572  0.33309865  0.49989420  1
  Fe  Fe156  1  0.25005084  0.33285327  0.62512989  1
  Fe  Fe157  1  0.25045917  -0.00005025  0.37495368  1
  Fe  Fe158  1  0.24972786  0.50026943  0.87496404  1
  Fe  Fe159  1  -0.00102907  0.66623464  -0.00061387  1
  Fe  Fe160  1  0.50012729  0.16755131  0.24933328  1
  Fe  Fe161  1  0.75035235  0.16571028  0.37401504  1
  Fe  Fe162  1  0.25031274  0.00106165  0.12432984  1
  Fe  Fe163  1  0.75067501  0.66665855  0.37529342  1
  Fe  Fe164  1  0.00056020  0.16761700  -0.00052209  1
  Fe  Fe165  1  0.00088850  0.16643783  0.24959665  1
  Fe  Fe166  1  0.50006790  0.00095801  0.75039277  1
  Fe  Fe167  1  -0.00021388  0.83282275  0.50077635  1
  Fe  Fe168  1  0.24987926  0.16699395  0.12428592  1
  Fe  Fe169  1  0.24969032  0.16699437  0.87412292  1
  Fe  Fe170  1  0.49937631  0.66641717  0.50054914  1
  Fe  Fe171  1  0.50046520  0.16744269  0.75018355  1
  Fe  Fe172  1  -0.00006980  0.83351735  -0.00000580  1
  Fe  Fe173  1  -0.00056426  0.66671826  0.75035040  1
  Fe  Fe174  1  0.75067518  0.16580702  0.87525801  1
  Fe  Fe175  1  0.49955035  0.33266046  0.24950390  1
  Fe  Fe176  1  0.25013108  0.49924677  0.62501242  1
  Fe  Fe177  1  0.75060664  -0.00032988  0.37458816  1
  Fe  Fe178  1  -0.00023664  0.49999099  0.75016545  1
  Fe  Fe179  1  0.00037055  0.00085728  0.00039737  1
  Fe  Fe180  1  0.49980777  0.33239337  -0.00026583  1
  Fe  Fe181  1  0.00050146  0.33384293  0.74993507  1
  Fe  Fe182  1  0.49962315  0.49989178  0.50006486  1
  Fe  Fe183  1  0.75057551  0.00075154  0.12492709  1
  Fe  Fe184  1  0.00032243  -0.00016134  0.49979986  1
  Fe  Fe185  1  0.00055629  0.66636627  0.50073418  1
  Fe  Fe186  1  -0.00061091  0.50025166  -0.00119308  1
  Fe  Fe187  1  -0.00017784  0.33385475  -0.00043764  1
  Fe  Fe188  1  0.50067032  0.33353424  0.50011044  1
  Fe  Fe189  1  0.75055098  0.00034372  0.87493017  1
  Fe  Fe190  1  0.24977222  0.83363205  0.62508161  1
  Fe  Fe191  1  0.49955393  0.49845678  0.00052599  1
  P  P192  1  0.04161814  0.25044242  0.10107477  1
  P  P193  1  0.04254698  0.24805465  0.35263679  1
  P  P194  1  0.04154713  0.25063069  0.60162741  1
  P  P195  1  0.04228845  0.25215406  0.85277286  1
  P  P196  1  0.04046354  0.58317158  0.10075765  1
  P  P197  1  0.04276194  0.58322097  0.35361479  1
  P  P198  1  0.04201273  0.58428116  0.60360654  1
  P  P199  1  0.04071337  0.58355732  0.85203682  1
  P  P200  1  0.04153727  0.91694250  0.10146094  1
  P  P201  1  0.04277462  0.91640227  0.35417135  1
  P  P202  1  0.04117073  0.91648444  0.60166604  1
  P  P203  1  0.04250041  0.91688298  0.85433214  1
  P  P204  1  0.54134528  0.24963765  0.10183037  1
  P  P205  1  0.54184078  0.25063303  0.35147915  1
  P  P206  1  0.54254456  0.25160114  0.60288099  1
  P  P207  1  0.54217081  0.24908857  0.85328792  1
  P  P208  1  0.54136812  0.58106400  0.10242378  1
  P  P209  1  0.54237759  0.58255857  0.35434061  1
  P  P210  1  0.54134262  0.58322325  0.60191234  1
  P  P211  1  0.54184189  0.58080866  0.85297649  1
  P  P212  1  0.54310596  0.91696473  0.10322585  1
  P  P213  1  0.54328274  0.91659699  0.35338655  1
  P  P214  1  0.54247536  0.91724326  0.60438823  1
  P  P215  1  0.54119947  0.91676053  0.85137058  1
  P  P216  1  0.45845276  0.08545465  0.14690626  1
  P  P217  1  0.45759780  0.08450764  0.39633351  1
  P  P218  1  0.45881596  0.08452321  0.64866659  1
  P  P219  1  0.45830119  0.08478344  0.89656190  1
  P  P220  1  0.45776956  0.41449671  0.14675550  1
  P  P221  1  0.45826616  0.41571236  0.39841229  1
  P  P222  1  0.45789609  0.41829742  0.64701690  1
  P  P223  1  0.45799373  0.41593258  0.89846210  1
  P  P224  1  0.45661251  0.74949920  0.14677670  1
  P  P225  1  0.45699498  0.74847446  0.39817922  1
  P  P226  1  0.45786186  0.75060989  0.64740808  1
  P  P227  1  0.45675381  0.75005183  0.89600492  1
  P  P228  1  0.95909357  0.08475838  0.14667414  1
  P  P229  1  0.95945381  0.08349878  0.39824017  1
  P  P230  1  0.95771899  0.08364411  0.64587450  1
  P  P231  1  0.95929684  0.08413433  0.89856982  1
  P  P232  1  0.95719054  0.41631024  0.14565810  1
  P  P233  1  0.95747826  0.41483223  0.39749909  1
  P  P234  1  0.95866448  0.41640682  0.64828837  1
  P  P235  1  0.95840758  0.41669034  0.89752694  1
  P  P236  1  0.95743207  0.75038017  0.14588696  1
  P  P237  1  0.95887509  0.74948966  0.39908894  1
  P  P238  1  0.95817676  0.74887672  0.64738142  1
  P  P239  1  0.95821206  0.74999705  0.89850959  1
  P  P240  1  0.20845775  0.08335742  0.22616431  1
  P  P241  1  0.20811550  0.08156175  0.47744636  1
  P  P242  1  0.20711281  0.08262709  0.72705000  1
  P  P243  1  0.20809876  0.08557807  0.97770223  1
  P  P244  1  0.20669185  0.41787461  0.22662259  1
  P  P245  1  0.20748191  0.41635575  0.47908514  1
  P  P246  1  0.20866292  0.41650726  0.72673593  1
  P  P247  1  0.20754236  0.41861586  0.97731603  1
  P  P248  1  0.20729382  0.74945499  0.22724757  1
  P  P249  1  0.20786716  0.75056915  0.47892788  1
  P  P250  1  0.20742118  0.75132529  0.72746674  1
  P  P251  1  0.20713753  0.75011548  0.97883625  1
  P  P252  1  0.70886826  0.08310032  0.22707168  1
  P  P253  1  0.70856910  0.08250785  0.47591445  1
  P  P254  1  0.70764698  0.08291838  0.72898569  1
  P  P255  1  0.70899965  0.08299832  0.97713265  1
  P  P256  1  0.70766419  0.41748594  0.22750177  1
  P  P257  1  0.70717817  0.41620481  0.47810689  1
  P  P258  1  0.70745658  0.41594219  0.72866173  1
  P  P259  1  0.70762610  0.41649266  0.97953457  1
  P  P260  1  0.70770649  0.74892829  0.22807212  1
  P  P261  1  0.70823581  0.74899348  0.47767957  1
  P  P262  1  0.70773948  0.75188248  0.72787681  1
  P  P263  1  0.70684083  0.75001407  0.97933237  1
  P  P264  1  0.29156020  0.24912747  0.02150888  1
  P  P265  1  0.29222383  0.24985718  0.27063900  1
  P  P266  1  0.29222807  0.25090372  0.52239199  1
  P  P267  1  0.29194279  0.24918197  0.77186831  1
  P  P268  1  0.29078048  0.58327980  0.02314111  1
  P  P269  1  0.29233229  0.58339043  0.27095617  1
  P  P270  1  0.29232095  0.58197102  0.52321341  1
  P  P271  1  0.29144459  0.58175896  0.77220247  1
  P  P272  1  0.29264800  0.91884191  0.02247426  1
  P  P273  1  0.29235362  0.91869685  0.27201834  1
  P  P274  1  0.29159974  0.91724334  0.52342672  1
  P  P275  1  0.29238479  0.91690732  0.77099002  1
  P  P276  1  0.79206780  0.24767292  0.02236600  1
  P  P277  1  0.79216138  0.24797361  0.27168966  1
  P  P278  1  0.79264184  0.24866631  0.52088848  1
  P  P279  1  0.79287545  0.24821760  0.77315731  1
  P  P280  1  0.79100975  0.58348830  0.02421018  1
  P  P281  1  0.79228588  0.58476881  0.27208191  1
  P  P282  1  0.79330823  0.58358678  0.52185922  1
  P  P283  1  0.79316475  0.58370561  0.77253439  1
  P  P284  1  0.79235012  0.91869518  0.02271760  1
  P  P285  1  0.79308069  0.91827572  0.27213929  1
  P  P286  1  0.79236026  0.91521589  0.52217183  1
  P  P287  1  0.79271425  0.91757713  0.77287054  1
  O  O288  1  0.03707045  0.24956262  0.18101658  1
  O  O289  1  0.03737957  0.24822865  0.43246760  1
  O  O290  1  0.03632189  0.25125097  0.68156827  1
  O  O291  1  0.03704758  0.25196483  0.93263351  1
  O  O292  1  0.03621556  0.58303384  0.18076781  1
  O  O293  1  0.03756432  0.58346081  0.43358078  1
  O  O294  1  0.03644608  0.58436446  0.68343702  1
  O  O295  1  0.03556523  0.58315150  0.93190695  1
  O  O296  1  0.03697334  0.91720012  0.18147822  1
  O  O297  1  0.03726988  0.91620223  0.43402034  1
  O  O298  1  0.03670840  0.91672176  0.68167862  1
  O  O299  1  0.03709991  0.91685358  0.93419533  1
  O  O300  1  0.53617265  0.24968031  0.18172689  1
  O  O301  1  0.53698127  0.25106929  0.43146070  1
  O  O302  1  0.53730438  0.25098506  0.68277991  1
  O  O303  1  0.53661384  0.24908145  0.93313480  1
  O  O304  1  0.53651851  0.58125159  0.18239951  1
  O  O305  1  0.53692631  0.58290879  0.43423245  1
  O  O306  1  0.53640733  0.58292121  0.68192526  1
  O  O307  1  0.53628792  0.58061953  0.93287642  1
  O  O308  1  0.53808802  0.91714315  0.18316896  1
  O  O309  1  0.53829624  0.91672022  0.43338405  1
  O  O310  1  0.53688963  0.91709492  0.68426732  1
  O  O311  1  0.53662286  0.91705899  0.93138535  1
  O  O312  1  0.46359418  0.08541828  0.06693270  1
  O  O313  1  0.46296151  0.08489558  0.31639912  1
  O  O314  1  0.46332407  0.08436975  0.56864590  1
  O  O315  1  0.46356855  0.08458973  0.81668504  1
  O  O316  1  0.46316759  0.41488032  0.06689521  1
  O  O317  1  0.46330866  0.41497545  0.31844347  1
  O  O318  1  0.46337424  0.41822561  0.56721192  1
  O  O319  1  0.46292389  0.41658454  0.81852091  1
  O  O320  1  0.46157609  0.74946342  0.06676762  1
  O  O321  1  0.46198612  0.74864252  0.31817623  1
  O  O322  1  0.46322749  0.74971211  0.56747750  1
  O  O323  1  0.46229814  0.75050968  0.81605848  1
  O  O324  1  0.96434033  0.08459335  0.06683957  1
  O  O325  1  0.96438040  0.08349445  0.31829390  1
  O  O326  1  0.96329035  0.08362694  0.56602533  1
  O  O327  1  0.96349150  0.08401989  0.81855722  1
  O  O328  1  0.96231616  0.41642859  0.06575069  1
  O  O329  1  0.96263656  0.41503153  0.31753789  1
  O  O330  1  0.96341083  0.41639410  0.56833761  1
  O  O331  1  0.96351605  0.41679125  0.81764931  1
  O  O332  1  0.96236948  0.75054519  0.06599200  1
  O  O333  1  0.96375689  0.74968247  0.31907839  1
  O  O334  1  0.96367531  0.74906993  0.56752842  1
  O  O335  1  0.96320338  0.74934194  0.81854994  1
  O  O336  1  0.21355812  0.08547828  0.05758462  1
  O  O337  1  0.21351938  0.08296901  0.30614770  1
  O  O338  1  0.21314130  0.08167817  0.55738251  1
  O  O339  1  0.21233329  0.08370989  0.80699178  1
  O  O340  1  0.21262385  0.41867695  0.05723371  1
  O  O341  1  0.21174567  0.41730741  0.30662081  1
  O  O342  1  0.21302957  0.41607565  0.55901188  1
  O  O343  1  0.21349949  0.41665225  0.80673519  1
  O  O344  1  0.21238656  0.74959586  0.05878523  1
  O  O345  1  0.21247839  0.74961874  0.30726346  1
  O  O346  1  0.21315748  0.75112062  0.55886816  1
  O  O347  1  0.21239188  0.75106952  0.80746770  1
  O  O348  1  0.71419771  0.08300409  0.05706819  1
  O  O349  1  0.71402258  0.08315578  0.30697198  1
  O  O350  1  0.71327137  0.08253223  0.55593692  1
  O  O351  1  0.71293977  0.08302882  0.80888142  1
  O  O352  1  0.71309660  0.41704021  0.05945172  1
  O  O353  1  0.71266718  0.41718520  0.30747283  1
  O  O354  1  0.71231163  0.41598575  0.55808133  1
  O  O355  1  0.71241747  0.41583163  0.80868413  1
  O  O356  1  0.71197779  0.74953398  0.05929233  1
  O  O357  1  0.71326866  0.74866781  0.30799293  1
  O  O358  1  0.71362377  0.75006776  0.55761188  1
  O  O359  1  0.71241859  0.75170873  0.80790187  1
  O  O360  1  0.28663658  0.24965966  0.19071444  1
  O  O361  1  0.28730874  0.25072728  0.44239954  1
  O  O362  1  0.28668800  0.24984414  0.69192308  1
  O  O363  1  0.28632865  0.24917859  0.94156500  1
  O  O364  1  0.28673974  0.58366341  0.19102624  1
  O  O365  1  0.28752918  0.58226669  0.44320701  1
  O  O366  1  0.28644467  0.58150372  0.69227281  1
  O  O367  1  0.28589906  0.58304333  0.94310520  1
  O  O368  1  0.28706096  0.91872852  0.19208415  1
  O  O369  1  0.28696263  0.91742898  0.44336396  1
  O  O370  1  0.28695733  0.91658585  0.69108151  1
  O  O371  1  0.28753835  0.91862244  0.94251484  1
  O  O372  1  0.78690450  0.24782034  0.19171873  1
  O  O373  1  0.78726738  0.24836220  0.44093393  1
  O  O374  1  0.78795664  0.24864646  0.69313828  1
  O  O375  1  0.78679398  0.24748168  0.94243530  1
  O  O376  1  0.78630052  0.58445843  0.19221486  1
  O  O377  1  0.78826209  0.58405290  0.44188820  1
  O  O378  1  0.78837314  0.58368457  0.69254386  1
  O  O379  1  0.78632895  0.58340869  0.94419058  1
  O  O380  1  0.78766570  0.91838040  0.19221520  1
  O  O381  1  0.78736027  0.91572694  0.44222698  1
  O  O382  1  0.78763931  0.91664594  0.69290125  1
  O  O383  1  0.78712107  0.91885376  0.94276696  1
  O  O384  1  0.22736429  0.24925342  0.05724111  1
  O  O385  1  0.22803190  0.24958807  0.30627938  1
  O  O386  1  0.22783804  0.25070085  0.55759890  1
  O  O387  1  0.22769232  0.24905215  0.80760494  1
  O  O388  1  0.22654483  0.58339180  0.05891929  1
  O  O389  1  0.22813234  0.58343910  0.30670933  1
  O  O390  1  0.22794364  0.58191491  0.55842241  1
  O  O391  1  0.22711304  0.58172913  0.80773976  1
  O  O392  1  0.22828294  0.91905496  0.05787096  1
  O  O393  1  0.22808337  0.91865195  0.30776234  1
  O  O394  1  0.22729729  0.91735119  0.55911083  1
  O  O395  1  0.22820674  0.91732659  0.80675576  1
  O  O396  1  0.72791555  0.24770285  0.05822931  1
  O  O397  1  0.72788759  0.24779655  0.30732284  1
  O  O398  1  0.72831988  0.24898821  0.55628124  1
  O  O399  1  0.72843944  0.24762780  0.80834163  1
  O  O400  1  0.72678857  0.58360603  0.05980806  1
  O  O401  1  0.72826025  0.58532788  0.30854455  1
  O  O402  1  0.72892273  0.58352326  0.55701827  1
  O  O403  1  0.72855842  0.58352513  0.80710155  1
  O  O404  1  0.72813900  0.91875031  0.05847279  1
  O  O405  1  0.72881487  0.91800361  0.30782788  1
  O  O406  1  0.72808663  0.91461678  0.55792240  1
  O  O407  1  0.72832162  0.91860778  0.80832710  1
  O  O408  1  0.27264749  0.08333638  0.19018930  1
  O  O409  1  0.27240883  0.08175225  0.44179382  1
  O  O410  1  0.27148397  0.08198054  0.69162782  1
  O  O411  1  0.27219187  0.08609821  0.94143881  1
  O  O412  1  0.27106563  0.41820330  0.19135023  1
  O  O413  1  0.27168155  0.41642093  0.44329027  1
  O  O414  1  0.27281034  0.41649948  0.69086541  1
  O  O415  1  0.27181721  0.41840394  0.94169649  1
  O  O416  1  0.27159771  0.74955544  0.19184889  1
  O  O417  1  0.27208127  0.75066175  0.44335052  1
  O  O418  1  0.27175758  0.75131064  0.69214258  1
  O  O419  1  0.27139606  0.74981248  0.94338794  1
  O  O420  1  0.77302171  0.08322723  0.19085624  1
  O  O421  1  0.77287832  0.08248785  0.44033251  1
  O  O422  1  0.77189237  0.08238156  0.69340263  1
  O  O423  1  0.77311068  0.08274182  0.94082235  1
  O  O424  1  0.77199535  0.41740730  0.19220789  1
  O  O425  1  0.77156506  0.41613924  0.44304608  1
  O  O426  1  0.77198065  0.41583833  0.69383891  1
  O  O427  1  0.77187074  0.41604385  0.94400615  1
  O  O428  1  0.77188576  0.74904705  0.19219714  1
  O  O429  1  0.77248702  0.74863750  0.44183172  1
  O  O430  1  0.77223273  0.75187193  0.69281702  1
  O  O431  1  0.77129000  0.75048292  0.94428872  1
  O  O432  1  0.02325642  0.08493525  0.18286471  1
  O  O433  1  0.02352853  0.08383397  0.43436760  1
  O  O434  1  0.02185120  0.08407250  0.68194516  1
  O  O435  1  0.02357186  0.08427160  0.93390469  1
  O  O436  1  0.02149410  0.41601710  0.18132562  1
  O  O437  1  0.02178846  0.41491027  0.43311129  1
  O  O438  1  0.02284069  0.41617814  0.68433011  1
  O  O439  1  0.02246228  0.41644965  0.93387220  1
  O  O440  1  0.02179853  0.75018114  0.18138484  1
  O  O441  1  0.02302231  0.74968597  0.43505154  1
  O  O442  1  0.02227874  0.74828897  0.68371561  1
  O  O443  1  0.02233738  0.75035135  0.93452170  1
  O  O444  1  0.52271195  0.08563782  0.18268475  1
  O  O445  1  0.52194581  0.08449696  0.43175883  1
  O  O446  1  0.52304457  0.08489457  0.68433028  1
  O  O447  1  0.52249422  0.08520135  0.93266473  1
  O  O448  1  0.52191755  0.41390504  0.18299903  1
  O  O449  1  0.52243361  0.41617937  0.43453337  1
  O  O450  1  0.52199627  0.41819557  0.68340924  1
  O  O451  1  0.52216100  0.41565140  0.93454678  1
  O  O452  1  0.52108915  0.74943960  0.18183648  1
  O  O453  1  0.52144705  0.74799518  0.43350691  1
  O  O454  1  0.52202025  0.75091405  0.68339390  1
  O  O455  1  0.52102319  0.74925503  0.93156713  1
  O  O456  1  0.47730619  0.24979045  0.06531597  1
  O  O457  1  0.47757829  0.25043890  0.31550753  1
  O  O458  1  0.47819519  0.25216733  0.56714919  1
  O  O459  1  0.47810032  0.24897748  0.81688381  1
  O  O460  1  0.47699145  0.58077602  0.06695616  1
  O  O461  1  0.47814258  0.58196465  0.31853224  1
  O  O462  1  0.47717207  0.58323026  0.56583044  1
  O  O463  1  0.47761673  0.58136647  0.81703208  1
  O  O464  1  0.47866540  0.91743020  0.06813595  1
  O  O465  1  0.47876435  0.91715098  0.31850472  1
  O  O466  1  0.47830116  0.91709763  0.56839067  1
  O  O467  1  0.47705417  0.91646983  0.81554059  1
  O  O468  1  0.97737788  0.25097903  0.06530102  1
  O  O469  1  0.97829684  0.24762080  0.31654411  1
  O  O470  1  0.97749987  0.25005923  0.56527265  1
  O  O471  1  0.97803284  0.25256658  0.81681208  1
  O  O472  1  0.97615435  0.58321408  0.06536050  1
  O  O473  1  0.97840085  0.58302753  0.31816349  1
  O  O474  1  0.97801348  0.58445781  0.56704691  1
  O  O475  1  0.97673501  0.58385135  0.81557314  1
  O  O476  1  0.97733661  0.91644935  0.06575242  1
  O  O477  1  0.97858036  0.91688222  0.31823354  1
  O  O478  1  0.97697174  0.91612343  0.56599294  1
  O  O479  1  0.97831118  0.91667530  0.81844764  1
  O  O480  1  0.07262840  0.31410715  0.07317471  1
  O  O481  1  0.07340656  0.31172034  0.32426385  1
  O  O482  1  0.07214588  0.31427431  0.57300363  1
  O  O483  1  0.07348132  0.31535846  0.82395519  1
  O  O484  1  0.07117617  0.64692278  0.07259800  1
  O  O485  1  0.07389026  0.64653704  0.32509129  1
  O  O486  1  0.07318496  0.64753400  0.57481145  1
  O  O487  1  0.07202754  0.64708126  0.82412373  1
  O  O488  1  0.07171900  0.98109384  0.07327587  1
  O  O489  1  0.07422472  0.97966101  0.32574099  1
  O  O490  1  0.07153833  0.98038649  0.57324723  1
  O  O491  1  0.07362422  0.98028839  0.82582020  1
  O  O492  1  0.57239841  0.31314175  0.07338410  1
  O  O493  1  0.57272340  0.31401745  0.32279334  1
  O  O494  1  0.57330030  0.31516851  0.57447975  1
  O  O495  1  0.57328908  0.31281961  0.82558603  1
  O  O496  1  0.57218925  0.64476876  0.07444990  1
  O  O497  1  0.57332034  0.64589737  0.32547339  1
  O  O498  1  0.57190548  0.64729673  0.57419860  1
  O  O499  1  0.57326112  0.64445473  0.82541757  1
  O  O500  1  0.57439871  0.98029381  0.07495920  1
  O  O501  1  0.57470831  0.97980735  0.32517117  1
  O  O502  1  0.57360036  0.98078253  0.57615352  1
  O  O503  1  0.57150581  0.98086532  0.82328778  1
  O  O504  1  0.42758729  0.02162418  0.17467005  1
  O  O505  1  0.42665285  0.02089116  0.42447638  1
  O  O506  1  0.42853227  0.02054954  0.67703626  1
  O  O507  1  0.42734553  0.02109698  0.92474420  1
  O  O508  1  0.42653629  0.35117102  0.17519654  1
  O  O509  1  0.42753092  0.35218476  0.42708811  1
  O  O510  1  0.42663723  0.35481256  0.67517624  1
  O  O511  1  0.42730013  0.35193896  0.92610695  1
  O  O512  1  0.42563373  0.68595537  0.17477434  1
  O  O513  1  0.42599180  0.68514059  0.42668700  1
  O  O514  1  0.42648628  0.68725438  0.67552592  1
  O  O515  1  0.42530566  0.68644987  0.92356708  1
  O  O516  1  0.92799548  0.02120093  0.17490271  1
  O  O517  1  0.92915720  0.01935656  0.42647342  1
  O  O518  1  0.92673813  0.02014033  0.67435647  1
  O  O519  1  0.92877413  0.02041701  0.92717119  1
  O  O520  1  0.92591053  0.35291166  0.17396756  1
  O  O521  1  0.92690791  0.35111525  0.42577170  1
  O  O522  1  0.92741091  0.35303026  0.67648095  1
  O  O523  1  0.92704236  0.35342473  0.92598767  1
  O  O524  1  0.92632960  0.68699132  0.17447352  1
  O  O525  1  0.92820299  0.68567297  0.42698854  1
  O  O526  1  0.92680099  0.68578466  0.67614851  1
  O  O527  1  0.92747847  0.68630381  0.92706405  1
  O  O528  1  0.17733564  0.01998501  0.19758555  1
  O  O529  1  0.17742996  0.01815625  0.44863594  1
  O  O530  1  0.17622279  0.01895767  0.69903703  1
  O  O531  1  0.17722387  0.02174485  0.94984570  1
  O  O532  1  0.17571482  0.35426269  0.19852078  1
  O  O533  1  0.17621148  0.35313041  0.45027375  1
  O  O534  1  0.17821727  0.35248679  0.69855902  1
  O  O535  1  0.17650622  0.35486534  0.94959775  1
  O  O536  1  0.17666073  0.68588142  0.19858420  1
  O  O537  1  0.17700911  0.68671678  0.45126755  1
  O  O538  1  0.17633544  0.68756550  0.69991665  1
  O  O539  1  0.17560064  0.68708740  0.95014333  1
  O  O540  1  0.67804261  0.01947371  0.19852974  1
  O  O541  1  0.67793514  0.01866036  0.44791903  1
  O  O542  1  0.67613005  0.01978801  0.70038554  1
  O  O543  1  0.67783870  0.01955991  0.94862707  1
  O  O544  1  0.67652937  0.35386635  0.19972633  1
  O  O545  1  0.67602773  0.35289134  0.44965316  1
  O  O546  1  0.67640773  0.35245474  0.70052183  1
  O  O547  1  0.67646052  0.35280217  0.95183464  1
  O  O548  1  0.67654932  0.68574596  0.19932508  1
  O  O549  1  0.67759182  0.68512950  0.44980050  1
  O  O550  1  0.67665236  0.68820365  0.70003527  1
  O  O551  1  0.67576427  0.68679228  0.95048787  1
  O  O552  1  0.32261696  0.31296095  0.04906974  1
  O  O553  1  0.32303930  0.31365531  0.29854374  1
  O  O554  1  0.32272363  0.31441476  0.55127931  1
  O  O555  1  0.32331256  0.31248282  0.80019336  1
  O  O556  1  0.32146897  0.64713652  0.05126193  1
  O  O557  1  0.32368446  0.64660090  0.29965728  1
  O  O558  1  0.32334412  0.64557474  0.55117899  1
  O  O559  1  0.32232894  0.64566558  0.79981422  1
  O  O560  1  0.32343992  0.98248003  0.05063166  1
  O  O561  1  0.32327308  0.98200087  0.30079949  1
  O  O562  1  0.32266980  0.98068928  0.55190194  1
  O  O563  1  0.32372378  0.98041712  0.79903382  1
  O  O564  1  0.82307298  0.31151645  0.04990510  1
  O  O565  1  0.82300954  0.31198334  0.29909313  1
  O  O566  1  0.82371625  0.31221097  0.54908662  1
  O  O567  1  0.82353159  0.31193462  0.80143559  1
  O  O568  1  0.82188201  0.64723412  0.05211430  1
  O  O569  1  0.82364609  0.64802027  0.30058688  1
  O  O570  1  0.82459671  0.64668183  0.55059729  1
  O  O571  1  0.82383322  0.64737383  0.80084435  1
  O  O572  1  0.82351816  0.98193285  0.05128470  1
  O  O573  1  0.82388337  0.98161361  0.30104015  1
  O  O574  1  0.82322066  0.97885378  0.55033427  1
  O  O575  1  0.82384159  0.98110738  0.80101792  1
  O  O576  1  0.42737413  0.14871973  0.17546235  1
  O  O577  1  0.42626510  0.14771964  0.42475680  1
  O  O578  1  0.42772975  0.14810854  0.67654040  1
  O  O579  1  0.42716097  0.14803102  0.92530841  1
  O  O580  1  0.42692502  0.47805305  0.17526054  1
  O  O581  1  0.42738470  0.47957248  0.42608318  1
  O  O582  1  0.42713710  0.48170189  0.67595730  1
  O  O583  1  0.42701154  0.47928371  0.92719406  1
  O  O584  1  0.42578473  0.81310949  0.17496827  1
  O  O585  1  0.42636524  0.81242298  0.42591196  1
  O  O586  1  0.42713588  0.81439469  0.67530131  1
  O  O587  1  0.42579955  0.81340193  0.92454211  1
  O  O588  1  0.92822315  0.14813051  0.17553042  1
  O  O589  1  0.92794413  0.14662987  0.42646371  1
  O  O590  1  0.92627701  0.14690495  0.67428877  1
  O  O591  1  0.92856003  0.14789997  0.92659342  1
  O  O592  1  0.92624809  0.47965602  0.17447842  1
  O  O593  1  0.92630621  0.47833184  0.42537952  1
  O  O594  1  0.92840797  0.48042264  0.67670453  1
  O  O595  1  0.92784720  0.48055818  0.92609711  1
  O  O596  1  0.92646808  0.81374406  0.17474679  1
  O  O597  1  0.92793081  0.81318954  0.42710317  1
  O  O598  1  0.92745525  0.81271716  0.67550580  1
  O  O599  1  0.92718045  0.81367532  0.92628442  1
  O  O600  1  0.07210140  0.18685201  0.07203878  1
  O  O601  1  0.07354884  0.18479476  0.32359213  1
  O  O602  1  0.07274154  0.18691677  0.57408733  1
  O  O603  1  0.07304132  0.18844741  0.82441740  1
  O  O604  1  0.07103349  0.51951757  0.07213595  1
  O  O605  1  0.07365949  0.51954613  0.32556196  1
  O  O606  1  0.07308532  0.52056224  0.57581802  1
  O  O607  1  0.07125559  0.51979779  0.82321417  1
  O  O608  1  0.07277332  0.85354812  0.07346387  1
  O  O609  1  0.07375154  0.85298703  0.32555385  1
  O  O610  1  0.07223437  0.85286221  0.57388177  1
  O  O611  1  0.07377979  0.85352787  0.82587370  1
  O  O612  1  0.57226089  0.18604642  0.07342432  1
  O  O613  1  0.57245155  0.18676524  0.32333693  1
  O  O614  1  0.57352155  0.18809709  0.57451238  1
  O  O615  1  0.57325882  0.18589021  0.82439828  1
  O  O616  1  0.57219998  0.51749582  0.07423918  1
  O  O617  1  0.57380415  0.51917917  0.32622430  1
  O  O618  1  0.57241652  0.51985150  0.57349704  1
  O  O619  1  0.57253858  0.51744665  0.82413739  1
  O  O620  1  0.57374954  0.85327053  0.07514552  1
  O  O621  1  0.57374565  0.85270585  0.32549835  1
  O  O622  1  0.57388357  0.85398342  0.57600081  1
  O  O623  1  0.57228172  0.85315960  0.82352720  1
  O  O624  1  0.32250921  0.18589841  0.05035398  1
  O  O625  1  0.32378196  0.18680701  0.29904560  1
  O  O626  1  0.32351210  0.18731711  0.55007694  1
  O  O627  1  0.32246068  0.18537721  0.80001471  1
  O  O628  1  0.32168603  0.51972516  0.05155566  1
  O  O629  1  0.32346213  0.51982119  0.29913208  1
  O  O630  1  0.32294011  0.51835618  0.55159168  1
  O  O631  1  0.32237457  0.51856535  0.80129792  1
  O  O632  1  0.32358920  0.85519338  0.05037165  1
  O  O633  1  0.32328297  0.85489793  0.29991622  1
  O  O634  1  0.32194791  0.85324814  0.55169919  1
  O  O635  1  0.32347271  0.85364167  0.79977820  1
  O  O636  1  0.82316131  0.18446221  0.05107345  1
  O  O637  1  0.82327657  0.18480452  0.30050961  1
  O  O638  1  0.82374410  0.18533670  0.54929160  1
  O  O639  1  0.82385849  0.18475414  0.80144245  1
  O  O640  1  0.82158408  0.51960805  0.05235607  1
  O  O641  1  0.82329672  0.52095812  0.29988847  1
  O  O642  1  0.82416062  0.51975159  0.54969508  1
  O  O643  1  0.82418224  0.52027848  0.80083314  1
  O  O644  1  0.82317535  0.85483497  0.05042685  1
  O  O645  1  0.82423554  0.85452832  0.29974154  1
  O  O646  1  0.82309049  0.85166894  0.55077166  1
  O  O647  1  0.82344889  0.85410135  0.80161958  1
  O  O648  1  0.17798539  0.14735941  0.19808205  1
  O  O649  1  0.17715142  0.14531480  0.44957285  1
  O  O650  1  0.17605156  0.14600451  0.69851811  1
  O  O651  1  0.17688427  0.14871475  0.94876015  1
  O  O652  1  0.17584813  0.48143610  0.19839330  1
  O  O653  1  0.17623199  0.47982468  0.45095807  1
  O  O654  1  0.17755487  0.47996556  0.69849663  1
  O  O655  1  0.17674655  0.48193470  0.94837976  1
  O  O656  1  0.17609730  0.81312872  0.19968088  1
  O  O657  1  0.17647403  0.81365471  0.45027582  1
  O  O658  1  0.17675394  0.81482871  0.69883112  1
  O  O659  1  0.17651157  0.81403208  0.95107946  1
  O  O660  1  0.67782647  0.14656270  0.19840413  1
  O  O661  1  0.67784578  0.14622614  0.44765822  1
  O  O662  1  0.67680028  0.14642024  0.70033818  1
  O  O663  1  0.67831883  0.14675839  0.94877264  1
  O  O664  1  0.67706306  0.48123300  0.19935490  1
  O  O665  1  0.67625408  0.47983835  0.45027222  1
  O  O666  1  0.67666770  0.47958555  0.70050838  1
  O  O667  1  0.67642735  0.47968659  0.95093940  1
  O  O668  1  0.67673573  0.81289425  0.20078293  1
  O  O669  1  0.67687104  0.81219772  0.44917362  1
  O  O670  1  0.67735973  0.81544113  0.69905673  1
  O  O671  1  0.67581376  0.81368348  0.95142021  1
