# generated using pymatgen
data_Na2MnFe(PO4)2
_symmetry_space_group_name_H-M   'P 1'
_cell_length_a   22.34637356
_cell_length_b   20.09668026
_cell_length_c   19.44744383
_cell_angle_alpha   90.01395120
_cell_angle_beta   89.96343831
_cell_angle_gamma   90.04287576
_symmetry_Int_Tables_number   1
_chemical_formula_structural   Na2MnFe(PO4)2
_chemical_formula_sum   'Na96 Mn48 Fe48 P96 O384'
_cell_volume   8733.60769991
_cell_formula_units_Z   48
loop_
 _symmetry_equiv_pos_site_id
 _symmetry_equiv_pos_as_xyz
  1  'x, y, z'
loop_
 _atom_site_type_symbol
 _atom_site_label
 _atom_site_symmetry_multiplicity
 _atom_site_fract_x
 _atom_site_fract_y
 _atom_site_fract_z
 _atom_site_occupancy
  Na  Na0  1  0.14028521  0.24937314  0.24316201  1
  Na  Na1  1  0.13998995  0.25062712  0.49210710  1
  Na  Na2  1  0.13996795  0.24968070  0.74364903  1
  Na  Na3  1  0.14068769  0.25060753  0.99431090  1
  Na  Na4  1  0.14031987  0.58180333  0.24319144  1
  Na  Na5  1  0.14016450  0.58267929  0.49310478  1
  Na  Na6  1  0.14036867  0.58426726  0.74362078  1
  Na  Na7  1  0.14093668  0.58393058  0.99308963  1
  Na  Na8  1  0.14077561  0.91676761  0.24221380  1
  Na  Na9  1  0.14059763  0.91686068  0.49456545  1
  Na  Na10  1  0.14043312  0.91559300  0.74348365  1
  Na  Na11  1  0.14061287  0.91731118  0.99241964  1
  Na  Na12  1  0.64016332  0.24921591  0.24480844  1
  Na  Na13  1  0.63956946  0.25040029  0.49421598  1
  Na  Na14  1  0.64029222  0.24998442  0.74410086  1
  Na  Na15  1  0.64078086  0.25177429  0.99394065  1
  Na  Na16  1  0.64057915  0.58164513  0.24362315  1
  Na  Na17  1  0.64012745  0.58278190  0.49428753  1
  Na  Na18  1  0.64017636  0.58260178  0.74575048  1
  Na  Na19  1  0.64040340  0.58374178  0.99254250  1
  Na  Na20  1  0.64082330  0.91552584  0.24377297  1
  Na  Na21  1  0.64061683  0.91759265  0.49421316  1
  Na  Na22  1  0.64057781  0.91701122  0.74340436  1
  Na  Na23  1  0.64074292  0.91705570  0.99324075  1
  Na  Na24  1  0.35890531  0.08518917  0.00611602  1
  Na  Na25  1  0.35926148  0.08424593  0.25595137  1
  Na  Na26  1  0.35906213  0.08328251  0.50616173  1
  Na  Na27  1  0.35913777  0.08356669  0.75651194  1
  Na  Na28  1  0.35920264  0.41746926  0.00588025  1
  Na  Na29  1  0.35903628  0.41547814  0.25711564  1
  Na  Na30  1  0.35966935  0.41612275  0.50731010  1
  Na  Na31  1  0.35889400  0.41687064  0.75813880  1
  Na  Na32  1  0.35965863  0.75077909  0.00598298  1
  Na  Na33  1  0.35991622  0.74916058  0.25561687  1
  Na  Na34  1  0.35945577  0.74986791  0.50630856  1
  Na  Na35  1  0.35888507  0.74921014  0.75639752  1
  Na  Na36  1  0.85968221  0.08469299  0.00588945  1
  Na  Na37  1  0.86011042  0.08353023  0.25601892  1
  Na  Na38  1  0.85972919  0.08441645  0.50643485  1
  Na  Na39  1  0.85945761  0.08370707  0.75611077  1
  Na  Na40  1  0.85964556  0.41796971  0.00612238  1
  Na  Na41  1  0.86006451  0.41517897  0.25741395  1
  Na  Na42  1  0.86011121  0.41629470  0.50597481  1
  Na  Na43  1  0.85940555  0.41624852  0.75663918  1
  Na  Na44  1  0.86047357  0.75047660  0.00537122  1
  Na  Na45  1  0.85993297  0.74790507  0.25582306  1
  Na  Na46  1  0.85966532  0.75045368  0.50669819  1
  Na  Na47  1  0.86004562  0.74952233  0.75784755  1
  Na  Na48  1  0.11018805  0.08342381  0.11772566  1
  Na  Na49  1  0.11002831  0.08533633  0.36803760  1
  Na  Na50  1  0.10980785  0.08499897  0.61826788  1
  Na  Na51  1  0.10971268  0.08261442  0.86868396  1
  Na  Na52  1  0.11023947  0.41606412  0.11994821  1
  Na  Na53  1  0.10969863  0.41659239  0.36760039  1
  Na  Na54  1  0.10918765  0.41585505  0.61807531  1
  Na  Na55  1  0.11020954  0.41621787  0.86773211  1
  Na  Na56  1  0.10984436  0.74978969  0.11760270  1
  Na  Na57  1  0.10958156  0.74898073  0.36887795  1
  Na  Na58  1  0.11001788  0.74901535  0.61904800  1
  Na  Na59  1  0.11044770  0.75025250  0.86742150  1
  Na  Na60  1  0.60944810  0.08426579  0.11960708  1
  Na  Na61  1  0.60963228  0.08322103  0.36949836  1
  Na  Na62  1  0.60977232  0.08318648  0.61861409  1
  Na  Na63  1  0.60953976  0.08462055  0.86772741  1
  Na  Na64  1  0.60970963  0.41724291  0.11854899  1
  Na  Na65  1  0.60939075  0.41625175  0.36966062  1
  Na  Na66  1  0.60901832  0.41648890  0.62055213  1
  Na  Na67  1  0.60979322  0.41726662  0.86883160  1
  Na  Na68  1  0.61000186  0.74932881  0.11801606  1
  Na  Na69  1  0.60950057  0.74993115  0.36914677  1
  Na  Na70  1  0.60953820  0.74903776  0.61982762  1
  Na  Na71  1  0.61037918  0.74938826  0.86836360  1
  Na  Na72  1  0.38937393  0.25051213  0.13189182  1
  Na  Na73  1  0.38939197  0.24989630  0.38211390  1
  Na  Na74  1  0.38950791  0.25018321  0.63218528  1
  Na  Na75  1  0.38937816  0.25135649  0.88184309  1
  Na  Na76  1  0.39002861  0.58472953  0.13037402  1
  Na  Na77  1  0.39026409  0.58298217  0.38190317  1
  Na  Na78  1  0.38980726  0.58228311  0.63187408  1
  Na  Na79  1  0.38954778  0.58330512  0.88225750  1
  Na  Na80  1  0.39052026  0.91767943  0.13076672  1
  Na  Na81  1  0.39049420  0.91596127  0.37990154  1
  Na  Na82  1  0.39008760  0.91555652  0.63111085  1
  Na  Na83  1  0.39008061  0.91630242  0.88042745  1
  Na  Na84  1  0.89045753  0.25092943  0.13199465  1
  Na  Na85  1  0.89066132  0.25067771  0.38144741  1
  Na  Na86  1  0.89010044  0.24980867  0.63050574  1
  Na  Na87  1  0.88970693  0.24881035  0.88148564  1
  Na  Na88  1  0.89050997  0.58292844  0.13165931  1
  Na  Na89  1  0.89061279  0.58203561  0.38019975  1
  Na  Na90  1  0.89069472  0.58322010  0.63140067  1
  Na  Na91  1  0.89033175  0.58454531  0.88211122  1
  Na  Na92  1  0.89121995  0.91648525  0.13008862  1
  Na  Na93  1  0.89123203  0.91766450  0.38119682  1
  Na  Na94  1  0.89065735  0.91702016  0.63228420  1
  Na  Na95  1  0.89069197  0.91601183  0.88097618  1
  Mn  Mn96  1  0.49951409  0.50021195  0.25040601  1
  Mn  Mn97  1  0.24934360  0.66540813  0.37525759  1
  Mn  Mn98  1  0.24991097  0.00072491  0.87406717  1
  Mn  Mn99  1  0.49942812  -0.00143585  0.49892520  1
  Mn  Mn100  1  0.25016785  0.83342834  0.12402567  1
  Mn  Mn101  1  0.75016243  0.49994914  0.62614193  1
  Mn  Mn102  1  0.75025277  0.66649329  0.62576452  1
  Mn  Mn103  1  0.49934885  0.16714628  0.74969918  1
  Mn  Mn104  1  0.49941194  0.83321103  0.75012599  1
  Mn  Mn105  1  0.24966968  0.00022887  0.62472280  1
  Mn  Mn106  1  0.49954326  0.66598927  0.50026890  1
  Mn  Mn107  1  0.49983652  0.00071668  0.00057185  1
  Mn  Mn108  1  0.50071288  0.66734670  0.25069418  1
  Mn  Mn109  1  0.75003390  0.49964982  0.12457635  1
  Mn  Mn110  1  0.50051474  0.00005234  0.25020841  1
  Mn  Mn111  1  -0.00014321  0.33311714  -0.00000481  1
  Mn  Mn112  1  0.24917006  0.33278499  0.62557391  1
  Mn  Mn113  1  0.75051937  0.83303862  0.37505584  1
  Mn  Mn114  1  0.24968471  0.83279278  0.37401755  1
  Mn  Mn115  1  0.49978307  0.16774225  -0.00075013  1
  Mn  Mn116  1  0.49923741  0.66522240  0.74930868  1
  Mn  Mn117  1  0.00024638  0.00009429  0.74988024  1
  Mn  Mn118  1  0.74957785  0.83397349  0.62558532  1
  Mn  Mn119  1  0.50124357  0.83328969  -0.00045936  1
  Mn  Mn120  1  -0.00084457  0.66563461  0.49969869  1
  Mn  Mn121  1  0.50003359  0.33472743  0.00088601  1
  Mn  Mn122  1  0.49886577  0.16679623  0.50075462  1
  Mn  Mn123  1  0.25009457  0.49963665  0.12462345  1
  Mn  Mn124  1  0.49927004  0.33306966  0.25007860  1
  Mn  Mn125  1  0.74969475  0.66526583  0.37551498  1
  Mn  Mn126  1  0.00078667  0.16580686  0.00045566  1
  Mn  Mn127  1  0.75094150  0.83223425  0.12438375  1
  Mn  Mn128  1  0.74988443  0.33272021  0.37572780  1
  Mn  Mn129  1  0.00125066  0.00092622  0.25030394  1
  Mn  Mn130  1  0.00081592  0.49995157  -0.00002620  1
  Mn  Mn131  1  -0.00082613  0.33235851  0.74867871  1
  Mn  Mn132  1  0.00099580  0.66721434  0.00049015  1
  Mn  Mn133  1  -0.00002416  0.83301339  0.50005097  1
  Mn  Mn134  1  -0.00071108  0.50023511  0.74921112  1
  Mn  Mn135  1  0.00077962  0.00142885  0.50078986  1
  Mn  Mn136  1  0.74993072  0.00081349  0.87472209  1
  Mn  Mn137  1  0.00081737  0.83311767  0.25009131  1
  Mn  Mn138  1  0.25041337  0.00062931  0.37449431  1
  Mn  Mn139  1  0.75008230  0.00022610  0.12456435  1
  Mn  Mn140  1  0.74989936  0.16777455  0.12498382  1
  Mn  Mn141  1  0.74902898  0.33257910  0.62575433  1
  Mn  Mn142  1  0.24893335  0.50024473  0.62564516  1
  Mn  Mn143  1  0.75078943  0.00071779  0.37482762  1
  Fe  Fe144  1  -0.00033992  0.16726259  0.24956339  1
  Fe  Fe145  1  0.25033653  0.83364069  0.87451292  1
  Fe  Fe146  1  0.24924174  0.50054332  0.87558735  1
  Fe  Fe147  1  -0.00014534  -0.00042145  -0.00054179  1
  Fe  Fe148  1  0.00060701  0.83323306  -0.00038629  1
  Fe  Fe149  1  0.50011862  0.83285067  0.50017631  1
  Fe  Fe150  1  0.75033603  0.83358692  0.87483217  1
  Fe  Fe151  1  0.75050634  0.50014723  0.87610030  1
  Fe  Fe152  1  0.49990646  0.49900544  0.50127519  1
  Fe  Fe153  1  0.75040897  0.33382856  0.12491005  1
  Fe  Fe154  1  0.25075627  0.49942332  0.37482110  1
  Fe  Fe155  1  0.49993004  -0.00019573  0.74952423  1
  Fe  Fe156  1  0.25028748  0.16747197  0.12517803  1
  Fe  Fe157  1  -0.00000610  0.16768073  0.49912625  1
  Fe  Fe158  1  0.00056789  0.83309923  0.75047347  1
  Fe  Fe159  1  0.75027848  0.49900651  0.37475694  1
  Fe  Fe160  1  0.25005477  0.66647156  0.12430365  1
  Fe  Fe161  1  0.00039045  0.33386274  0.25047358  1
  Fe  Fe162  1  0.49943150  0.50052116  -0.00029083  1
  Fe  Fe163  1  0.49952436  0.33338900  0.50092037  1
  Fe  Fe164  1  0.25010975  0.33272390  0.37523385  1
  Fe  Fe165  1  0.24981948  0.66739875  0.87443905  1
  Fe  Fe166  1  0.24942223  0.16663725  0.37423327  1
  Fe  Fe167  1  0.49965120  0.66654390  -0.00008992  1
  Fe  Fe168  1  0.24975503  0.16708368  0.62513738  1
  Fe  Fe169  1  0.24953668  0.33309515  0.87569968  1
  Fe  Fe170  1  0.00047901  0.66661231  0.74985995  1
  Fe  Fe171  1  0.74946943  0.16711542  0.87492471  1
  Fe  Fe172  1  0.75036718  0.00069532  0.62498307  1
  Fe  Fe173  1  0.74994380  0.16670480  0.62540659  1
  Fe  Fe174  1  0.25003957  0.83266678  0.62461476  1
  Fe  Fe175  1  0.75010020  0.66637878  0.12406660  1
  Fe  Fe176  1  0.25028664  0.00079334  0.12385760  1
  Fe  Fe177  1  0.50034139  0.83329148  0.24963523  1
  Fe  Fe178  1  0.74975907  0.16657711  0.37535826  1
  Fe  Fe179  1  0.00004356  0.66628171  0.24970512  1
  Fe  Fe180  1  0.00017322  0.49973745  0.25030952  1
  Fe  Fe181  1  -0.00004972  0.33336789  0.49905925  1
  Fe  Fe182  1  0.49911664  0.33415574  0.75065701  1
  Fe  Fe183  1  0.75017469  0.66678406  0.87515573  1
  Fe  Fe184  1  0.24936101  0.16737640  0.87578386  1
  Fe  Fe185  1  0.49954764  0.16703970  0.25068723  1
  Fe  Fe186  1  0.25034228  0.66634255  0.62507726  1
  Fe  Fe187  1  0.24969814  0.33335983  0.12517909  1
  Fe  Fe188  1  0.49952638  0.49954247  0.75068480  1
  Fe  Fe189  1  0.00009714  0.16668530  0.74952870  1
  Fe  Fe190  1  0.00051965  0.49960039  0.49927889  1
  Fe  Fe191  1  0.75046743  0.33336422  0.87541845  1
  P  P192  1  0.04262899  0.25019816  0.10403293  1
  P  P193  1  0.04101389  0.25038276  0.35172044  1
  P  P194  1  0.04145839  0.25019986  0.60088808  1
  P  P195  1  0.04195880  0.24852122  0.85199493  1
  P  P196  1  0.04314557  0.58296919  0.10405639  1
  P  P197  1  0.04173700  0.58279701  0.35153413  1
  P  P198  1  0.04218074  0.58192663  0.60221014  1
  P  P199  1  0.04238424  0.58454513  0.85209325  1
  P  P200  1  0.04214626  0.91674216  0.10109760  1
  P  P201  1  0.04386383  0.91711959  0.35325505  1
  P  P202  1  0.04280293  0.91639728  0.60381392  1
  P  P203  1  0.04246211  0.91549191  0.85298885  1
  P  P204  1  0.54261725  0.25022463  0.10377629  1
  P  P205  1  0.54157888  0.24931247  0.35345225  1
  P  P206  1  0.54126635  0.25165450  0.60343256  1
  P  P207  1  0.54174791  0.25207038  0.85228630  1
  P  P208  1  0.54145276  0.58336951  0.10134516  1
  P  P209  1  0.54280541  0.58288109  0.35402948  1
  P  P210  1  0.54198923  0.58105245  0.60323073  1
  P  P211  1  0.54140067  0.58203628  0.85335326  1
  P  P212  1  0.54340893  0.91671538  0.10352085  1
  P  P213  1  0.54266254  0.91472179  0.35257171  1
  P  P214  1  0.54214703  0.91550476  0.60265121  1
  P  P215  1  0.54250111  0.91795589  0.85209761  1
  P  P216  1  0.45761447  0.08507406  0.14793601  1
  P  P217  1  0.45679828  0.08343623  0.39656576  1
  P  P218  1  0.45729613  0.08183998  0.64755414  1
  P  P219  1  0.45695497  0.08329618  0.89620700  1
  P  P220  1  0.45661647  0.41756391  0.14687323  1
  P  P221  1  0.45814778  0.41636532  0.39929189  1
  P  P222  1  0.45751179  0.41665527  0.64863662  1
  P  P223  1  0.45760978  0.41820852  0.89719012  1
  P  P224  1  0.45830360  0.75087054  0.14707085  1
  P  P225  1  0.45769787  0.75124726  0.39739664  1
  P  P226  1  0.45687370  0.74958787  0.64647967  1
  P  P227  1  0.45802719  0.74874233  0.89755780  1
  P  P228  1  0.95823608  0.08405299  0.14718223  1
  P  P229  1  0.95825744  0.08544004  0.39713316  1
  P  P230  1  0.95800172  0.08518170  0.64711476  1
  P  P231  1  0.95798501  0.08196516  0.89721807  1
  P  P232  1  0.95871198  0.41677846  0.14885687  1
  P  P233  1  0.95899170  0.41673282  0.39739670  1
  P  P234  1  0.95684125  0.41637103  0.64532544  1
  P  P235  1  0.95733599  0.41655648  0.89660330  1
  P  P236  1  0.95847197  0.74914076  0.14718402  1
  P  P237  1  0.95713772  0.74924200  0.39631471  1
  P  P238  1  0.95848411  0.74971407  0.64881083  1
  P  P239  1  0.95891024  0.75118934  0.89686008  1
  P  P240  1  0.20883582  0.08368672  0.22609086  1
  P  P241  1  0.20768311  0.08499495  0.47732932  1
  P  P242  1  0.20770377  0.08497988  0.72760665  1
  P  P243  1  0.20785016  0.08491645  0.97793447  1
  P  P244  1  0.20842474  0.41506293  0.22828711  1
  P  P245  1  0.20872569  0.41659306  0.47636952  1
  P  P246  1  0.20678464  0.41670309  0.72925447  1
  P  P247  1  0.20845033  0.41635627  0.97703207  1
  P  P248  1  0.20778002  0.74825710  0.22654126  1
  P  P249  1  0.20723671  0.74971244  0.47866194  1
  P  P250  1  0.20902877  0.74951857  0.72697127  1
  P  P251  1  0.20889465  0.75023045  0.97618627  1
  P  P252  1  0.70732570  0.08365572  0.22844281  1
  P  P253  1  0.70788445  0.08474120  0.47844303  1
  P  P254  1  0.70834373  0.08371638  0.72688116  1
  P  P255  1  0.70731352  0.08538858  0.97727677  1
  P  P256  1  0.70791883  0.41505701  0.22772975  1
  P  P257  1  0.70759037  0.41758420  0.47786113  1
  P  P258  1  0.70753860  0.41637135  0.73001524  1
  P  P259  1  0.70861458  0.41671037  0.97705414  1
  P  P260  1  0.70800456  0.74776416  0.22706548  1
  P  P261  1  0.70713313  0.75007082  0.47844785  1
  P  P262  1  0.70756078  0.74999851  0.72960961  1
  P  P263  1  0.70912967  0.74998405  0.97660381  1
  P  P264  1  0.29121849  0.25079320  0.02307622  1
  P  P265  1  0.29112835  0.24978906  0.27284839  1
  P  P266  1  0.29150944  0.24887660  0.52213201  1
  P  P267  1  0.29081893  0.24979164  0.77374955  1
  P  P268  1  0.29163408  0.58476057  0.02138514  1
  P  P269  1  0.29239601  0.58169327  0.27218976  1
  P  P270  1  0.29190056  0.58359067  0.52260202  1
  P  P271  1  0.29093227  0.58373298  0.77358129  1
  P  P272  1  0.29229668  0.91835088  0.02144544  1
  P  P273  1  0.29252502  0.91705316  0.27060436  1
  P  P274  1  0.29201772  0.91564188  0.52237519  1
  P  P275  1  0.29173503  0.91523972  0.77156832  1
  P  P276  1  0.79262103  0.25236223  0.02192402  1
  P  P277  1  0.79249366  0.24874933  0.27288251  1
  P  P278  1  0.79159854  0.24869396  0.52265449  1
  P  P279  1  0.79128097  0.24961174  0.77331748  1
  P  P280  1  0.79230710  0.58454548  0.02166504  1
  P  P281  1  0.79212571  0.58123585  0.27206057  1
  P  P282  1  0.79296474  0.58267429  0.52195603  1
  P  P283  1  0.79175665  0.58292073  0.77430002  1
  P  P284  1  0.79279736  0.91663360  0.02086721  1
  P  P285  1  0.79363016  0.91621042  0.27168209  1
  P  P286  1  0.79285886  0.91841964  0.52293978  1
  P  P287  1  0.79223833  0.91629288  0.77228080  1
  O  O288  1  0.03728383  0.25025572  0.18391280  1
  O  O289  1  0.03609838  0.25072360  0.43165537  1
  O  O290  1  0.03659720  0.24950851  0.68086442  1
  O  O291  1  0.03715906  0.24877874  0.93196005  1
  O  O292  1  0.03772838  0.58299422  0.18395606  1
  O  O293  1  0.03653666  0.58226429  0.43150957  1
  O  O294  1  0.03694990  0.58266531  0.68212983  1
  O  O295  1  0.03774661  0.58454554  0.93212002  1
  O  O296  1  0.03761146  0.91682953  0.18115182  1
  O  O297  1  0.03866683  0.91727101  0.43322279  1
  O  O298  1  0.03738406  0.91589617  0.68378623  1
  O  O299  1  0.03704326  0.91570243  0.93289411  1
  O  O300  1  0.53740749  0.24949925  0.18376261  1
  O  O301  1  0.53619335  0.25007806  0.43340993  1
  O  O302  1  0.53587956  0.25182024  0.68335943  1
  O  O303  1  0.53703152  0.25187576  0.93228891  1
  O  O304  1  0.53701594  0.58380072  0.18139479  1
  O  O305  1  0.53760966  0.58225090  0.43396075  1
  O  O306  1  0.53647534  0.58092112  0.68316248  1
  O  O307  1  0.53605499  0.58275039  0.93326618  1
  O  O308  1  0.53823713  0.91616835  0.18347944  1
  O  O309  1  0.53720569  0.91445919  0.43252421  1
  O  O310  1  0.53666825  0.91662006  0.68260084  1
  O  O311  1  0.53771648  0.91783582  0.93211752  1
  O  O312  1  0.46275903  0.08493485  0.06793780  1
  O  O313  1  0.46228601  0.08413326  0.31665409  1
  O  O314  1  0.46223634  0.08202866  0.56757309  1
  O  O315  1  0.46217053  0.08265035  0.81621984  1
  O  O316  1  0.46167090  0.41813923  0.06691421  1
  O  O317  1  0.46300146  0.41624514  0.31930398  1
  O  O318  1  0.46281358  0.41641901  0.56870131  1
  O  O319  1  0.46270971  0.41779420  0.81727300  1
  O  O320  1  0.46377401  0.74982682  0.06712155  1
  O  O321  1  0.46330987  0.75140274  0.31741798  1
  O  O322  1  0.46222032  0.75000397  0.56656600  1
  O  O323  1  0.46243717  0.74860481  0.81755522  1
  O  O324  1  0.96346120  0.08291530  0.06722690  1
  O  O325  1  0.96349233  0.08534253  0.31717417  1
  O  O326  1  0.96327492  0.08548889  0.56717320  1
  O  O327  1  0.96304406  0.08252265  0.81728282  1
  O  O328  1  0.96326887  0.41650679  0.06883578  1
  O  O329  1  0.96423735  0.41680322  0.31748901  1
  O  O330  1  0.96230005  0.41643832  0.56540764  1
  O  O331  1  0.96186418  0.41661095  0.81658601  1
  O  O332  1  0.96389645  0.74994579  0.06721813  1
  O  O333  1  0.96264834  0.74880575  0.31639171  1
  O  O334  1  0.96304751  0.74945831  0.56874833  1
  O  O335  1  0.96407557  0.75093993  0.81694726  1
  O  O336  1  0.21359258  0.08437833  0.05774892  1
  O  O337  1  0.21357544  0.08410189  0.30608818  1
  O  O338  1  0.21284547  0.08497976  0.55729411  1
  O  O339  1  0.21294642  0.08510563  0.80754724  1
  O  O340  1  0.21354741  0.41591202  0.05699561  1
  O  O341  1  0.21398168  0.41547140  0.30812333  1
  O  O342  1  0.21289930  0.41624589  0.55643003  1
  O  O343  1  0.21183249  0.41674104  0.80913230  1
  O  O344  1  0.21348149  0.75016292  0.05612829  1
  O  O345  1  0.21262686  0.74840857  0.30651595  1
  O  O346  1  0.21276242  0.74970054  0.55856808  1
  O  O347  1  0.21425781  0.74989866  0.80688965  1
  O  O348  1  0.71250333  0.08505540  0.05720324  1
  O  O349  1  0.71251016  0.08386522  0.30841119  1
  O  O350  1  0.71342889  0.08429111  0.55833835  1
  O  O351  1  0.71311665  0.08402322  0.80686416  1
  O  O352  1  0.71367725  0.41622730  0.05704500  1
  O  O353  1  0.71302035  0.41578001  0.30769061  1
  O  O354  1  0.71245162  0.41727225  0.55783338  1
  O  O355  1  0.71334525  0.41626384  0.80985826  1
  O  O356  1  0.71404718  0.74907757  0.05657722  1
  O  O357  1  0.71293211  0.74794483  0.30703331  1
  O  O358  1  0.71219319  0.75021573  0.55844965  1
  O  O359  1  0.71291256  0.75033487  0.80954142  1
  O  O360  1  0.28641724  0.25059298  0.19294596  1
  O  O361  1  0.28638128  0.24903616  0.44225718  1
  O  O362  1  0.28598255  0.24979406  0.69377105  1
  O  O363  1  0.28600261  0.25023192  0.94320445  1
  O  O364  1  0.28732115  0.58219962  0.19226058  1
  O  O365  1  0.28673086  0.58249463  0.44267162  1
  O  O366  1  0.28614800  0.58379576  0.69360401  1
  O  O367  1  0.28592017  0.58474574  0.94157447  1
  O  O368  1  0.28715564  0.91772912  0.19064035  1
  O  O369  1  0.28713114  0.91598656  0.44237267  1
  O  O370  1  0.28631494  0.91468205  0.69167431  1
  O  O371  1  0.28698999  0.91782210  0.94148214  1
  O  O372  1  0.78763587  0.24977221  0.19295990  1
  O  O373  1  0.78660356  0.24865512  0.44272990  1
  O  O374  1  0.78583490  0.24899503  0.69338392  1
  O  O375  1  0.78727321  0.25228741  0.94204030  1
  O  O376  1  0.78703474  0.58164076  0.19212932  1
  O  O377  1  0.78782925  0.58207725  0.44199090  1
  O  O378  1  0.78710766  0.58329426  0.69431033  1
  O  O379  1  0.78716659  0.58414342  0.94177309  1
  O  O380  1  0.78853991  0.91619478  0.19167365  1
  O  O381  1  0.78803265  0.91824268  0.44292540  1
  O  O382  1  0.78695473  0.91694850  0.69233765  1
  O  O383  1  0.78720549  0.91629695  0.94093019  1
  O  O384  1  0.22722833  0.25117177  0.05953019  1
  O  O385  1  0.22699399  0.24938597  0.30898241  1
  O  O386  1  0.22726065  0.24846169  0.55813551  1
  O  O387  1  0.22664495  0.24951140  0.80972336  1
  O  O388  1  0.22767557  0.58457867  0.05798670  1
  O  O389  1  0.22805285  0.58084055  0.30779750  1
  O  O390  1  0.22762574  0.58487505  0.55837583  1
  O  O391  1  0.22677613  0.58438530  0.80948470  1
  O  O392  1  0.22810617  0.91839677  0.05737921  1
  O  O393  1  0.22827460  0.91707234  0.30618527  1
  O  O394  1  0.22774020  0.91578737  0.55787561  1
  O  O395  1  0.22767743  0.91560932  0.80773969  1
  O  O396  1  0.72838733  0.25249687  0.05795156  1
  O  O397  1  0.72813706  0.24828252  0.30851661  1
  O  O398  1  0.72729623  0.24825804  0.55831657  1
  O  O399  1  0.72723706  0.25002931  0.80966550  1
  O  O400  1  0.72806029  0.58449630  0.05759215  1
  O  O401  1  0.72788227  0.58061629  0.30790914  1
  O  O402  1  0.72855328  0.58312685  0.55721546  1
  O  O403  1  0.72754500  0.58217189  0.80995583  1
  O  O404  1  0.72859017  0.91619183  0.05655643  1
  O  O405  1  0.72917103  0.91655473  0.30671895  1
  O  O406  1  0.72842093  0.91867786  0.55821442  1
  O  O407  1  0.72803362  0.91599724  0.80811240  1
  O  O408  1  0.27297799  0.08308157  0.19013973  1
  O  O409  1  0.27194301  0.08541624  0.44151433  1
  O  O410  1  0.27189415  0.08498585  0.69165598  1
  O  O411  1  0.27184299  0.08534267  0.94135919  1
  O  O412  1  0.27239149  0.41494772  0.19174136  1
  O  O413  1  0.27306511  0.41693822  0.44103239  1
  O  O414  1  0.27101360  0.41660812  0.69353691  1
  O  O415  1  0.27242455  0.41631193  0.94083132  1
  O  O416  1  0.27214534  0.74861751  0.19110139  1
  O  O417  1  0.27140844  0.74941024  0.44276227  1
  O  O418  1  0.27297854  0.74895984  0.69035762  1
  O  O419  1  0.27308367  0.74963895  0.94032322  1
  O  O420  1  0.77165856  0.08376029  0.19301296  1
  O  O421  1  0.77205311  0.08546451  0.44217036  1
  O  O422  1  0.77256803  0.08382426  0.69097729  1
  O  O423  1  0.77167668  0.08551517  0.94181372  1
  O  O424  1  0.77225990  0.41524443  0.19211919  1
  O  O425  1  0.77196211  0.41741884  0.44237945  1
  O  O426  1  0.77157656  0.41586133  0.69380583  1
  O  O427  1  0.77280699  0.41696279  0.94109688  1
  O  O428  1  0.77243494  0.74740131  0.19168090  1
  O  O429  1  0.77159262  0.74948701  0.44343055  1
  O  O430  1  0.77179516  0.75024046  0.69388597  1
  O  O431  1  0.77323831  0.75076741  0.94063728  1
  O  O432  1  0.02251571  0.08527582  0.18284675  1
  O  O433  1  0.02253539  0.08549000  0.43278422  1
  O  O434  1  0.02226353  0.08497958  0.68282227  1
  O  O435  1  0.02227422  0.08140341  0.93282882  1
  O  O436  1  0.02298119  0.41748338  0.18432314  1
  O  O437  1  0.02298926  0.41635965  0.43392898  1
  O  O438  1  0.02104633  0.41635084  0.68104594  1
  O  O439  1  0.02192625  0.41637133  0.93120723  1
  O  O440  1  0.02266363  0.74857468  0.18298318  1
  O  O441  1  0.02140915  0.74922620  0.43175467  1
  O  O442  1  0.02281632  0.74961863  0.68430286  1
  O  O443  1  0.02306678  0.75155735  0.93287655  1
  O  O444  1  0.52186668  0.08538820  0.18356102  1
  O  O445  1  0.52101169  0.08334221  0.43211643  1
  O  O446  1  0.52165777  0.08223959  0.68288252  1
  O  O447  1  0.52137240  0.08374192  0.93132427  1
  O  O448  1  0.52104558  0.41689731  0.18186863  1
  O  O449  1  0.52234912  0.41657763  0.43509372  1
  O  O450  1  0.52161378  0.41669971  0.68493704  1
  O  O451  1  0.52180618  0.41881826  0.93310494  1
  O  O452  1  0.52250868  0.75152245  0.18300651  1
  O  O453  1  0.52180849  0.75094022  0.43350871  1
  O  O454  1  0.52112597  0.74942275  0.68192013  1
  O  O455  1  0.52249365  0.74864583  0.93244653  1
  O  O456  1  0.47821770  0.25070527  0.06863141  1
  O  O457  1  0.47735112  0.24872487  0.31756413  1
  O  O458  1  0.47704183  0.25168585  0.56766589  1
  O  O459  1  0.47730585  0.25173258  0.81718857  1
  O  O460  1  0.47711254  0.58296030  0.06595411  1
  O  O461  1  0.47843386  0.58370116  0.31879121  1
  O  O462  1  0.47778570  0.58105042  0.56736979  1
  O  O463  1  0.47724618  0.58141086  0.81730912  1
  O  O464  1  0.47902373  0.91643400  0.06832851  1
  O  O465  1  0.47847107  0.91493356  0.31665596  1
  O  O466  1  0.47789506  0.91443283  0.56680803  1
  O  O467  1  0.47803216  0.91832400  0.81696909  1
  O  O468  1  0.97843621  0.24969121  0.06828933  1
  O  O469  1  0.97701284  0.24989197  0.31553014  1
  O  O470  1  0.97727008  0.25086131  0.56502168  1
  O  O471  1  0.97755631  0.24815134  0.81667867  1
  O  O472  1  0.97891753  0.58306709  0.06837337  1
  O  O473  1  0.97764640  0.58300545  0.31533967  1
  O  O474  1  0.97791584  0.58083964  0.56653808  1
  O  O475  1  0.97795212  0.58505398  0.81696721  1
  O  O476  1  0.97788007  0.91652715  0.06553093  1
  O  O477  1  0.97945312  0.91712742  0.31825477  1
  O  O478  1  0.97858252  0.91715301  0.56828743  1
  O  O479  1  0.97838238  0.91527998  0.81679716  1
  O  O480  1  0.07346446  0.31378348  0.07547701  1
  O  O481  1  0.07146196  0.31436206  0.32315128  1
  O  O482  1  0.07258953  0.31385140  0.57292671  1
  O  O483  1  0.07272807  0.31219762  0.82385405  1
  O  O484  1  0.07449367  0.64619218  0.07543422  1
  O  O485  1  0.07249867  0.64667373  0.32368138  1
  O  O486  1  0.07280275  0.64569697  0.57401086  1
  O  O487  1  0.07326299  0.64797025  0.82345185  1
  O  O488  1  0.07258944  0.98059613  0.07280796  1
  O  O489  1  0.07493794  0.98056896  0.32497642  1
  O  O490  1  0.07421671  0.98002688  0.57630281  1
  O  O491  1  0.07370718  0.97905433  0.82494356  1
  O  O492  1  0.57362351  0.31401206  0.07602180  1
  O  O493  1  0.57265887  0.31285207  0.32523043  1
  O  O494  1  0.57230901  0.31491712  0.57464614  1
  O  O495  1  0.57215887  0.31577510  0.82389792  1
  O  O496  1  0.57177479  0.64722792  0.07269719  1
  O  O497  1  0.57416187  0.64634383  0.32608823  1
  O  O498  1  0.57308370  0.64484435  0.57569966  1
  O  O499  1  0.57244037  0.64553377  0.82484901  1
  O  O500  1  0.57398657  0.98068454  0.07568999  1
  O  O501  1  0.57374921  0.97871199  0.32538686  1
  O  O502  1  0.57290161  0.97910597  0.57409287  1
  O  O503  1  0.57338016  0.98132389  0.82341124  1
  O  O504  1  0.42677268  0.02118228  0.17541873  1
  O  O505  1  0.42588725  0.01946927  0.42398282  1
  O  O506  1  0.42691871  0.01809532  0.67596794  1
  O  O507  1  0.42582921  0.02016229  0.92515096  1
  O  O508  1  0.42544087  0.35404953  0.17503291  1
  O  O509  1  0.42756313  0.35247513  0.42737330  1
  O  O510  1  0.42648595  0.35309414  0.67720373  1
  O  O511  1  0.42671290  0.35453722  0.92543729  1
  O  O512  1  0.42723130  0.68742810  0.17559052  1
  O  O513  1  0.42647028  0.68740481  0.42477144  1
  O  O514  1  0.42586443  0.68583961  0.67421105  1
  O  O515  1  0.42734672  0.68532104  0.92651068  1
  O  O516  1  0.92754298  0.02042089  0.17567673  1
  O  O517  1  0.92727398  0.02174695  0.42518010  1
  O  O518  1  0.92690654  0.02146421  0.67478772  1
  O  O519  1  0.92721059  0.01832081  0.92558500  1
  O  O520  1  0.92869962  0.35274243  0.17754893  1
  O  O521  1  0.92769751  0.35323612  0.42563605  1
  O  O522  1  0.92566953  0.35289346  0.67373798  1
  O  O523  1  0.92635671  0.35308247  0.92483255  1
  O  O524  1  0.92762608  0.68542092  0.17528201  1
  O  O525  1  0.92568831  0.68608493  0.42477089  1
  O  O526  1  0.92782882  0.68586540  0.67700044  1
  O  O527  1  0.92783203  0.68759632  0.92505097  1
  O  O528  1  0.17756938  0.02020200  0.19801572  1
  O  O529  1  0.17705675  0.02097807  0.44957126  1
  O  O530  1  0.17682640  0.02101095  0.70011209  1
  O  O531  1  0.17672278  0.02145400  0.94948743  1
  O  O532  1  0.17735101  0.35161339  0.19983105  1
  O  O533  1  0.17841774  0.35267417  0.44782482  1
  O  O534  1  0.17557423  0.35336788  0.70055807  1
  O  O535  1  0.17707171  0.35311653  0.94852687  1
  O  O536  1  0.17753394  0.68442601  0.19809112  1
  O  O537  1  0.17578157  0.68634133  0.45039673  1
  O  O538  1  0.17776642  0.68601161  0.69880486  1
  O  O539  1  0.17713692  0.68717968  0.94791813  1
  O  O540  1  0.67648248  0.01993622  0.20033506  1
  O  O541  1  0.67704638  0.02101823  0.45017597  1
  O  O542  1  0.67799330  0.01972025  0.69861326  1
  O  O543  1  0.67622525  0.02182775  0.94932075  1
  O  O544  1  0.67759029  0.35117003  0.19944523  1
  O  O545  1  0.67639392  0.35393010  0.45018845  1
  O  O546  1  0.67589871  0.35326089  0.70148450  1
  O  O547  1  0.67758480  0.35338363  0.94842457  1
  O  O548  1  0.67712403  0.68431669  0.19845877  1
  O  O549  1  0.67568872  0.68676155  0.45051980  1
  O  O550  1  0.67656457  0.68628730  0.70157291  1
  O  O551  1  0.67866940  0.68616200  0.94786162  1
  O  O552  1  0.32260096  0.31423572  0.05111433  1
  O  O553  1  0.32171514  0.31332359  0.30225962  1
  O  O554  1  0.32230646  0.31261292  0.55053024  1
  O  O555  1  0.32103864  0.31386936  0.80220734  1
  O  O556  1  0.32241113  0.64828310  0.05021090  1
  O  O557  1  0.32320210  0.64532999  0.30046672  1
  O  O558  1  0.32326856  0.64701223  0.55047827  1
  O  O559  1  0.32273680  0.64679751  0.80176850  1
  O  O560  1  0.32296966  0.98205944  0.04969115  1
  O  O561  1  0.32398880  0.98007513  0.29936184  1
  O  O562  1  0.32323788  0.97924220  0.55021696  1
  O  O563  1  0.32300128  0.97907434  0.79871920  1
  O  O564  1  0.82347687  0.31569816  0.05104924  1
  O  O565  1  0.82347115  0.31222123  0.30145681  1
  O  O566  1  0.82214833  0.31276802  0.55036666  1
  O  O567  1  0.82252165  0.31326827  0.80094203  1
  O  O568  1  0.82305348  0.64808432  0.05037887  1
  O  O569  1  0.82314723  0.64479816  0.30010260  1
  O  O570  1  0.82401260  0.64634068  0.55001991  1
  O  O571  1  0.82178618  0.64709310  0.80265677  1
  O  O572  1  0.82341118  0.98060812  0.04861454  1
  O  O573  1  0.82492777  0.97956296  0.29980244  1
  O  O574  1  0.82356878  0.98194510  0.55155822  1
  O  O575  1  0.82353504  0.97981069  0.80017506  1
  O  O576  1  0.42671178  0.14850273  0.17633099  1
  O  O577  1  0.42529946  0.14631580  0.42546064  1
  O  O578  1  0.42600658  0.14542696  0.67517578  1
  O  O579  1  0.42599651  0.14708876  0.92396266  1
  O  O580  1  0.42574101  0.48088630  0.17560696  1
  O  O581  1  0.42726850  0.47996567  0.42743176  1
  O  O582  1  0.42665591  0.48026605  0.67707726  1
  O  O583  1  0.42653045  0.48149111  0.92589605  1
  O  O584  1  0.42734028  0.81453553  0.17487175  1
  O  O585  1  0.42680189  0.81455845  0.42604161  1
  O  O586  1  0.42564684  0.81269564  0.67520460  1
  O  O587  1  0.42723035  0.81258409  0.92519010  1
  O  O588  1  0.92700808  0.14755050  0.17512777  1
  O  O589  1  0.92739058  0.14884098  0.42574056  1
  O  O590  1  0.92730255  0.14855317  0.67606026  1
  O  O591  1  0.92700145  0.14541908  0.92555495  1
  O  O592  1  0.92734314  0.48011562  0.17684655  1
  O  O593  1  0.92833108  0.48046610  0.42570921  1
  O  O594  1  0.92554029  0.47953693  0.67403321  1
  O  O595  1  0.92681526  0.48017680  0.92513893  1
  O  O596  1  0.92733987  0.81264257  0.17518324  1
  O  O597  1  0.92630908  0.81296116  0.42439523  1
  O  O598  1  0.92790800  0.81349317  0.67689434  1
  O  O599  1  0.92791497  0.81449665  0.92573854  1
  O  O600  1  0.07418511  0.18708462  0.07558988  1
  O  O601  1  0.07238736  0.18714815  0.32322139  1
  O  O602  1  0.07198947  0.18663332  0.57200669  1
  O  O603  1  0.07264737  0.18493941  0.82357779  1
  O  O604  1  0.07423031  0.51953612  0.07550823  1
  O  O605  1  0.07270028  0.51926384  0.32321690  1
  O  O606  1  0.07341197  0.51859984  0.57380735  1
  O  O607  1  0.07296330  0.52069779  0.82430299  1
  O  O608  1  0.07298353  0.85301912  0.07303915  1
  O  O609  1  0.07477494  0.85360709  0.32504751  1
  O  O610  1  0.07366510  0.85298903  0.57530533  1
  O  O611  1  0.07343695  0.85214235  0.82418813  1
  O  O612  1  0.57378443  0.18722533  0.07474554  1
  O  O613  1  0.57240284  0.18569683  0.32529435  1
  O  O614  1  0.57220643  0.18780420  0.57587470  1
  O  O615  1  0.57290157  0.18856002  0.82430755  1
  O  O616  1  0.57232384  0.51971304  0.07333174  1
  O  O617  1  0.57348991  0.51950459  0.32507162  1
  O  O618  1  0.57293119  0.51769451  0.57468253  1
  O  O619  1  0.57253638  0.51867211  0.82494115  1
  O  O620  1  0.57493767  0.85378728  0.07467381  1
  O  O621  1  0.57356300  0.85152074  0.32368622  1
  O  O622  1  0.57327714  0.85192712  0.57487046  1
  O  O623  1  0.57304746  0.85394648  0.82451934  1
  O  O624  1  0.32176367  0.18710757  0.05199887  1
  O  O625  1  0.32218195  0.18621269  0.30090574  1
  O  O626  1  0.32264315  0.18573294  0.55109352  1
  O  O627  1  0.32217336  0.18656758  0.80196378  1
  O  O628  1  0.32303761  0.52129926  0.04918666  1
  O  O629  1  0.32337899  0.51828026  0.30071461  1
  O  O630  1  0.32233388  0.51996788  0.55136197  1
  O  O631  1  0.32071020  0.51950032  0.80209143  1
  O  O632  1  0.32361839  0.85491739  0.04934920  1
  O  O633  1  0.32325598  0.85314987  0.29820053  1
  O  O634  1  0.32245098  0.85198678  0.55083771  1
  O  O635  1  0.32254319  0.85197234  0.80068294  1
  O  O636  1  0.82367074  0.18869925  0.04983067  1
  O  O637  1  0.82313335  0.18515159  0.30116866  1
  O  O638  1  0.82286526  0.18575147  0.55162472  1
  O  O639  1  0.82192455  0.18594715  0.80178851  1
  O  O640  1  0.82354802  0.52112745  0.04992293  1
  O  O641  1  0.82289025  0.51768352  0.30059024  1
  O  O642  1  0.82395916  0.51947667  0.55069551  1
  O  O643  1  0.82322878  0.51960707  0.80207196  1
  O  O644  1  0.82451200  0.85365299  0.04912578  1
  O  O645  1  0.82427088  0.85253910  0.29984671  1
  O  O646  1  0.82374469  0.85469184  0.55067332  1
  O  O647  1  0.82297192  0.85268597  0.80061067  1
  O  O648  1  0.17857774  0.14760520  0.19760619  1
  O  O649  1  0.17649860  0.14803374  0.44840519  1
  O  O650  1  0.17674745  0.14817709  0.69879651  1
  O  O651  1  0.17668509  0.14838785  0.94983177  1
  O  O652  1  0.17719168  0.47842097  0.19989188  1
  O  O653  1  0.17787633  0.48018807  0.44833039  1
  O  O654  1  0.17571170  0.48005381  0.70061720  1
  O  O655  1  0.17803226  0.48052013  0.94930413  1
  O  O656  1  0.17648943  0.81172249  0.19873132  1
  O  O657  1  0.17618896  0.81305517  0.45005790  1
  O  O658  1  0.17848622  0.81327471  0.69841357  1
  O  O659  1  0.17912762  0.81452459  0.94771178  1
  O  O660  1  0.67603305  0.14685496  0.20013227  1
  O  O661  1  0.67662298  0.14800656  0.45000757  1
  O  O662  1  0.67717852  0.14711203  0.69863783  1
  O  O663  1  0.67666405  0.14902133  0.94903186  1
  O  O664  1  0.67639363  0.47814951  0.19921622  1
  O  O665  1  0.67725909  0.48112650  0.44911291  1
  O  O666  1  0.67661030  0.47995299  0.70190115  1
  O  O667  1  0.67791716  0.48070458  0.94952183  1
  O  O668  1  0.67736813  0.81156685  0.19915841  1
  O  O669  1  0.67672740  0.81383249  0.45019016  1
  O  O670  1  0.67604051  0.81305690  0.70103544  1
  O  O671  1  0.67783579  0.81355692  0.94899468  1
