# generated using pymatgen
data_Na2MnFe(PO4)2
_symmetry_space_group_name_H-M   'P 1'
_cell_length_a   22.34714108
_cell_length_b   20.09765607
_cell_length_c   19.44851453
_cell_angle_alpha   89.98325331
_cell_angle_beta   89.98065364
_cell_angle_gamma   90.02956554
_symmetry_Int_Tables_number   1
_chemical_formula_structural   Na2MnFe(PO4)2
_chemical_formula_sum   'Na96 Mn48 Fe48 P96 O384'
_cell_volume   8734.81508163
_cell_formula_units_Z   48
loop_
 _symmetry_equiv_pos_site_id
 _symmetry_equiv_pos_as_xyz
  1  'x, y, z'
loop_
 _atom_site_type_symbol
 _atom_site_label
 _atom_site_symmetry_multiplicity
 _atom_site_fract_x
 _atom_site_fract_y
 _atom_site_fract_z
 _atom_site_occupancy
  Na  Na0  1  0.14090588  0.25131959  0.24381264  1
  Na  Na1  1  0.14074643  0.25155522  0.49356143  1
  Na  Na2  1  0.14095707  0.25045702  0.74438841  1
  Na  Na3  1  0.14146693  0.25053358  0.99278030  1
  Na  Na4  1  0.14007777  0.58252316  0.24347235  1
  Na  Na5  1  0.14104291  0.58387084  0.49265035  1
  Na  Na6  1  0.14099404  0.58411059  0.74331252  1
  Na  Na7  1  0.14062898  0.58263195  0.99399323  1
  Na  Na8  1  0.14096529  0.91615661  0.24521328  1
  Na  Na9  1  0.14100974  0.91619198  0.49510043  1
  Na  Na10  1  0.14106907  0.91693609  0.74384406  1
  Na  Na11  1  0.14127217  0.91808902  0.99264977  1
  Na  Na12  1  0.63991485  0.24889022  0.24409005  1
  Na  Na13  1  0.63989985  0.24893360  0.49392801  1
  Na  Na14  1  0.64029149  0.24888430  0.74430047  1
  Na  Na15  1  0.64023760  0.24966498  0.99290092  1
  Na  Na16  1  0.63957727  0.58374422  0.24357119  1
  Na  Na17  1  0.63941311  0.58287204  0.49455588  1
  Na  Na18  1  0.63997434  0.58266444  0.74384745  1
  Na  Na19  1  0.64013417  0.58466738  0.99320983  1
  Na  Na20  1  0.63977122  0.91654416  0.24297879  1
  Na  Na21  1  0.63969732  0.91714866  0.49378173  1
  Na  Na22  1  0.63973544  0.91502428  0.74345224  1
  Na  Na23  1  0.64003686  0.91681316  0.99349551  1
  Na  Na24  1  0.36022312  0.08445439  0.00666508  1
  Na  Na25  1  0.36001497  0.08415995  0.25763418  1
  Na  Na26  1  0.35986719  0.08324831  0.50766416  1
  Na  Na27  1  0.35994119  0.08299993  0.75831682  1
  Na  Na28  1  0.35936566  0.41705035  0.00564922  1
  Na  Na29  1  0.35911153  0.41813065  0.25624214  1
  Na  Na30  1  0.35936244  0.41824420  0.50606234  1
  Na  Na31  1  0.35889434  0.41692882  0.75589556  1
  Na  Na32  1  0.36026815  0.75031709  0.00687626  1
  Na  Na33  1  0.36003201  0.74958163  0.25829764  1
  Na  Na34  1  0.35936577  0.75087323  0.50774460  1
  Na  Na35  1  0.35983016  0.75005004  0.75725016  1
  Na  Na36  1  0.86032845  0.08356561  0.00519591  1
  Na  Na37  1  0.86006013  0.08360065  0.25482833  1
  Na  Na38  1  0.85956195  0.08299656  0.50604625  1
  Na  Na39  1  0.85977126  0.08193139  0.75665806  1
  Na  Na40  1  0.85925168  0.41702069  0.00590501  1
  Na  Na41  1  0.85935557  0.41591384  0.25555598  1
  Na  Na42  1  0.85926422  0.41638365  0.50605691  1
  Na  Na43  1  0.85899479  0.41594726  0.75614829  1
  Na  Na44  1  0.85937606  0.75000233  0.00529759  1
  Na  Na45  1  0.85997344  0.74867433  0.25550327  1
  Na  Na46  1  0.85939112  0.74906344  0.50605884  1
  Na  Na47  1  0.85916826  0.74842958  0.75474865  1
  Na  Na48  1  0.11012672  0.08339569  0.11813010  1
  Na  Na49  1  0.10975105  0.08285572  0.37057201  1
  Na  Na50  1  0.11019339  0.08341044  0.61973573  1
  Na  Na51  1  0.11091752  0.08372997  0.86859003  1
  Na  Na52  1  0.11054068  0.41663068  0.11806778  1
  Na  Na53  1  0.10996757  0.41687831  0.36787306  1
  Na  Na54  1  0.10993971  0.41796155  0.61786933  1
  Na  Na55  1  0.11046179  0.41765906  0.86885738  1
  Na  Na56  1  0.10996962  0.74929416  0.11922422  1
  Na  Na57  1  0.11037402  0.74834651  0.36893457  1
  Na  Na58  1  0.11061790  0.75092459  0.61781844  1
  Na  Na59  1  0.10997827  0.75150613  0.86808990  1
  Na  Na60  1  0.60946342  0.08237613  0.11892431  1
  Na  Na61  1  0.60895016  0.08339699  0.36845042  1
  Na  Na62  1  0.60949980  0.08173365  0.61921675  1
  Na  Na63  1  0.60922519  0.08277788  0.86793655  1
  Na  Na64  1  0.60895067  0.41673746  0.11761517  1
  Na  Na65  1  0.60867737  0.41717664  0.36941857  1
  Na  Na66  1  0.60928975  0.41606658  0.61884465  1
  Na  Na67  1  0.61000372  0.41669722  0.86758817  1
  Na  Na68  1  0.60924952  0.75024711  0.11894328  1
  Na  Na69  1  0.60880341  0.75119601  0.36892519  1
  Na  Na70  1  0.60904003  0.74897081  0.61929775  1
  Na  Na71  1  0.60923661  0.75104920  0.86868894  1
  Na  Na72  1  0.39023613  0.24957456  0.13114095  1
  Na  Na73  1  0.39016091  0.25097611  0.38131684  1
  Na  Na74  1  0.39057705  0.24890863  0.63164956  1
  Na  Na75  1  0.39000498  0.24965606  0.88200346  1
  Na  Na76  1  0.39037941  0.58459475  0.13192049  1
  Na  Na77  1  0.38963133  0.58508626  0.38214949  1
  Na  Na78  1  0.38932421  0.58371085  0.63196042  1
  Na  Na79  1  0.38992657  0.58459168  0.88134289  1
  Na  Na80  1  0.39118598  0.91628149  0.13187089  1
  Na  Na81  1  0.39049506  0.91737814  0.38242593  1
  Na  Na82  1  0.39030023  0.91620472  0.63376346  1
  Na  Na83  1  0.39005600  0.91673608  0.88191296  1
  Na  Na84  1  0.89017788  0.24935835  0.12986355  1
  Na  Na85  1  0.89048782  0.24860040  0.38093543  1
  Na  Na86  1  0.89078393  0.24960735  0.63073460  1
  Na  Na87  1  0.89020061  0.24973348  0.88268158  1
  Na  Na88  1  0.89032386  0.58282270  0.13056145  1
  Na  Na89  1  0.89034972  0.58203142  0.38046729  1
  Na  Na90  1  0.88979219  0.58339187  0.63068262  1
  Na  Na91  1  0.88994306  0.58305698  0.88062506  1
  Na  Na92  1  0.89135156  0.91627456  0.12973881  1
  Na  Na93  1  0.89061224  0.91518113  0.38091609  1
  Na  Na94  1  0.89010505  0.91722146  0.63076722  1
  Na  Na95  1  0.89061717  0.91732817  0.88073443  1
  Mn  Mn96  1  0.00020070  -0.00068194  0.24947647  1
  Mn  Mn97  1  0.74972131  -0.00078862  0.87490980  1
  Mn  Mn98  1  0.25041647  0.33471505  0.62497455  1
  Mn  Mn99  1  0.00034612  0.83384816  -0.00076876  1
  Mn  Mn100  1  0.25076249  0.16677646  0.62548091  1
  Mn  Mn101  1  0.24967277  0.16784991  0.37573615  1
  Mn  Mn102  1  0.49980221  0.33293963  0.49984552  1
  Mn  Mn103  1  0.49940824  0.33284781  0.24973152  1
  Mn  Mn104  1  0.00037534  0.16626518  0.50043905  1
  Mn  Mn105  1  0.49902556  0.50065308  0.75010840  1
  Mn  Mn106  1  0.49907584  0.66741859  0.50066422  1
  Mn  Mn107  1  0.49998767  0.33221453  -0.00079600  1
  Mn  Mn108  1  0.00047365  0.16594524  0.25032362  1
  Mn  Mn109  1  0.75014599  0.33295571  0.62523916  1
  Mn  Mn110  1  0.74947489  0.66591775  0.37544242  1
  Mn  Mn111  1  0.74964244  0.83319788  0.37480459  1
  Mn  Mn112  1  0.00026948  0.33384879  0.00031488  1
  Mn  Mn113  1  0.49980553  -0.00042170  0.00062945  1
  Mn  Mn114  1  0.74905548  0.33223704  0.37522267  1
  Mn  Mn115  1  0.75054769  0.83294479  0.12430196  1
  Mn  Mn116  1  0.49984467  0.50126023  -0.00056181  1
  Mn  Mn117  1  0.75044656  0.16557034  0.62499472  1
  Mn  Mn118  1  0.00105597  0.83181083  0.25033844  1
  Mn  Mn119  1  0.49940416  0.33221463  0.74912224  1
  Mn  Mn120  1  0.74941154  0.33220966  0.12497236  1
  Mn  Mn121  1  0.24990997  0.16832095  0.12562941  1
  Mn  Mn122  1  0.25081085  0.00045671  0.12532240  1
  Mn  Mn123  1  0.49942814  -0.00027697  0.50032446  1
  Mn  Mn124  1  0.00000460  0.83292462  0.49950111  1
  Mn  Mn125  1  0.24996290  -0.00049652  0.37653432  1
  Mn  Mn126  1  0.74970758  0.66629849  0.87432468  1
  Mn  Mn127  1  0.00074524  0.33317633  0.24938178  1
  Mn  Mn128  1  0.24964471  0.66613263  0.12573706  1
  Mn  Mn129  1  0.24987919  0.66684449  0.87501390  1
  Mn  Mn130  1  0.75088705  0.00076585  0.12374354  1
  Mn  Mn131  1  0.75031847  0.00098197  0.37339408  1
  Mn  Mn132  1  -0.00011555  0.66594588  -0.00079519  1
  Mn  Mn133  1  0.49950447  0.50149594  0.24929697  1
  Mn  Mn134  1  0.00021007  0.50074111  0.74879043  1
  Mn  Mn135  1  0.25046073  0.83333736  0.12559711  1
  Mn  Mn136  1  0.74892321  0.50024318  0.12474359  1
  Mn  Mn137  1  0.74935851  0.49961568  0.37501237  1
  Mn  Mn138  1  0.74969586  0.83273442  0.62431351  1
  Mn  Mn139  1  0.00083651  0.66747761  0.74974904  1
  Mn  Mn140  1  -0.00014293  0.33389847  0.75069701  1
  Mn  Mn141  1  0.00044567  0.16648081  0.75015067  1
  Mn  Mn142  1  -0.00070659  0.83487734  0.74865905  1
  Mn  Mn143  1  -0.00020057  0.49990722  0.49916420  1
  Fe  Fe144  1  0.00006198  0.33334696  0.49962182  1
  Fe  Fe145  1  0.74885571  0.49932294  0.62566345  1
  Fe  Fe146  1  0.24994264  0.50058409  0.37489911  1
  Fe  Fe147  1  0.49997756  -0.00043564  0.75029041  1
  Fe  Fe148  1  0.49946941  0.83315603  0.75107441  1
  Fe  Fe149  1  0.50027936  0.16567416  0.00029439  1
  Fe  Fe150  1  0.49978263  0.83373690  0.50072719  1
  Fe  Fe151  1  0.74996313  0.66686976  0.12406685  1
  Fe  Fe152  1  0.25041220  0.83340574  0.62579861  1
  Fe  Fe153  1  0.74997905  0.16626815  0.37494258  1
  Fe  Fe154  1  0.00048097  0.00076005  0.75012263  1
  Fe  Fe155  1  0.24998098  0.66667760  0.37587195  1
  Fe  Fe156  1  0.50012887  0.83314398  0.00046321  1
  Fe  Fe157  1  -0.00046221  0.49938392  0.24980861  1
  Fe  Fe158  1  0.74976308  0.33290649  0.87482213  1
  Fe  Fe159  1  0.25042088  0.33493466  0.37446097  1
  Fe  Fe160  1  0.25077543  0.00009305  0.87535286  1
  Fe  Fe161  1  0.75001194  0.83274753  0.87411496  1
  Fe  Fe162  1  0.25086327  0.16714101  0.87512795  1
  Fe  Fe163  1  0.25018602  0.83332570  0.87496826  1
  Fe  Fe164  1  0.25053035  0.83321458  0.37654534  1
  Fe  Fe165  1  0.74971628  -0.00077071  0.62498953  1
  Fe  Fe166  1  0.25011798  0.66702623  0.62520157  1
  Fe  Fe167  1  0.25046259  0.50003040  0.12490218  1
  Fe  Fe168  1  0.49978301  0.83364796  0.25027501  1
  Fe  Fe169  1  0.75006341  0.49974557  0.87486035  1
  Fe  Fe170  1  0.49993537  0.16592731  0.75026830  1
  Fe  Fe171  1  -0.00008222  -0.00036404  0.49997552  1
  Fe  Fe172  1  0.25000154  0.33433111  0.87459729  1
  Fe  Fe173  1  0.25042992  0.50044732  0.87462891  1
  Fe  Fe174  1  0.49935603  0.50079320  0.49996218  1
  Fe  Fe175  1  0.49976123  0.16628029  0.25033811  1
  Fe  Fe176  1  0.74981454  0.16609482  0.87449235  1
  Fe  Fe177  1  0.00048560  0.50003234  0.00001916  1
  Fe  Fe178  1  0.74908471  0.66562566  0.62573912  1
  Fe  Fe179  1  0.50007055  0.66712942  0.75038211  1
  Fe  Fe180  1  0.74990750  0.16677323  0.12413147  1
  Fe  Fe181  1  0.00121225  0.00015151  -0.00001597  1
  Fe  Fe182  1  0.49957380  0.16596225  0.50045092  1
  Fe  Fe183  1  -0.00017678  0.66535834  0.24886090  1
  Fe  Fe184  1  0.24930822  0.50084605  0.62446016  1
  Fe  Fe185  1  0.00107222  0.16644697  -0.00021393  1
  Fe  Fe186  1  0.49987650  0.66791099  0.00066546  1
  Fe  Fe187  1  0.25060608  0.33458673  0.12416173  1
  Fe  Fe188  1  0.49959887  0.00000229  0.25058213  1
  Fe  Fe189  1  -0.00007035  0.66615093  0.49900505  1
  Fe  Fe190  1  0.50018660  0.66775719  0.25071793  1
  Fe  Fe191  1  0.25037658  -0.00009418  0.62649009  1
  P  P192  1  0.04296482  0.24896125  0.10206357  1
  P  P193  1  0.04320376  0.25001855  0.35365866  1
  P  P194  1  0.04272611  0.25150625  0.60249025  1
  P  P195  1  0.04275875  0.24983468  0.85395489  1
  P  P196  1  0.04229702  0.58191108  0.10296064  1
  P  P197  1  0.04123386  0.58287283  0.35123812  1
  P  P198  1  0.04271895  0.58464591  0.60140901  1
  P  P199  1  0.04327910  0.58321182  0.85306838  1
  P  P200  1  0.04363658  0.91728763  0.10210571  1
  P  P201  1  0.04298269  0.91623556  0.35369759  1
  P  P202  1  0.04211552  0.91831151  0.60257984  1
  P  P203  1  0.04254055  0.91862745  0.85228189  1
  P  P204  1  0.54205465  0.24779436  0.10266711  1
  P  P205  1  0.54159422  0.24854220  0.35284889  1
  P  P206  1  0.54194752  0.24770502  0.60280141  1
  P  P207  1  0.54191513  0.24807248  0.85252871  1
  P  P208  1  0.54212702  0.58568543  0.10268604  1
  P  P209  1  0.54157887  0.58512820  0.35302581  1
  P  P210  1  0.54111769  0.58282218  0.60305982  1
  P  P211  1  0.54178823  0.58565112  0.85295703  1
  P  P212  1  0.54217358  0.91484116  0.10321801  1
  P  P213  1  0.54117851  0.91678793  0.35196917  1
  P  P214  1  0.54148256  0.91518837  0.60359815  1
  P  P215  1  0.54099881  0.91647211  0.85221250  1
  P  P216  1  0.45846283  0.08312150  0.14876267  1
  P  P217  1  0.45735338  0.08452320  0.39755154  1
  P  P218  1  0.45832509  0.08297351  0.64884177  1
  P  P219  1  0.45817153  0.08395109  0.89738394  1
  P  P220  1  0.45714142  0.41682541  0.14647326  1
  P  P221  1  0.45758619  0.41846372  0.39756848  1
  P  P222  1  0.45688961  0.41684853  0.64615458  1
  P  P223  1  0.45727395  0.41683997  0.89655809  1
  P  P224  1  0.45820560  0.75023060  0.14859608  1
  P  P225  1  0.45765789  0.75252551  0.39774730  1
  P  P226  1  0.45824792  0.75024839  0.64913400  1
  P  P227  1  0.45856251  0.75063598  0.89827954  1
  P  P228  1  0.95808486  0.08325208  0.14551547  1
  P  P229  1  0.95755161  0.08161190  0.39774240  1
  P  P230  1  0.95794356  0.08215651  0.64731055  1
  P  P231  1  0.95950164  0.08288652  0.89818681  1
  P  P232  1  0.95795644  0.41768265  0.14691628  1
  P  P233  1  0.95754738  0.41520816  0.39678095  1
  P  P234  1  0.95708411  0.41648088  0.64607386  1
  P  P235  1  0.95772973  0.41821334  0.89771721  1
  P  P236  1  0.95793354  0.74844508  0.14704409  1
  P  P237  1  0.95781211  0.74760414  0.39659187  1
  P  P238  1  0.95733802  0.74994095  0.64560120  1
  P  P239  1  0.95713997  0.75046119  0.89616012  1
  P  P240  1  0.20762452  0.08388154  0.22859057  1
  P  P241  1  0.20768584  0.08320481  0.47963052  1
  P  P242  1  0.20890023  0.08246845  0.72893204  1
  P  P243  1  0.20972441  0.08409471  0.97659425  1
  P  P244  1  0.20885480  0.41713199  0.22675208  1
  P  P245  1  0.20848802  0.41780647  0.47638584  1
  P  P246  1  0.20776986  0.41873603  0.72774686  1
  P  P247  1  0.20931103  0.41740709  0.97679628  1
  P  P248  1  0.20779647  0.74975237  0.22967583  1
  P  P249  1  0.20913645  0.74995094  0.47805907  1
  P  P250  1  0.20896677  0.75032913  0.72704130  1
  P  P251  1  0.20784526  0.75115827  0.97743397  1
  P  P252  1  0.70795365  0.08485026  0.22684350  1
  P  P253  1  0.70737448  0.08383768  0.47732740  1
  P  P254  1  0.70796360  0.08145937  0.72771974  1
  P  P255  1  0.70759542  0.08462805  0.97710584  1
  P  P256  1  0.70611862  0.41592345  0.22776370  1
  P  P257  1  0.70654280  0.41639193  0.47879592  1
  P  P258  1  0.70748606  0.41691664  0.72848013  1
  P  P259  1  0.70797882  0.41663912  0.97617168  1
  P  P260  1  0.70760146  0.74862727  0.22696293  1
  P  P261  1  0.70673955  0.74946694  0.47875223  1
  P  P262  1  0.70743664  0.74857206  0.72762808  1
  P  P263  1  0.70763580  0.75096919  0.97700827  1
  P  P264  1  0.29223735  0.25190514  0.02165762  1
  P  P265  1  0.29216636  0.25263613  0.27234221  1
  P  P266  1  0.29300585  0.25110346  0.52189789  1
  P  P267  1  0.29162251  0.25067865  0.77366344  1
  P  P268  1  0.29235924  0.58211878  0.02243033  1
  P  P269  1  0.29101456  0.58338519  0.27365515  1
  P  P270  1  0.29117204  0.58411839  0.52285024  1
  P  P271  1  0.29202744  0.58277706  0.77179568  1
  P  P272  1  0.29308912  0.91682060  0.02135099  1
  P  P273  1  0.29261317  0.91540592  0.27389535  1
  P  P274  1  0.29177204  0.91663044  0.52468461  1
  P  P275  1  0.29142386  0.91657852  0.77337453  1
  P  P276  1  0.79180222  0.24877158  0.02098840  1
  P  P277  1  0.79205582  0.24810365  0.27209182  1
  P  P278  1  0.79276429  0.24924909  0.52159833  1
  P  P279  1  0.79183692  0.24938522  0.77354479  1
  P  P280  1  0.79188027  0.58426226  0.02184003  1
  P  P281  1  0.79227380  0.58319537  0.27129432  1
  P  P282  1  0.79059343  0.58266048  0.52398030  1
  P  P283  1  0.79177242  0.58134618  0.77171414  1
  P  P284  1  0.79309830  0.91643729  0.02058191  1
  P  P285  1  0.79308173  0.91641103  0.27110780  1
  P  P286  1  0.79196645  0.91787223  0.52203809  1
  P  P287  1  0.79201871  0.91487663  0.77169718  1
  O  O288  1  0.03821558  0.24917840  0.18210142  1
  O  O289  1  0.03782386  0.25062852  0.43360800  1
  O  O290  1  0.03739718  0.25127393  0.68250360  1
  O  O291  1  0.03769539  0.24918327  0.93391853  1
  O  O292  1  0.03653409  0.58201416  0.18283892  1
  O  O293  1  0.03613417  0.58335915  0.43122317  1
  O  O294  1  0.03800025  0.58447848  0.68139034  1
  O  O295  1  0.03820902  0.58250446  0.93304424  1
  O  O296  1  0.03843164  0.91667240  0.18208028  1
  O  O297  1  0.03737057  0.91663154  0.43362695  1
  O  O298  1  0.03660563  0.91867310  0.68252234  1
  O  O299  1  0.03755326  0.91834342  0.93225519  1
  O  O300  1  0.53656623  0.24800517  0.18260713  1
  O  O301  1  0.53620510  0.24854494  0.43278579  1
  O  O302  1  0.53637745  0.24766875  0.68274195  1
  O  O303  1  0.53688478  0.24797532  0.93249700  1
  O  O304  1  0.53686328  0.58567361  0.18265516  1
  O  O305  1  0.53613047  0.58423930  0.43298269  1
  O  O306  1  0.53615232  0.58339682  0.68300745  1
  O  O307  1  0.53654629  0.58598346  0.93290600  1
  O  O308  1  0.53702427  0.91472276  0.18301967  1
  O  O309  1  0.53633895  0.91703014  0.43195208  1
  O  O310  1  0.53610236  0.91534909  0.68344344  1
  O  O311  1  0.53662351  0.91658454  0.93217056  1
  O  O312  1  0.46331381  0.08282278  0.06878718  1
  O  O313  1  0.46251427  0.08433413  0.31769340  1
  O  O314  1  0.46291884  0.08285900  0.56884433  1
  O  O315  1  0.46346921  0.08379331  0.81752657  1
  O  O316  1  0.46252774  0.41686788  0.06654305  1
  O  O317  1  0.46274203  0.41833165  0.31759298  1
  O  O318  1  0.46236496  0.41728922  0.56620517  1
  O  O319  1  0.46204093  0.41675196  0.81654180  1
  O  O320  1  0.46336187  0.74988736  0.06868845  1
  O  O321  1  0.46312080  0.75246785  0.31794356  1
  O  O322  1  0.46287871  0.75077907  0.56919826  1
  O  O323  1  0.46374707  0.75059440  0.81840583  1
  O  O324  1  0.96383764  0.08347418  0.06562139  1
  O  O325  1  0.96283339  0.08199331  0.31778129  1
  O  O326  1  0.96307884  0.08212925  0.56737152  1
  O  O327  1  0.96429124  0.08271017  0.81815676  1
  O  O328  1  0.96327606  0.41791380  0.06698211  1
  O  O329  1  0.96286979  0.41592484  0.31682643  1
  O  O330  1  0.96214827  0.41574084  0.56608491  1
  O  O331  1  0.96263972  0.41790308  0.81773246  1
  O  O332  1  0.96286129  0.74900679  0.06705686  1
  O  O333  1  0.96331592  0.74728515  0.31664065  1
  O  O334  1  0.96241234  0.74928147  0.56561713  1
  O  O335  1  0.96224820  0.75075617  0.81618147  1
  O  O336  1  0.21419446  0.08401554  0.05661251  1
  O  O337  1  0.21257865  0.08402761  0.30857675  1
  O  O338  1  0.21327620  0.08258034  0.55955608  1
  O  O339  1  0.21459584  0.08278076  0.80879475  1
  O  O340  1  0.21451470  0.41686497  0.05666550  1
  O  O341  1  0.21389115  0.41713326  0.30663851  1
  O  O342  1  0.21327897  0.41831978  0.55632719  1
  O  O343  1  0.21323945  0.41857032  0.80758282  1
  O  O344  1  0.21288432  0.75076429  0.05740047  1
  O  O345  1  0.21306514  0.74976863  0.30959884  1
  O  O346  1  0.21422619  0.74934754  0.55796127  1
  O  O347  1  0.21371532  0.75079684  0.80701517  1
  O  O348  1  0.71291461  0.08480953  0.05701508  1
  O  O349  1  0.71308265  0.08486679  0.30680415  1
  O  O350  1  0.71250571  0.08272574  0.55728732  1
  O  O351  1  0.71325950  0.08216422  0.80763273  1
  O  O352  1  0.71268462  0.41632911  0.05618917  1
  O  O353  1  0.71101028  0.41580296  0.30775274  1
  O  O354  1  0.71178349  0.41678319  0.55877442  1
  O  O355  1  0.71295576  0.41684514  0.80837012  1
  O  O356  1  0.71314273  0.75026984  0.05689728  1
  O  O357  1  0.71239545  0.74896325  0.30697689  1
  O  O358  1  0.71183110  0.74895588  0.55873193  1
  O  O359  1  0.71292640  0.74935818  0.80752293  1
  O  O360  1  0.28670589  0.25268379  0.19237181  1
  O  O361  1  0.28786056  0.25146445  0.44196649  1
  O  O362  1  0.28700188  0.25073665  0.69367196  1
  O  O363  1  0.28688577  0.25130483  0.94178036  1
  O  O364  1  0.28665832  0.58317953  0.19367604  1
  O  O365  1  0.28605221  0.58440401  0.44294817  1
  O  O366  1  0.28647282  0.58334874  0.69193518  1
  O  O367  1  0.28717304  0.58235017  0.94247850  1
  O  O368  1  0.28765862  0.91584821  0.19393638  1
  O  O369  1  0.28686107  0.91579947  0.44477548  1
  O  O370  1  0.28641465  0.91717085  0.69349576  1
  O  O371  1  0.28773147  0.91661800  0.94143482  1
  O  O372  1  0.78688680  0.24811704  0.19208415  1
  O  O373  1  0.78747161  0.24897503  0.44168480  1
  O  O374  1  0.78718411  0.24948891  0.69353422  1
  O  O375  1  0.78631023  0.24912049  0.94110330  1
  O  O376  1  0.78730237  0.58386411  0.19133649  1
  O  O377  1  0.78568478  0.58274840  0.44398115  1
  O  O378  1  0.78602636  0.58147078  0.69187533  1
  O  O379  1  0.78674885  0.58363334  0.94189390  1
  O  O380  1  0.78827898  0.91635740  0.19109700  1
  O  O381  1  0.78699797  0.91785222  0.44206119  1
  O  O382  1  0.78649232  0.91577458  0.69177710  1
  O  O383  1  0.78768844  0.91575941  0.94063988  1
  O  O384  1  0.22813406  0.25238213  0.05791269  1
  O  O385  1  0.22803484  0.25280293  0.30845165  1
  O  O386  1  0.22871015  0.25068119  0.55728797  1
  O  O387  1  0.22746792  0.25018271  0.80936140  1
  O  O388  1  0.22811209  0.58166726  0.05824308  1
  O  O389  1  0.22682355  0.58344168  0.30934328  1
  O  O390  1  0.22712598  0.58424035  0.55926945  1
  O  O391  1  0.22799412  0.58235696  0.80816567  1
  O  O392  1  0.22886001  0.91705407  0.05707735  1
  O  O393  1  0.22831652  0.91472470  0.30952127  1
  O  O394  1  0.22759577  0.91723263  0.56055697  1
  O  O395  1  0.22746392  0.91611598  0.80978947  1
  O  O396  1  0.72768671  0.24821471  0.05726449  1
  O  O397  1  0.72774767  0.24760378  0.30785754  1
  O  O398  1  0.72847275  0.24915576  0.55701400  1
  O  O399  1  0.72749157  0.24913047  0.80899127  1
  O  O400  1  0.72758539  0.58507213  0.05755781  1
  O  O401  1  0.72779347  0.58289066  0.30633796  1
  O  O402  1  0.72637552  0.58269557  0.55979702  1
  O  O403  1  0.72770650  0.58121655  0.80804934  1
  O  O404  1  0.72884061  0.91669911  0.05605472  1
  O  O405  1  0.72852471  0.91675069  0.30586450  1
  O  O406  1  0.72762757  0.91766391  0.55753319  1
  O  O407  1  0.72778554  0.91460195  0.80764178  1
  O  O408  1  0.27207629  0.08441489  0.19356999  1
  O  O409  1  0.27185409  0.08374883  0.44393048  1
  O  O410  1  0.27296522  0.08222197  0.69260822  1
  O  O411  1  0.27390178  0.08428238  0.94093982  1
  O  O412  1  0.27295235  0.41723852  0.19040949  1
  O  O413  1  0.27268205  0.41750266  0.44044667  1
  O  O414  1  0.27187611  0.41957519  0.69147921  1
  O  O415  1  0.27321248  0.41777297  0.94016555  1
  O  O416  1  0.27202661  0.74951571  0.19391877  1
  O  O417  1  0.27312525  0.75052043  0.44165376  1
  O  O418  1  0.27313390  0.74969736  0.69120440  1
  O  O419  1  0.27217618  0.75152429  0.94193193  1
  O  O420  1  0.77225614  0.08517222  0.19110976  1
  O  O421  1  0.77175523  0.08468538  0.44173556  1
  O  O422  1  0.77218656  0.08080766  0.69188084  1
  O  O423  1  0.77185836  0.08424147  0.94137384  1
  O  O424  1  0.77059530  0.41625284  0.19282805  1
  O  O425  1  0.77085291  0.41603492  0.44334986  1
  O  O426  1  0.77156782  0.41756691  0.69220742  1
  O  O427  1  0.77220884  0.41668594  0.94041019  1
  O  O428  1  0.77201823  0.74807098  0.19162882  1
  O  O429  1  0.77114669  0.74974680  0.44357753  1
  O  O430  1  0.77153245  0.74811527  0.69154955  1
  O  O431  1  0.77183573  0.75131162  0.94104461  1
  O  O432  1  0.02223784  0.08301302  0.18142643  1
  O  O433  1  0.02186122  0.08153037  0.43332262  1
  O  O434  1  0.02229488  0.08210704  0.68287886  1
  O  O435  1  0.02370413  0.08276135  0.93405233  1
  O  O436  1  0.02222642  0.41805357  0.18259823  1
  O  O437  1  0.02181524  0.41510433  0.43258019  1
  O  O438  1  0.02154458  0.41661584  0.68110535  1
  O  O439  1  0.02216903  0.41838190  0.93295643  1
  O  O440  1  0.02228759  0.74789107  0.18243075  1
  O  O441  1  0.02204301  0.74802481  0.43243064  1
  O  O442  1  0.02172953  0.75091586  0.68074747  1
  O  O443  1  0.02156919  0.74998795  0.93113256  1
  O  O444  1  0.52258938  0.08348239  0.18469513  1
  O  O445  1  0.52154698  0.08437732  0.43357828  1
  O  O446  1  0.52256775  0.08319858  0.68447276  1
  O  O447  1  0.52227651  0.08383373  0.93359216  1
  O  O448  1  0.52140793  0.41698711  0.18180414  1
  O  O449  1  0.52177447  0.41813195  0.43327993  1
  O  O450  1  0.52108575  0.41660968  0.68178094  1
  O  O451  1  0.52169885  0.41678903  0.93148386  1
  O  O452  1  0.52229059  0.75024232  0.18496327  1
  O  O453  1  0.52174013  0.75210371  0.43398123  1
  O  O454  1  0.52246113  0.74983724  0.68490124  1
  O  O455  1  0.52257548  0.75038140  0.93474192  1
  O  O456  1  0.47788226  0.24778821  0.06671314  1
  O  O457  1  0.47740408  0.24846872  0.31696785  1
  O  O458  1  0.47778594  0.24795173  0.56685249  1
  O  O459  1  0.47759549  0.24798346  0.81698513  1
  O  O460  1  0.47784391  0.58556850  0.06706563  1
  O  O461  1  0.47738701  0.58590840  0.31713963  1
  O  O462  1  0.47688466  0.58275593  0.56736842  1
  O  O463  1  0.47750987  0.58576978  0.81730459  1
  O  O464  1  0.47803287  0.91491184  0.06711934  1
  O  O465  1  0.47702002  0.91643401  0.31613252  1
  O  O466  1  0.47734164  0.91516350  0.56744972  1
  O  O467  1  0.47681762  0.91653781  0.81655485  1
  O  O468  1  0.97859618  0.24897321  0.06688616  1
  O  O469  1  0.97892928  0.24985332  0.31816891  1
  O  O470  1  0.97847465  0.25144024  0.56678904  1
  O  O471  1  0.97838691  0.24972922  0.81874662  1
  O  O472  1  0.97822186  0.58142302  0.06655551  1
  O  O473  1  0.97713413  0.58247533  0.31513622  1
  O  O474  1  0.97823128  0.58452928  0.56634641  1
  O  O475  1  0.97886656  0.58381913  0.81798184  1
  O  O476  1  0.97925474  0.91814207  0.06668099  1
  O  O477  1  0.97880816  0.91566709  0.31799674  1
  O  O478  1  0.97794351  0.91779673  0.56665444  1
  O  O479  1  0.97817854  0.91906086  0.81676682  1
  O  O480  1  0.07406307  0.31266973  0.07437424  1
  O  O481  1  0.07450495  0.31310981  0.32481767  1
  O  O482  1  0.07343893  0.31503844  0.57403256  1
  O  O483  1  0.07349399  0.31373748  0.82624952  1
  O  O484  1  0.07329647  0.64567049  0.07503341  1
  O  O485  1  0.07219934  0.64631221  0.32269942  1
  O  O486  1  0.07324784  0.64824429  0.57283384  1
  O  O487  1  0.07448505  0.64691500  0.82538477  1
  O  O488  1  0.07475544  0.98071124  0.07390229  1
  O  O489  1  0.07422494  0.97949980  0.32532965  1
  O  O490  1  0.07291158  0.98169524  0.57386541  1
  O  O491  1  0.07372907  0.98187335  0.82379175  1
  O  O492  1  0.57315596  0.31155032  0.07480284  1
  O  O493  1  0.57249771  0.31245558  0.32516261  1
  O  O494  1  0.57312600  0.31147085  0.57526641  1
  O  O495  1  0.57269843  0.31197094  0.82470032  1
  O  O496  1  0.57296909  0.64901487  0.07393618  1
  O  O497  1  0.57250919  0.64883575  0.32504613  1
  O  O498  1  0.57235238  0.64625383  0.57493236  1
  O  O499  1  0.57284834  0.64881492  0.82397059  1
  O  O500  1  0.57329966  0.97852099  0.07520100  1
  O  O501  1  0.57133162  0.98088690  0.32336164  1
  O  O502  1  0.57262436  0.97870932  0.57525077  1
  O  O503  1  0.57152003  0.98024008  0.82343590  1
  O  O504  1  0.42827502  0.01905040  0.17738467  1
  O  O505  1  0.42615320  0.02097832  0.42588159  1
  O  O506  1  0.42814366  0.01895645  0.67752721  1
  O  O507  1  0.42688415  0.02049903  0.92558394  1
  O  O508  1  0.42623034  0.35321457  0.17448493  1
  O  O509  1  0.42621498  0.35492959  0.42511219  1
  O  O510  1  0.42585882  0.35307250  0.67391273  1
  O  O511  1  0.42631873  0.35329994  0.92462465  1
  O  O512  1  0.42732452  0.68668590  0.17744045  1
  O  O513  1  0.42610441  0.68907192  0.42569144  1
  O  O514  1  0.42740509  0.68641971  0.67705844  1
  O  O515  1  0.42725332  0.68726682  0.92675050  1
  O  O516  1  0.92662682  0.01984709  0.17354741  1
  O  O517  1  0.92681229  0.01796078  0.42588505  1
  O  O518  1  0.92689239  0.01904000  0.67623349  1
  O  O519  1  0.92828015  0.01955050  0.92655664  1
  O  O520  1  0.92721265  0.35357719  0.17432374  1
  O  O521  1  0.92688060  0.35157186  0.42512831  1
  O  O522  1  0.92573354  0.35353768  0.67521463  1
  O  O523  1  0.92686115  0.35446312  0.92564277  1
  O  O524  1  0.92702290  0.68486285  0.17516931  1
  O  O525  1  0.92702837  0.68421502  0.42545549  1
  O  O526  1  0.92657261  0.68660161  0.67449575  1
  O  O527  1  0.92579948  0.68706342  0.92406726  1
  O  O528  1  0.17713407  0.02005551  0.20053327  1
  O  O529  1  0.17664572  0.01981839  0.45119246  1
  O  O530  1  0.17780691  0.01908984  0.70039652  1
  O  O531  1  0.17934141  0.02019961  0.94820916  1
  O  O532  1  0.17791208  0.35367500  0.19803793  1
  O  O533  1  0.17778003  0.35403508  0.44830569  1
  O  O534  1  0.17722774  0.35467723  0.69982200  1
  O  O535  1  0.17864592  0.35371510  0.94791119  1
  O  O536  1  0.17651588  0.68645233  0.20105229  1
  O  O537  1  0.17858599  0.68631361  0.44895607  1
  O  O538  1  0.17765427  0.68687841  0.69902157  1
  O  O539  1  0.17704319  0.68733192  0.94965962  1
  O  O540  1  0.67735717  0.02077112  0.19917123  1
  O  O541  1  0.67638523  0.02047315  0.44859436  1
  O  O542  1  0.67706840  0.01783399  0.69957575  1
  O  O543  1  0.67630203  0.02083127  0.94975708  1
  O  O544  1  0.67539299  0.35232885  0.19943294  1
  O  O545  1  0.67538575  0.35280620  0.45092776  1
  O  O546  1  0.67669488  0.35301256  0.70060783  1
  O  O547  1  0.67726562  0.35293200  0.94783230  1
  O  O548  1  0.67673566  0.68528048  0.19833206  1
  O  O549  1  0.67551473  0.68625143  0.45028869  1
  O  O550  1  0.67664927  0.68475044  0.69981358  1
  O  O551  1  0.67637555  0.68758691  0.94888903  1
  O  O552  1  0.32337527  0.31527970  0.05006427  1
  O  O553  1  0.32328084  0.31594964  0.30078355  1
  O  O554  1  0.32396793  0.31450142  0.55038598  1
  O  O555  1  0.32193395  0.31471099  0.80171171  1
  O  O556  1  0.32289674  0.64610047  0.05040553  1
  O  O557  1  0.32153119  0.64713739  0.30234495  1
  O  O558  1  0.32241076  0.64746442  0.55150342  1
  O  O559  1  0.32295008  0.64641534  0.80020535  1
  O  O560  1  0.32431755  0.98028630  0.04969810  1
  O  O561  1  0.32314566  0.97935720  0.30177384  1
  O  O562  1  0.32298368  0.98023712  0.55246981  1
  O  O563  1  0.32208094  0.98022839  0.80226956  1
  O  O564  1  0.82265295  0.31253008  0.04921154  1
  O  O565  1  0.82256902  0.31222678  0.29969099  1
  O  O566  1  0.82368342  0.31282278  0.54980341  1
  O  O567  1  0.82221928  0.31324519  0.80192353  1
  O  O568  1  0.82280072  0.64785599  0.05000021  1
  O  O569  1  0.82340686  0.64623018  0.30039365  1
  O  O570  1  0.82137100  0.64645370  0.55199252  1
  O  O571  1  0.82303806  0.64502659  0.79937628  1
  O  O572  1  0.82401121  0.98027889  0.04813436  1
  O  O573  1  0.82429869  0.97986337  0.29898251  1
  O  O574  1  0.82240137  0.98141807  0.55086098  1
  O  O575  1  0.82338258  0.97811967  0.80005423  1
  O  O576  1  0.42700796  0.14642699  0.17672101  1
  O  O577  1  0.42656984  0.14787178  0.42649280  1
  O  O578  1  0.42705617  0.14629401  0.67705003  1
  O  O579  1  0.42745895  0.14738927  0.92626755  1
  O  O580  1  0.42594534  0.48025911  0.17446429  1
  O  O581  1  0.42721945  0.48229055  0.42592009  1
  O  O582  1  0.42555215  0.47995197  0.67463769  1
  O  O583  1  0.42639058  0.48043415  0.92450881  1
  O  O584  1  0.42725600  0.81384650  0.17674441  1
  O  O585  1  0.42710099  0.81589794  0.42700018  1
  O  O586  1  0.42757567  0.81369390  0.67810804  1
  O  O587  1  0.42805598  0.81441981  0.92686973  1
  O  O588  1  0.92700229  0.14658610  0.17419194  1
  O  O589  1  0.92661007  0.14524701  0.42560022  1
  O  O590  1  0.92723328  0.14609668  0.67514307  1
  O  O591  1  0.92913557  0.14695617  0.92623087  1
  O  O592  1  0.92663374  0.48063452  0.17581544  1
  O  O593  1  0.92627744  0.47869290  0.42479770  1
  O  O594  1  0.92645264  0.48043238  0.67375354  1
  O  O595  1  0.92702351  0.48164628  0.92621475  1
  O  O596  1  0.92724486  0.81216369  0.17516331  1
  O  O597  1  0.92651360  0.81125778  0.42407417  1
  O  O598  1  0.92593921  0.81347489  0.67321431  1
  O  O599  1  0.92651017  0.81406999  0.92441058  1
  O  O600  1  0.07360464  0.18546188  0.07347515  1
  O  O601  1  0.07415221  0.18623278  0.32606686  1
  O  O602  1  0.07386514  0.18772537  0.57521773  1
  O  O603  1  0.07415742  0.18687789  0.82510269  1
  O  O604  1  0.07350078  0.51867813  0.07433326  1
  O  O605  1  0.07198809  0.51891357  0.32359033  1
  O  O606  1  0.07368216  0.52104841  0.57340531  1
  O  O607  1  0.07415928  0.52004044  0.82405939  1
  O  O608  1  0.07415397  0.85345424  0.07405796  1
  O  O609  1  0.07415805  0.85256201  0.32609643  1
  O  O610  1  0.07339091  0.85455708  0.57535860  1
  O  O611  1  0.07307344  0.85476427  0.82408368  1
  O  O612  1  0.57288532  0.18440162  0.07409262  1
  O  O613  1  0.57259852  0.18532323  0.32413551  1
  O  O614  1  0.57277832  0.18429313  0.57431674  1
  O  O615  1  0.57293491  0.18488523  0.82372322  1
  O  O616  1  0.57317841  0.52193252  0.07492774  1
  O  O617  1  0.57266251  0.52175768  0.32460548  1
  O  O618  1  0.57158889  0.51910714  0.57454882  1
  O  O619  1  0.57257026  0.52170069  0.82548462  1
  O  O620  1  0.57300198  0.85164119  0.07392668  1
  O  O621  1  0.57265877  0.85362495  0.32379602  1
  O  O622  1  0.57237472  0.85181612  0.57482506  1
  O  O623  1  0.57191994  0.85297379  0.82384042  1
  O  O624  1  0.32322407  0.18837482  0.05016967  1
  O  O625  1  0.32301291  0.18878493  0.29998176  1
  O  O626  1  0.32417591  0.18765485  0.55011651  1
  O  O627  1  0.32280554  0.18716244  0.80163127  1
  O  O628  1  0.32358586  0.51902320  0.05108667  1
  O  O629  1  0.32205020  0.51994120  0.30211366  1
  O  O630  1  0.32176578  0.52025812  0.55102481  1
  O  O631  1  0.32328597  0.51954619  0.80025899  1
  O  O632  1  0.32417404  0.85350534  0.04999305  1
  O  O633  1  0.32357365  0.85208991  0.30238156  1
  O  O634  1  0.32220085  0.85294612  0.55364267  1
  O  O635  1  0.32260848  0.85295980  0.80130263  1
  O  O636  1  0.82306740  0.18557188  0.04953303  1
  O  O637  1  0.82330012  0.18504164  0.30086388  1
  O  O638  1  0.82414185  0.18608319  0.55006338  1
  O  O639  1  0.82277354  0.18564960  0.80130612  1
  O  O640  1  0.82259145  0.52059466  0.05003088  1
  O  O641  1  0.82307585  0.51943271  0.29931760  1
  O  O642  1  0.82135488  0.51887814  0.55178834  1
  O  O643  1  0.82284088  0.51815051  0.80067812  1
  O  O644  1  0.82455977  0.85342772  0.04914964  1
  O  O645  1  0.82366020  0.85279988  0.29958326  1
  O  O646  1  0.82320532  0.85422704  0.54949517  1
  O  O647  1  0.82261633  0.85098052  0.79945523  1
  O  O648  1  0.17629268  0.14712225  0.20030252  1
  O  O649  1  0.17632842  0.14670936  0.45198967  1
  O  O650  1  0.17768323  0.14606778  0.70099996  1
  O  O651  1  0.17868934  0.14765195  0.94858423  1
  O  O652  1  0.17809052  0.48079168  0.19817106  1
  O  O653  1  0.17772889  0.48134944  0.44772098  1
  O  O654  1  0.17633745  0.48168753  0.69876272  1
  O  O655  1  0.17806308  0.48089418  0.94877228  1
  O  O656  1  0.17671934  0.81312159  0.20115192  1
  O  O657  1  0.17788857  0.81354473  0.45026240  1
  O  O658  1  0.17852464  0.81410407  0.69835822  1
  O  O659  1  0.17692508  0.81450953  0.94891114  1
  O  O660  1  0.67681195  0.14792599  0.19807809  1
  O  O661  1  0.67660852  0.14750373  0.44925304  1
  O  O662  1  0.67702844  0.14503776  0.69964013  1
  O  O663  1  0.67683622  0.14782196  0.94797317  1
  O  O664  1  0.67491991  0.47926800  0.19957715  1
  O  O665  1  0.67544637  0.47968591  0.45031380  1
  O  O666  1  0.67608431  0.48002865  0.69972016  1
  O  O667  1  0.67725864  0.48052582  0.94851289  1
  O  O668  1  0.67696239  0.81250485  0.19914208  1
  O  O669  1  0.67595278  0.81319368  0.45061832  1
  O  O670  1  0.67618248  0.81188906  0.69950233  1
  O  O671  1  0.67691835  0.81464862  0.94879687  1
