# generated using pymatgen
data_Na2MnFe(PO4)2
_symmetry_space_group_name_H-M   'P 1'
_cell_length_a   22.34271956
_cell_length_b   20.09263191
_cell_length_c   19.44965310
_cell_angle_alpha   89.95852599
_cell_angle_beta   90.03249783
_cell_angle_gamma   90.01052720
_symmetry_Int_Tables_number   1
_chemical_formula_structural   Na2MnFe(PO4)2
_chemical_formula_sum   'Na96 Mn48 Fe48 P96 O384'
_cell_volume   8731.41300927
_cell_formula_units_Z   48
loop_
 _symmetry_equiv_pos_site_id
 _symmetry_equiv_pos_as_xyz
  1  'x, y, z'
loop_
 _atom_site_type_symbol
 _atom_site_label
 _atom_site_symmetry_multiplicity
 _atom_site_fract_x
 _atom_site_fract_y
 _atom_site_fract_z
 _atom_site_occupancy
  Na  Na0  1  0.14084839  0.25162226  0.24300938  1
  Na  Na1  1  0.14058962  0.25065418  0.49447749  1
  Na  Na2  1  0.14015365  0.25124744  0.74455373  1
  Na  Na3  1  0.14045411  0.25089016  0.99460416  1
  Na  Na4  1  0.13996074  0.58247567  0.24321002  1
  Na  Na5  1  0.13972250  0.58351552  0.49290789  1
  Na  Na6  1  0.14024163  0.58461998  0.74361904  1
  Na  Na7  1  0.14032327  0.58364551  0.99361402  1
  Na  Na8  1  0.14042498  0.91803975  0.24435095  1
  Na  Na9  1  0.13973930  0.91684302  0.49423603  1
  Na  Na10  1  0.13946478  0.91789942  0.74285390  1
  Na  Na11  1  0.14029643  0.91718500  0.99333356  1
  Na  Na12  1  0.64088461  0.25125423  0.24530193  1
  Na  Na13  1  0.63981267  0.24972920  0.49487895  1
  Na  Na14  1  0.63969647  0.25008586  0.74276371  1
  Na  Na15  1  0.64069744  0.24875286  0.99390314  1
  Na  Na16  1  0.64063689  0.58367617  0.24378626  1
  Na  Na17  1  0.64010044  0.58350864  0.49246266  1
  Na  Na18  1  0.64026878  0.58267413  0.74260690  1
  Na  Na19  1  0.64047902  0.58087776  0.99305497  1
  Na  Na20  1  0.64040715  0.91630440  0.24336984  1
  Na  Na21  1  0.64054965  0.91496273  0.49395346  1
  Na  Na22  1  0.63989263  0.91603566  0.74230595  1
  Na  Na23  1  0.64015483  0.91555984  0.99341563  1
  Na  Na24  1  0.35948628  0.08350054  0.00502407  1
  Na  Na25  1  0.35977780  0.08431100  0.25541112  1
  Na  Na26  1  0.35995204  0.08321632  0.50777828  1
  Na  Na27  1  0.35975617  0.08392934  0.75759644  1
  Na  Na28  1  0.35988169  0.41664056  0.00592950  1
  Na  Na29  1  0.36037374  0.41702882  0.25593157  1
  Na  Na30  1  0.36020187  0.41640651  0.50684348  1
  Na  Na31  1  0.36020874  0.41696615  0.75703023  1
  Na  Na32  1  0.35929956  0.75018129  0.00515831  1
  Na  Na33  1  0.36007186  0.74949687  0.25612380  1
  Na  Na34  1  0.36026764  0.74950516  0.50618676  1
  Na  Na35  1  0.35931695  0.75135063  0.75626538  1
  Na  Na36  1  0.85936293  0.08179129  0.00646607  1
  Na  Na37  1  0.85940427  0.08307719  0.25716050  1
  Na  Na38  1  0.85971032  0.08260426  0.50712452  1
  Na  Na39  1  0.85938585  0.08368407  0.75590985  1
  Na  Na40  1  0.85913485  0.41503722  0.00636783  1
  Na  Na41  1  0.86040338  0.41814199  0.25741674  1
  Na  Na42  1  0.86027937  0.41669492  0.50680982  1
  Na  Na43  1  0.85936880  0.41654717  0.75582334  1
  Na  Na44  1  0.85960270  0.74766206  0.00567662  1
  Na  Na45  1  0.85955167  0.75001963  0.25658636  1
  Na  Na46  1  0.86005591  0.74974008  0.50651407  1
  Na  Na47  1  0.86017541  0.74954003  0.75561273  1
  Na  Na48  1  0.10955490  0.08358489  0.11914953  1
  Na  Na49  1  0.10948267  0.08391608  0.36945571  1
  Na  Na50  1  0.10930589  0.08282544  0.61904203  1
  Na  Na51  1  0.10907232  0.08320283  0.86808667  1
  Na  Na52  1  0.11033210  0.41796606  0.11850142  1
  Na  Na53  1  0.10951043  0.41858176  0.36758032  1
  Na  Na54  1  0.10935225  0.41751626  0.61944660  1
  Na  Na55  1  0.11001429  0.41772358  0.86871914  1
  Na  Na56  1  0.10951291  0.74980625  0.11923340  1
  Na  Na57  1  0.10932364  0.75039312  0.36942006  1
  Na  Na58  1  0.10930677  0.75057702  0.61841832  1
  Na  Na59  1  0.10913845  0.75102635  0.86785221  1
  Na  Na60  1  0.60992326  0.08339523  0.11880564  1
  Na  Na61  1  0.60938263  0.08310638  0.36975683  1
  Na  Na62  1  0.60906036  0.08393498  0.61932476  1
  Na  Na63  1  0.60900495  0.08263145  0.86809438  1
  Na  Na64  1  0.61032634  0.41725144  0.11906931  1
  Na  Na65  1  0.61009220  0.41613884  0.36988890  1
  Na  Na66  1  0.60921536  0.41579022  0.61823765  1
  Na  Na67  1  0.60961990  0.41530136  0.86784913  1
  Na  Na68  1  0.60969475  0.75040228  0.11822210  1
  Na  Na69  1  0.61025391  0.74866015  0.36807395  1
  Na  Na70  1  0.60991000  0.74899411  0.61778469  1
  Na  Na71  1  0.60956265  0.74905118  0.86706807  1
  Na  Na72  1  0.39015383  0.25105172  0.13142431  1
  Na  Na73  1  0.39058243  0.25052481  0.38183947  1
  Na  Na74  1  0.39059948  0.24992357  0.63248979  1
  Na  Na75  1  0.39025443  0.25068703  0.88147829  1
  Na  Na76  1  0.39047132  0.58306710  0.13070855  1
  Na  Na77  1  0.39093587  0.58165668  0.38101725  1
  Na  Na78  1  0.39082664  0.58291282  0.63089778  1
  Na  Na79  1  0.39051827  0.58281280  0.88070083  1
  Na  Na80  1  0.39046535  0.91723130  0.12980783  1
  Na  Na81  1  0.39111499  0.91598992  0.38145515  1
  Na  Na82  1  0.39055205  0.91694708  0.63291196  1
  Na  Na83  1  0.38978133  0.91703150  0.88035147  1
  Na  Na84  1  0.89036036  0.24981368  0.13295038  1
  Na  Na85  1  0.89075966  0.25121249  0.38214031  1
  Na  Na86  1  0.89005588  0.24961911  0.63221225  1
  Na  Na87  1  0.88970783  0.25048337  0.88079199  1
  Na  Na88  1  0.89051815  0.58277870  0.13168080  1
  Na  Na89  1  0.89077343  0.58487433  0.38138865  1
  Na  Na90  1  0.89060965  0.58388692  0.63091319  1
  Na  Na91  1  0.88998652  0.58389242  0.88043317  1
  Na  Na92  1  0.89015674  0.91510714  0.13179823  1
  Na  Na93  1  0.89070596  0.91569651  0.38175915  1
  Na  Na94  1  0.89047111  0.91510801  0.63103433  1
  Na  Na95  1  0.89023117  0.91521907  0.88034363  1
  Mn  Mn96  1  0.50048030  0.83223342  0.50024009  1
  Mn  Mn97  1  0.25019441  0.83381222  0.12486257  1
  Mn  Mn98  1  0.74952821  0.16673895  0.87543824  1
  Mn  Mn99  1  0.74989247  0.83140585  0.87406192  1
  Mn  Mn100  1  -0.00024322  0.16638607  0.74990321  1
  Mn  Mn101  1  0.75044318  0.50041192  0.37577530  1
  Mn  Mn102  1  0.49944839  -0.00054124  0.25023738  1
  Mn  Mn103  1  0.74994770  -0.00101188  0.12551472  1
  Mn  Mn104  1  0.00042877  0.83332887  0.25048821  1
  Mn  Mn105  1  0.25087503  0.33430684  0.37420663  1
  Mn  Mn106  1  0.75006106  0.16745775  0.37612611  1
  Mn  Mn107  1  0.00015459  0.16634779  0.50063840  1
  Mn  Mn108  1  0.24910235  0.33350367  0.62564815  1
  Mn  Mn109  1  -0.00022795  -0.00058394  -0.00035506  1
  Mn  Mn110  1  0.74960637  -0.00083329  0.37565811  1
  Mn  Mn111  1  0.25085616  0.00114433  0.12441807  1
  Mn  Mn112  1  -0.00023011  0.33425465  0.00069716  1
  Mn  Mn113  1  0.00004473  0.16657780  0.25087606  1
  Mn  Mn114  1  0.50059917  0.66595866  0.24911813  1
  Mn  Mn115  1  0.00053260  0.33456580  0.50001661  1
  Mn  Mn116  1  0.74971915  0.66591769  0.12472022  1
  Mn  Mn117  1  0.50071782  0.33439163  0.00013460  1
  Mn  Mn118  1  0.75040760  0.33301623  0.12551425  1
  Mn  Mn119  1  0.74955315  -0.00096283  0.87493096  1
  Mn  Mn120  1  0.50055986  0.00019618  0.50080239  1
  Mn  Mn121  1  0.24986253  0.66723389  0.87474262  1
  Mn  Mn122  1  0.24967043  0.50016142  0.62525849  1
  Mn  Mn123  1  0.50022404  0.16682574  0.25042163  1
  Mn  Mn124  1  0.74989828  0.49890338  0.87396468  1
  Mn  Mn125  1  -0.00074201  0.16686421  0.00025654  1
  Mn  Mn126  1  0.49961186  0.83413937  -0.00138510  1
  Mn  Mn127  1  0.50003639  0.66576884  0.74921832  1
  Mn  Mn128  1  0.24967379  0.66583299  0.37546999  1
  Mn  Mn129  1  -0.00079828  0.50139542  -0.00038404  1
  Mn  Mn130  1  0.24963731  0.16777552  0.87570934  1
  Mn  Mn131  1  0.24993578  0.00052630  0.62550362  1
  Mn  Mn132  1  0.24964298  0.66580664  0.12502426  1
  Mn  Mn133  1  0.25044494  0.83343422  0.37502834  1
  Mn  Mn134  1  0.25037371  0.16739324  0.37503908  1
  Mn  Mn135  1  0.74991443  0.50003165  0.62472015  1
  Mn  Mn136  1  0.50086019  0.33430652  0.25100244  1
  Mn  Mn137  1  0.25049864  0.66758937  0.62484499  1
  Mn  Mn138  1  0.74987307  -0.00053278  0.62474823  1
  Mn  Mn139  1  -0.00021081  0.50063577  0.74979503  1
  Mn  Mn140  1  0.49993378  0.66608918  -0.00088525  1
  Mn  Mn141  1  0.00021520  0.83222299  0.00050181  1
  Mn  Mn142  1  0.50015293  0.16634527  -0.00004690  1
  Mn  Mn143  1  0.25055502  0.00055763  0.37552933  1
  Fe  Fe144  1  0.50048183  0.49978748  0.25071073  1
  Fe  Fe145  1  0.50013264  -0.00009571  -0.00072160  1
  Fe  Fe146  1  -0.00002553  -0.00014001  0.25046779  1
  Fe  Fe147  1  0.50021145  0.49951781  0.74921537  1
  Fe  Fe148  1  0.25043437  0.49969702  0.37451612  1
  Fe  Fe149  1  0.00016396  0.83337334  0.50041051  1
  Fe  Fe150  1  0.49985967  0.33306843  0.50082066  1
  Fe  Fe151  1  0.00041878  0.50124587  0.24997151  1
  Fe  Fe152  1  0.74981207  0.33244350  0.87510905  1
  Fe  Fe153  1  0.75023733  0.16631704  0.12553313  1
  Fe  Fe154  1  0.24963578  0.83426144  0.62551222  1
  Fe  Fe155  1  0.25002805  0.16719911  0.62601831  1
  Fe  Fe156  1  0.50024019  0.49991714  -0.00041312  1
  Fe  Fe157  1  0.00010215  0.66680283  -0.00011898  1
  Fe  Fe158  1  0.00027555  0.66693840  0.50016808  1
  Fe  Fe159  1  0.75024322  0.83216748  0.62451087  1
  Fe  Fe160  1  0.75031873  0.66722352  0.37448699  1
  Fe  Fe161  1  0.49984061  -0.00021644  0.74964047  1
  Fe  Fe162  1  -0.00061597  0.33369878  0.74991061  1
  Fe  Fe163  1  0.25009484  0.33394852  0.87556062  1
  Fe  Fe164  1  0.24982734  0.16743692  0.12450899  1
  Fe  Fe165  1  0.24905873  0.83419794  0.87503892  1
  Fe  Fe166  1  0.75023518  0.83264667  0.37491386  1
  Fe  Fe167  1  0.75032440  0.49945303  0.12498863  1
  Fe  Fe168  1  0.49996865  0.83289902  0.74947712  1
  Fe  Fe169  1  -0.00011884  0.66697893  0.25069721  1
  Fe  Fe170  1  0.49988892  0.16652755  0.75006484  1
  Fe  Fe171  1  0.24895813  0.00085968  0.87484214  1
  Fe  Fe172  1  0.00035995  0.33430382  0.25081989  1
  Fe  Fe173  1  0.50015507  0.49930604  0.50026840  1
  Fe  Fe174  1  0.74943671  0.66571090  0.87446854  1
  Fe  Fe175  1  0.74996714  0.66685649  0.62396878  1
  Fe  Fe176  1  0.49996974  0.66579879  0.49935925  1
  Fe  Fe177  1  -0.00050160  -0.00040496  0.50003512  1
  Fe  Fe178  1  0.25027948  0.50012682  0.87521048  1
  Fe  Fe179  1  0.74977134  0.83230169  0.12479879  1
  Fe  Fe180  1  0.74983457  0.33302874  0.62519142  1
  Fe  Fe181  1  0.25042456  0.33416866  0.12448253  1
  Fe  Fe182  1  -0.00023700  0.50097756  0.49955342  1
  Fe  Fe183  1  0.25066056  0.49958641  0.12405374  1
  Fe  Fe184  1  -0.00105854  -0.00074765  0.74934816  1
  Fe  Fe185  1  -0.00007857  0.83287624  0.74943941  1
  Fe  Fe186  1  0.49967995  0.33317012  0.74970388  1
  Fe  Fe187  1  0.50019096  0.83286346  0.24952399  1
  Fe  Fe188  1  0.74976201  0.16699960  0.62538432  1
  Fe  Fe189  1  0.00031157  0.66678576  0.74934567  1
  Fe  Fe190  1  0.75093146  0.33344297  0.37566117  1
  Fe  Fe191  1  0.49920679  0.16678960  0.50091987  1
  P  P192  1  0.04226278  0.25053165  0.10419010  1
  P  P193  1  0.04266780  0.25177312  0.35273752  1
  P  P194  1  0.04241816  0.25057653  0.60387224  1
  P  P195  1  0.04166292  0.25145365  0.85242409  1
  P  P196  1  0.04202507  0.58499441  0.10306055  1
  P  P197  1  0.04147088  0.58421506  0.35237761  1
  P  P198  1  0.04157634  0.58382576  0.60156668  1
  P  P199  1  0.04222226  0.58532412  0.85229056  1
  P  P200  1  0.04277708  0.91665368  0.10360032  1
  P  P201  1  0.04218847  0.91814649  0.35353658  1
  P  P202  1  0.04081965  0.91676729  0.60234051  1
  P  P203  1  0.04084003  0.91635152  0.85093840  1
  P  P204  1  0.54315350  0.25045498  0.10316032  1
  P  P205  1  0.54267731  0.25004916  0.35479240  1
  P  P206  1  0.54081182  0.24986419  0.60285750  1
  P  P207  1  0.54109396  0.24976990  0.85120710  1
  P  P208  1  0.54242845  0.58195924  0.10224317  1
  P  P209  1  0.54260241  0.58174083  0.35306545  1
  P  P210  1  0.54147571  0.58273881  0.60135796  1
  P  P211  1  0.54246081  0.58113489  0.85190108  1
  P  P212  1  0.54226532  0.91761213  0.10211734  1
  P  P213  1  0.54248447  0.91471469  0.35238411  1
  P  P214  1  0.54268177  0.91626994  0.60410749  1
  P  P215  1  0.54146348  0.91673756  0.85102828  1
  P  P216  1  0.45745047  0.08323715  0.14644644  1
  P  P217  1  0.45757054  0.08431138  0.39844099  1
  P  P218  1  0.45829307  0.08373320  0.64861807  1
  P  P219  1  0.45808121  0.08198608  0.89642309  1
  P  P220  1  0.45848545  0.41858337  0.14758340  1
  P  P221  1  0.45891445  0.41636772  0.39886852  1
  P  P222  1  0.45864666  0.41641501  0.64770266  1
  P  P223  1  0.45813167  0.41796243  0.89656184  1
  P  P224  1  0.45770420  0.75108186  0.14692474  1
  P  P225  1  0.45817290  0.74806216  0.39682647  1
  P  P226  1  0.45785397  0.75037331  0.64702126  1
  P  P227  1  0.45729669  0.74996141  0.89553967  1
  P  P228  1  0.95734057  0.08195347  0.14819952  1
  P  P229  1  0.95767861  0.08209890  0.39764698  1
  P  P230  1  0.95739109  0.08142047  0.64699605  1
  P  P231  1  0.95674148  0.08296699  0.89630545  1
  P  P232  1  0.95897399  0.41735501  0.14901714  1
  P  P233  1  0.95819800  0.41900032  0.39675124  1
  P  P234  1  0.95756378  0.41640498  0.64716828  1
  P  P235  1  0.95700089  0.41707532  0.89637705  1
  P  P236  1  0.95770140  0.74833035  0.14791630  1
  P  P237  1  0.95906382  0.74994891  0.39869102  1
  P  P238  1  0.95899353  0.74967167  0.64745605  1
  P  P239  1  0.95793866  0.74858088  0.89670307  1
  P  P240  1  0.20781238  0.08528536  0.22718989  1
  P  P241  1  0.20738802  0.08409812  0.47906143  1
  P  P242  1  0.20767666  0.08499498  0.72828066  1
  P  P243  1  0.20721709  0.08330752  0.97766226  1
  P  P244  1  0.20929116  0.41743724  0.22633481  1
  P  P245  1  0.20752133  0.41775533  0.47700804  1
  P  P246  1  0.20707832  0.41734579  0.72951702  1
  P  P247  1  0.20865692  0.41688251  0.97726038  1
  P  P248  1  0.20725981  0.74976682  0.22813188  1
  P  P249  1  0.20722035  0.75056490  0.47874001  1
  P  P250  1  0.20771529  0.75218315  0.72784690  1
  P  P251  1  0.20732310  0.75125667  0.97715422  1
  P  P252  1  0.70780876  0.08440939  0.22794779  1
  P  P253  1  0.70730964  0.08338984  0.47912818  1
  P  P254  1  0.70761757  0.08440632  0.72727550  1
  P  P255  1  0.70690838  0.08255167  0.97866380  1
  P  P256  1  0.70846441  0.41806385  0.22815726  1
  P  P257  1  0.70852045  0.41498732  0.47821027  1
  P  P258  1  0.70763583  0.41513002  0.72730166  1
  P  P259  1  0.70779387  0.41457300  0.97732483  1
  P  P260  1  0.70781188  0.75076716  0.22780399  1
  P  P261  1  0.70869054  0.74958043  0.47686001  1
  P  P262  1  0.70829442  0.74892363  0.72615713  1
  P  P263  1  0.70726216  0.74759612  0.97708698  1
  P  P264  1  0.29154860  0.25081177  0.02304593  1
  P  P265  1  0.29326846  0.25059518  0.27076770  1
  P  P266  1  0.29248937  0.24932093  0.52338200  1
  P  P267  1  0.29198936  0.25163780  0.77292614  1
  P  P268  1  0.29223847  0.58183825  0.02159183  1
  P  P269  1  0.29227403  0.58164966  0.27197908  1
  P  P270  1  0.29275420  0.58299728  0.52152147  1
  P  P271  1  0.29220201  0.58275224  0.77269675  1
  P  P272  1  0.29240580  0.91715477  0.02038883  1
  P  P273  1  0.29354705  0.91739739  0.27185127  1
  P  P274  1  0.29277632  0.91577283  0.52332630  1
  P  P275  1  0.29040316  0.91738760  0.77330507  1
  P  P276  1  0.79251806  0.24828287  0.02291433  1
  P  P277  1  0.79291436  0.25137170  0.27307239  1
  P  P278  1  0.79188433  0.25023817  0.52372830  1
  P  P279  1  0.79148095  0.25112309  0.77183632  1
  P  P280  1  0.79220264  0.58114871  0.02206487  1
  P  P281  1  0.79233066  0.58463563  0.27254286  1
  P  P282  1  0.79198976  0.58484518  0.52198464  1
  P  P283  1  0.79186730  0.58455718  0.77153309  1
  P  P284  1  0.79216137  0.91424550  0.02249530  1
  P  P285  1  0.79213940  0.91496552  0.27257082  1
  P  P286  1  0.79202522  0.91431371  0.52213288  1
  P  P287  1  0.79210896  0.91559165  0.77094527  1
  O  O288  1  0.03704898  0.25093185  0.18415054  1
  O  O289  1  0.03761361  0.25162181  0.43272387  1
  O  O290  1  0.03676145  0.25102143  0.68377450  1
  O  O291  1  0.03666892  0.25117099  0.93243629  1
  O  O292  1  0.03686724  0.58464315  0.18294294  1
  O  O293  1  0.03647644  0.58350031  0.43226908  1
  O  O294  1  0.03640124  0.58414098  0.68148676  1
  O  O295  1  0.03694027  0.58535095  0.93219703  1
  O  O296  1  0.03773541  0.91708374  0.18354645  1
  O  O297  1  0.03657634  0.91789451  0.43340323  1
  O  O298  1  0.03562677  0.91666683  0.68222289  1
  O  O299  1  0.03644067  0.91574953  0.93093876  1
  O  O300  1  0.53827536  0.25059461  0.18312702  1
  O  O301  1  0.53703981  0.24993893  0.43468904  1
  O  O302  1  0.53554892  0.24972313  0.68275066  1
  O  O303  1  0.53675062  0.25012174  0.93119479  1
  O  O304  1  0.53740829  0.58210153  0.18222683  1
  O  O305  1  0.53717133  0.58219210  0.43289215  1
  O  O306  1  0.53660858  0.58231691  0.68130980  1
  O  O307  1  0.53719770  0.58134687  0.93182339  1
  O  O308  1  0.53694893  0.91666443  0.18203992  1
  O  O309  1  0.53763501  0.91479933  0.43238117  1
  O  O310  1  0.53722239  0.91622867  0.68399746  1
  O  O311  1  0.53648027  0.91726950  0.93100672  1
  O  O312  1  0.46274241  0.08274250  0.06649168  1
  O  O313  1  0.46254527  0.08395341  0.31848206  1
  O  O314  1  0.46331835  0.08418848  0.56865624  1
  O  O315  1  0.46355249  0.08215047  0.81654223  1
  O  O316  1  0.46356577  0.41861887  0.06763325  1
  O  O317  1  0.46379036  0.41720619  0.31893603  1
  O  O318  1  0.46361673  0.41576186  0.56782752  1
  O  O319  1  0.46317131  0.41757942  0.81667417  1
  O  O320  1  0.46263270  0.75091650  0.06692972  1
  O  O321  1  0.46341672  0.74876235  0.31688523  1
  O  O322  1  0.46293192  0.74986062  0.56709304  1
  O  O323  1  0.46260795  0.75009112  0.81560622  1
  O  O324  1  0.96232883  0.08242592  0.06817606  1
  O  O325  1  0.96307272  0.08229242  0.31772570  1
  O  O326  1  0.96282476  0.08143879  0.56707573  1
  O  O327  1  0.96195692  0.08273679  0.81632715  1
  O  O328  1  0.96322442  0.41764562  0.06895424  1
  O  O329  1  0.96386291  0.41857676  0.31690234  1
  O  O330  1  0.96263909  0.41698434  0.56723266  1
  O  O331  1  0.96218952  0.41654158  0.81643130  1
  O  O332  1  0.96283505  0.74828749  0.06797213  1
  O  O333  1  0.96389220  0.74991666  0.31877939  1
  O  O334  1  0.96401362  0.74999740  0.56763486  1
  O  O335  1  0.96334403  0.74891786  0.81684701  1
  O  O336  1  0.21280818  0.08387614  0.05755439  1
  O  O337  1  0.21298395  0.08488794  0.30718090  1
  O  O338  1  0.21251436  0.08446102  0.55905997  1
  O  O339  1  0.21271136  0.08419087  0.80823814  1
  O  O340  1  0.21402366  0.41703358  0.05717694  1
  O  O341  1  0.21408056  0.41770910  0.30631160  1
  O  O342  1  0.21205088  0.41732961  0.55701754  1
  O  O343  1  0.21235829  0.41748836  0.80942914  1
  O  O344  1  0.21245841  0.75073358  0.05709997  1
  O  O345  1  0.21245761  0.74950622  0.30809272  1
  O  O346  1  0.21232860  0.75111312  0.55872984  1
  O  O347  1  0.21297085  0.75226281  0.80781495  1
  O  O348  1  0.71212098  0.08281178  0.05862367  1
  O  O349  1  0.71301946  0.08409850  0.30793326  1
  O  O350  1  0.71271703  0.08378821  0.55904462  1
  O  O351  1  0.71260741  0.08400803  0.80726208  1
  O  O352  1  0.71315660  0.41528792  0.05722469  1
  O  O353  1  0.71370217  0.41786010  0.30805510  1
  O  O354  1  0.71363556  0.41485081  0.55815168  1
  O  O355  1  0.71275868  0.41502560  0.80724512  1
  O  O356  1  0.71225233  0.74828243  0.05700955  1
  O  O357  1  0.71334182  0.75069925  0.30767999  1
  O  O358  1  0.71395196  0.74957764  0.55678630  1
  O  O359  1  0.71310401  0.74816374  0.80613810  1
  O  O360  1  0.28802559  0.25046484  0.19087643  1
  O  O361  1  0.28784421  0.24976931  0.44336690  1
  O  O362  1  0.28664280  0.25083953  0.69303383  1
  O  O363  1  0.28642793  0.25141531  0.94308636  1
  O  O364  1  0.28711454  0.58159108  0.19197165  1
  O  O365  1  0.28765753  0.58239641  0.44153460  1
  O  O366  1  0.28727992  0.58328735  0.69272308  1
  O  O367  1  0.28680548  0.58183371  0.94165352  1
  O  O368  1  0.28859041  0.91759144  0.19184507  1
  O  O369  1  0.28809961  0.91629076  0.44332290  1
  O  O370  1  0.28555793  0.91696689  0.69329228  1
  O  O371  1  0.28636095  0.91711684  0.94050636  1
  O  O372  1  0.78787057  0.25067700  0.19316880  1
  O  O373  1  0.78713640  0.25088338  0.44372757  1
  O  O374  1  0.78608539  0.25088969  0.69193405  1
  O  O375  1  0.78724694  0.24901513  0.94297431  1
  O  O376  1  0.78714448  0.58382807  0.19264157  1
  O  O377  1  0.78681930  0.58502650  0.44206897  1
  O  O378  1  0.78653081  0.58481537  0.69159600  1
  O  O379  1  0.78701321  0.58140019  0.94214732  1
  O  O380  1  0.78690708  0.91483083  0.19260087  1
  O  O381  1  0.78658693  0.91421573  0.44219817  1
  O  O382  1  0.78681723  0.91518492  0.69101150  1
  O  O383  1  0.78694781  0.91470474  0.94249535  1
  O  O384  1  0.22750431  0.25048922  0.05920071  1
  O  O385  1  0.22897977  0.25097410  0.30636188  1
  O  O386  1  0.22799558  0.24865912  0.55848853  1
  O  O387  1  0.22779550  0.25247324  0.80879876  1
  O  O388  1  0.22805001  0.58162321  0.05749104  1
  O  O389  1  0.22797791  0.58132217  0.30767417  1
  O  O390  1  0.22834640  0.58374955  0.55661047  1
  O  O391  1  0.22787145  0.58283109  0.80793908  1
  O  O392  1  0.22836471  0.91742328  0.05652268  1
  O  O393  1  0.22901980  0.91735923  0.30668319  1
  O  O394  1  0.22820012  0.91596619  0.55823264  1
  O  O395  1  0.22621844  0.91779148  0.80912674  1
  O  O396  1  0.72826464  0.24815323  0.05866988  1
  O  O397  1  0.72858565  0.25197665  0.30867092  1
  O  O398  1  0.72754772  0.24983394  0.55929898  1
  O  O399  1  0.72734931  0.25125047  0.80799256  1
  O  O400  1  0.72794118  0.58087574  0.05784452  1
  O  O401  1  0.72813520  0.58491592  0.30837178  1
  O  O402  1  0.72772462  0.58456881  0.55764125  1
  O  O403  1  0.72768292  0.58399310  0.80745175  1
  O  O404  1  0.72786632  0.91433033  0.05807939  1
  O  O405  1  0.72786842  0.91463850  0.30826692  1
  O  O406  1  0.72788461  0.91422945  0.55803691  1
  O  O407  1  0.72781944  0.91538275  0.80638739  1
  O  O408  1  0.27211586  0.08605513  0.19158514  1
  O  O409  1  0.27186001  0.08398040  0.44403093  1
  O  O410  1  0.27199124  0.08504005  0.69270587  1
  O  O411  1  0.27138505  0.08256821  0.94173937  1
  O  O412  1  0.27345260  0.41759095  0.19047074  1
  O  O413  1  0.27213723  0.41837862  0.44214266  1
  O  O414  1  0.27135054  0.41689839  0.69398934  1
  O  O415  1  0.27268481  0.41656957  0.94080413  1
  O  O416  1  0.27163021  0.74964822  0.19298028  1
  O  O417  1  0.27160764  0.74977742  0.44357371  1
  O  O418  1  0.27199450  0.75232119  0.69214623  1
  O  O419  1  0.27161373  0.75155470  0.94168678  1
  O  O420  1  0.77205760  0.08408840  0.19223081  1
  O  O421  1  0.77156461  0.08303024  0.44365676  1
  O  O422  1  0.77189490  0.08458586  0.69178531  1
  O  O423  1  0.77124082  0.08256393  0.94332009  1
  O  O424  1  0.77267579  0.41795982  0.19227735  1
  O  O425  1  0.77274301  0.41539368  0.44245525  1
  O  O426  1  0.77189927  0.41545461  0.69170848  1
  O  O427  1  0.77200018  0.41434219  0.94142345  1
  O  O428  1  0.77191691  0.75069383  0.19160060  1
  O  O429  1  0.77279879  0.74965080  0.44056085  1
  O  O430  1  0.77258695  0.74934693  0.69043254  1
  O  O431  1  0.77164842  0.74712226  0.94163479  1
  O  O432  1  0.02173536  0.08181632  0.18363675  1
  O  O433  1  0.02189761  0.08178929  0.43353633  1
  O  O434  1  0.02153931  0.08136383  0.68302995  1
  O  O435  1  0.02112886  0.08336860  0.93161419  1
  O  O436  1  0.02330549  0.41684961  0.18435301  1
  O  O437  1  0.02231163  0.41957512  0.43301967  1
  O  O438  1  0.02176805  0.41638913  0.68292579  1
  O  O439  1  0.02131207  0.41768645  0.93181006  1
  O  O440  1  0.02201784  0.74837817  0.18361534  1
  O  O441  1  0.02313836  0.74978922  0.43474163  1
  O  O442  1  0.02298575  0.74932613  0.68391908  1
  O  O443  1  0.02211508  0.74820431  0.93299824  1
  O  O444  1  0.52170876  0.08302201  0.18205065  1
  O  O445  1  0.52195207  0.08485831  0.43384129  1
  O  O446  1  0.52244670  0.08321180  0.68464609  1
  O  O447  1  0.52216387  0.08181152  0.93279178  1
  O  O448  1  0.52277526  0.41869952  0.18340433  1
  O  O449  1  0.52302998  0.41524522  0.43487772  1
  O  O450  1  0.52274032  0.41693320  0.68387912  1
  O  O451  1  0.52241095  0.41845459  0.93247421  1
  O  O452  1  0.52209082  0.75104398  0.18240732  1
  O  O453  1  0.52242479  0.74749153  0.43268008  1
  O  O454  1  0.52217567  0.75038423  0.68258763  1
  O  O455  1  0.52156567  0.74994029  0.93103042  1
  O  O456  1  0.47874012  0.25059058  0.06803451  1
  O  O457  1  0.47855214  0.25047388  0.31875846  1
  O  O458  1  0.47682138  0.25040867  0.56629879  1
  O  O459  1  0.47680074  0.24931331  0.81578735  1
  O  O460  1  0.47809329  0.58181615  0.06657433  1
  O  O461  1  0.47848872  0.58164581  0.31673970  1
  O  O462  1  0.47734627  0.58349326  0.56540850  1
  O  O463  1  0.47816764  0.58113349  0.81614194  1
  O  O464  1  0.47802040  0.91844424  0.06615656  1
  O  O465  1  0.47807103  0.91455376  0.31705378  1
  O  O466  1  0.47850774  0.91627170  0.56830773  1
  O  O467  1  0.47728080  0.91668448  0.81500007  1
  O  O468  1  0.97787992  0.25050595  0.06884241  1
  O  O469  1  0.97828869  0.25179143  0.31738449  1
  O  O470  1  0.97826631  0.25055050  0.56807647  1
  O  O471  1  0.97736539  0.25088048  0.81691424  1
  O  O472  1  0.97776891  0.58567136  0.06700375  1
  O  O473  1  0.97739601  0.58464025  0.31612253  1
  O  O474  1  0.97744653  0.58356459  0.56534349  1
  O  O475  1  0.97796815  0.58534105  0.81644395  1
  O  O476  1  0.97837122  0.91600276  0.06838886  1
  O  O477  1  0.97809783  0.91810497  0.31712264  1
  O  O478  1  0.97687139  0.91689744  0.56581689  1
  O  O479  1  0.97659123  0.91660447  0.81533569  1
  O  O480  1  0.07357769  0.31377542  0.07572545  1
  O  O481  1  0.07332495  0.31541691  0.32429320  1
  O  O482  1  0.07408110  0.31364191  0.57552709  1
  O  O483  1  0.07182728  0.31540346  0.82405277  1
  O  O484  1  0.07332526  0.64813127  0.07429096  1
  O  O485  1  0.07270327  0.64778325  0.32441051  1
  O  O486  1  0.07247255  0.64744435  0.57326617  1
  O  O487  1  0.07331762  0.64847102  0.82338958  1
  O  O488  1  0.07371193  0.97995977  0.07476053  1
  O  O489  1  0.07305944  0.98158002  0.32477144  1
  O  O490  1  0.07216044  0.98014172  0.57402260  1
  O  O491  1  0.07171962  0.98010157  0.82307783  1
  O  O492  1  0.57424325  0.31392623  0.07494274  1
  O  O493  1  0.57411717  0.31340402  0.32649924  1
  O  O494  1  0.57223124  0.31325160  0.57462677  1
  O  O495  1  0.57126706  0.31371222  0.82250568  1
  O  O496  1  0.57315897  0.64588910  0.07431626  1
  O  O497  1  0.57392568  0.64503933  0.32450868  1
  O  O498  1  0.57263962  0.64628723  0.57329447  1
  O  O499  1  0.57340022  0.64493002  0.82397572  1
  O  O500  1  0.57322198  0.98119685  0.07397183  1
  O  O501  1  0.57338934  0.97861411  0.32488546  1
  O  O502  1  0.57379080  0.97983595  0.57586396  1
  O  O503  1  0.57271815  0.98003286  0.82256554  1
  O  O504  1  0.42590725  0.02017834  0.17502833  1
  O  O505  1  0.42701139  0.02034116  0.42636468  1
  O  O506  1  0.42721679  0.01998394  0.67639847  1
  O  O507  1  0.42719140  0.01859080  0.92519981  1
  O  O508  1  0.42778592  0.35462563  0.17538652  1
  O  O509  1  0.42724328  0.35305060  0.42668983  1
  O  O510  1  0.42818764  0.35271039  0.67689272  1
  O  O511  1  0.42743463  0.35415689  0.92499855  1
  O  O512  1  0.42666961  0.68732187  0.17457685  1
  O  O513  1  0.42736946  0.68438674  0.42511121  1
  O  O514  1  0.42640377  0.68698522  0.67496079  1
  O  O515  1  0.42643767  0.68624810  0.92369333  1
  O  O516  1  0.92668097  0.01825774  0.17639328  1
  O  O517  1  0.92632106  0.01892435  0.42608866  1
  O  O518  1  0.92626519  0.01811131  0.67548591  1
  O  O519  1  0.92573330  0.01947224  0.92462545  1
  O  O520  1  0.92774222  0.35393907  0.17720219  1
  O  O521  1  0.92720573  0.35533000  0.42491994  1
  O  O522  1  0.92712029  0.35260104  0.67569364  1
  O  O523  1  0.92590998  0.35387810  0.92518846  1
  O  O524  1  0.92666419  0.68516021  0.17683163  1
  O  O525  1  0.92781516  0.68659772  0.42710501  1
  O  O526  1  0.92771058  0.68622023  0.67571651  1
  O  O527  1  0.92685151  0.68530200  0.92548534  1
  O  O528  1  0.17717491  0.02140335  0.19940922  1
  O  O529  1  0.17667776  0.02029870  0.45097353  1
  O  O530  1  0.17620372  0.02181426  0.69990266  1
  O  O531  1  0.17598768  0.01999842  0.94922912  1
  O  O532  1  0.17902956  0.35337022  0.19807773  1
  O  O533  1  0.17707781  0.35390418  0.44880343  1
  O  O534  1  0.17565773  0.35414258  0.70101050  1
  O  O535  1  0.17748039  0.35329871  0.94917963  1
  O  O536  1  0.17618170  0.68631381  0.19993481  1
  O  O537  1  0.17592627  0.68707796  0.45083925  1
  O  O538  1  0.17695878  0.68822101  0.70024900  1
  O  O539  1  0.17639170  0.68757565  0.94924756  1
  O  O540  1  0.67640682  0.02088352  0.20037206  1
  O  O541  1  0.67613873  0.01977255  0.45126124  1
  O  O542  1  0.67658176  0.02078396  0.69950009  1
  O  O543  1  0.67606147  0.01888995  0.95045425  1
  O  O544  1  0.67695239  0.35470396  0.20030925  1
  O  O545  1  0.67791476  0.35159020  0.44930185  1
  O  O546  1  0.67675918  0.35186422  0.69847621  1
  O  O547  1  0.67713424  0.35075129  0.94925763  1
  O  O548  1  0.67644320  0.68722512  0.19995772  1
  O  O549  1  0.67787042  0.68592254  0.44842621  1
  O  O550  1  0.67741943  0.68551833  0.69731968  1
  O  O551  1  0.67664215  0.68390424  0.94865310  1
  O  O552  1  0.32250161  0.31436660  0.05145157  1
  O  O553  1  0.32451437  0.31400037  0.29928512  1
  O  O554  1  0.32296992  0.31326314  0.55132652  1
  O  O555  1  0.32310929  0.31506230  0.80112832  1
  O  O556  1  0.32304648  0.64578911  0.04923459  1
  O  O557  1  0.32304719  0.64554393  0.29971309  1
  O  O558  1  0.32402140  0.64648582  0.54946944  1
  O  O559  1  0.32345404  0.64633171  0.80045924  1
  O  O560  1  0.32396000  0.98045618  0.04843407  1
  O  O561  1  0.32439021  0.98091061  0.30025161  1
  O  O562  1  0.32396418  0.97918050  0.55158901  1
  O  O563  1  0.32131301  0.98121670  0.80109324  1
  O  O564  1  0.82392860  0.31162925  0.05106018  1
  O  O565  1  0.82361913  0.31505642  0.30142053  1
  O  O566  1  0.82274285  0.31369862  0.55238596  1
  O  O567  1  0.82231969  0.31456073  0.80064922  1
  O  O568  1  0.82331178  0.64463799  0.05014702  1
  O  O569  1  0.82300752  0.64841240  0.30066037  1
  O  O570  1  0.82292692  0.64812226  0.55073627  1
  O  O571  1  0.82243206  0.64791697  0.80062433  1
  O  O572  1  0.82345961  0.97765850  0.05050908  1
  O  O573  1  0.82276555  0.97895551  0.30033581  1
  O  O574  1  0.82297752  0.97818653  0.54959204  1
  O  O575  1  0.82282084  0.97938618  0.79886286  1
  O  O576  1  0.42676297  0.14709191  0.17427722  1
  O  O577  1  0.42651019  0.14763569  0.42689109  1
  O  O578  1  0.42761063  0.14729856  0.67720537  1
  O  O579  1  0.42689982  0.14567441  0.92424374  1
  O  O580  1  0.42747182  0.48173520  0.17645254  1
  O  O581  1  0.42879257  0.48025757  0.42771850  1
  O  O582  1  0.42736350  0.47996258  0.67560863  1
  O  O583  1  0.42703816  0.48112936  0.92546264  1
  O  O584  1  0.42720325  0.81467378  0.17546895  1
  O  O585  1  0.42705781  0.81148436  0.42509501  1
  O  O586  1  0.42739303  0.81409191  0.67562173  1
  O  O587  1  0.42584213  0.81313808  0.92364867  1
  O  O588  1  0.92636293  0.14553045  0.17622185  1
  O  O589  1  0.92700271  0.14610279  0.42542136  1
  O  O590  1  0.92642891  0.14525624  0.67451534  1
  O  O591  1  0.92564446  0.14645574  0.92450501  1
  O  O592  1  0.92886078  0.48144894  0.17730441  1
  O  O593  1  0.92694366  0.48227815  0.42526852  1
  O  O594  1  0.92609257  0.47979404  0.67501670  1
  O  O595  1  0.92587570  0.48075984  0.92409061  1
  O  O596  1  0.92689857  0.81215970  0.17578597  1
  O  O597  1  0.92869624  0.81388673  0.42706763  1
  O  O598  1  0.92848935  0.81341155  0.67630703  1
  O  O599  1  0.92701060  0.81224153  0.92498064  1
  O  O600  1  0.07298744  0.18681775  0.07606752  1
  O  O601  1  0.07378984  0.18809410  0.32526198  1
  O  O602  1  0.07327234  0.18671956  0.57626408  1
  O  O603  1  0.07331092  0.18809669  0.82480227  1
  O  O604  1  0.07259557  0.52118062  0.07460500  1
  O  O605  1  0.07198704  0.52064366  0.32307630  1
  O  O606  1  0.07236873  0.52006164  0.57359299  1
  O  O607  1  0.07311627  0.52148762  0.82464744  1
  O  O608  1  0.07390275  0.85307832  0.07564049  1
  O  O609  1  0.07349553  0.85455153  0.32575552  1
  O  O610  1  0.07141891  0.85291730  0.57385671  1
  O  O611  1  0.07123870  0.85260019  0.82223742  1
  O  O612  1  0.57399196  0.18695884  0.07490164  1
  O  O613  1  0.57378879  0.18666753  0.32633963  1
  O  O614  1  0.57128659  0.18597710  0.57453816  1
  O  O615  1  0.57231885  0.18625739  0.82332079  1
  O  O616  1  0.57341242  0.51871185  0.07358430  1
  O  O617  1  0.57340751  0.51809898  0.32474969  1
  O  O618  1  0.57182501  0.51883379  0.57290062  1
  O  O619  1  0.57347008  0.51795251  0.82311784  1
  O  O620  1  0.57315037  0.85409624  0.07364965  1
  O  O621  1  0.57305162  0.85125012  0.32358718  1
  O  O622  1  0.57409458  0.85307475  0.57568057  1
  O  O623  1  0.57189748  0.85256206  0.82331161  1
  O  O624  1  0.32236346  0.18683316  0.05055093  1
  O  O625  1  0.32434851  0.18733878  0.29965508  1
  O  O626  1  0.32332850  0.18594722  0.55211868  1
  O  O627  1  0.32283684  0.18801908  0.80121384  1
  O  O628  1  0.32341249  0.51865239  0.05027554  1
  O  O629  1  0.32335444  0.51842544  0.30084061  1
  O  O630  1  0.32362431  0.51964279  0.55027432  1
  O  O631  1  0.32276263  0.51906141  0.80105511  1
  O  O632  1  0.32362912  0.85370143  0.04871738  1
  O  O633  1  0.32440690  0.85376116  0.29990693  1
  O  O634  1  0.32310210  0.85203188  0.55190117  1
  O  O635  1  0.32118779  0.85375862  0.80174920  1
  O  O636  1  0.82295904  0.18446375  0.05131829  1
  O  O637  1  0.82386093  0.18785118  0.30149847  1
  O  O638  1  0.82250364  0.18624272  0.55167443  1
  O  O639  1  0.82275161  0.18756800  0.79984287  1
  O  O640  1  0.82285622  0.51753628  0.05082068  1
  O  O641  1  0.82359499  0.52137198  0.30102716  1
  O  O642  1  0.82298289  0.52102339  0.54965560  1
  O  O643  1  0.82320395  0.52081771  0.79889531  1
  O  O644  1  0.82264998  0.85038089  0.05056681  1
  O  O645  1  0.82344365  0.85185213  0.30135465  1
  O  O646  1  0.82311183  0.85105242  0.55085877  1
  O  O647  1  0.82356512  0.85241108  0.79933832  1
  O  O648  1  0.17675077  0.14869924  0.19885460  1
  O  O649  1  0.17609211  0.14722239  0.45037706  1
  O  O650  1  0.17736686  0.14898727  0.70020510  1
  O  O651  1  0.17629557  0.14707172  0.94980339  1
  O  O652  1  0.17788445  0.48058240  0.19772003  1
  O  O653  1  0.17667976  0.48112851  0.44830950  1
  O  O654  1  0.17606541  0.48076962  0.70077506  1
  O  O655  1  0.17789341  0.48062141  0.94882096  1
  O  O656  1  0.17627999  0.81341582  0.20031202  1
  O  O657  1  0.17639199  0.81398302  0.45008894  1
  O  O658  1  0.17671229  0.81546233  0.69907157  1
  O  O659  1  0.17642976  0.81481966  0.94884134  1
  O  O660  1  0.67753256  0.14834233  0.19972949  1
  O  O661  1  0.67619134  0.14670609  0.45070505  1
  O  O662  1  0.67691824  0.14808617  0.69902094  1
  O  O663  1  0.67558777  0.14577465  0.95012202  1
  O  O664  1  0.67807772  0.48178122  0.19933319  1
  O  O665  1  0.67735380  0.47880120  0.45080502  1
  O  O666  1  0.67665158  0.47894512  0.69949229  1
  O  O667  1  0.67655274  0.47784266  0.94880705  1
  O  O668  1  0.67704682  0.81416611  0.19875296  1
  O  O669  1  0.67759997  0.81308587  0.44844984  1
  O  O670  1  0.67759344  0.81284317  0.69829407  1
  O  O671  1  0.67619934  0.81103899  0.94858106  1
