# generated using pymatgen
data_Na2MnFe(PO4)2
_symmetry_space_group_name_H-M   'P 1'
_cell_length_a   22.34455548
_cell_length_b   20.09933507
_cell_length_c   19.44782092
_cell_angle_alpha   90.01047551
_cell_angle_beta   90.00059516
_cell_angle_gamma   90.01455926
_symmetry_Int_Tables_number   1
_chemical_formula_structural   Na2MnFe(PO4)2
_chemical_formula_sum   'Na96 Mn48 Fe48 P96 O384'
_cell_volume   8734.22418250
_cell_formula_units_Z   48
loop_
 _symmetry_equiv_pos_site_id
 _symmetry_equiv_pos_as_xyz
  1  'x, y, z'
loop_
 _atom_site_type_symbol
 _atom_site_label
 _atom_site_symmetry_multiplicity
 _atom_site_fract_x
 _atom_site_fract_y
 _atom_site_fract_z
 _atom_site_occupancy
  Na  Na0  1  0.13981211  0.24919379  0.24215663  1
  Na  Na1  1  0.14002268  0.25078289  0.49277411  1
  Na  Na2  1  0.14038540  0.25139055  0.74432991  1
  Na  Na3  1  0.13982446  0.24979061  0.99369423  1
  Na  Na4  1  0.14035009  0.58229046  0.24191480  1
  Na  Na5  1  0.14054473  0.58160975  0.49449336  1
  Na  Na6  1  0.14003321  0.58244104  0.74402917  1
  Na  Na7  1  0.14036602  0.58282427  0.99123843  1
  Na  Na8  1  0.14070646  0.91741253  0.24223986  1
  Na  Na9  1  0.14043802  0.91707780  0.49424449  1
  Na  Na10  1  0.14012597  0.91626435  0.74540081  1
  Na  Na11  1  0.14023235  0.91576595  0.99248858  1
  Na  Na12  1  0.64007938  0.25018291  0.24375799  1
  Na  Na13  1  0.64031342  0.25019781  0.49529259  1
  Na  Na14  1  0.64028694  0.25038893  0.74227251  1
  Na  Na15  1  0.63985135  0.24937704  0.99398109  1
  Na  Na16  1  0.64022002  0.58360564  0.24432707  1
  Na  Na17  1  0.64043028  0.58324630  0.49439386  1
  Na  Na18  1  0.64112495  0.58473375  0.74357056  1
  Na  Na19  1  0.64083825  0.58424234  0.99479961  1
  Na  Na20  1  0.64070159  0.91648673  0.24348532  1
  Na  Na21  1  0.64054010  0.91632221  0.49489759  1
  Na  Na22  1  0.64035271  0.91684310  0.74343023  1
  Na  Na23  1  0.64003198  0.91601484  0.99251919  1
  Na  Na24  1  0.35946295  0.08303060  0.00803439  1
  Na  Na25  1  0.35950252  0.08423506  0.25556061  1
  Na  Na26  1  0.35925363  0.08483711  0.50614147  1
  Na  Na27  1  0.35946153  0.08440974  0.75771394  1
  Na  Na28  1  0.35950736  0.41574189  0.00555758  1
  Na  Na29  1  0.35935430  0.41522324  0.25639185  1
  Na  Na30  1  0.35935096  0.41569503  0.50625752  1
  Na  Na31  1  0.35956165  0.41701298  0.75604075  1
  Na  Na32  1  0.35947288  0.75115205  0.00572579  1
  Na  Na33  1  0.35913420  0.75046868  0.25514216  1
  Na  Na34  1  0.35951664  0.74908919  0.50698058  1
  Na  Na35  1  0.35935844  0.75084536  0.75811195  1
  Na  Na36  1  0.86000328  0.08348222  0.00679069  1
  Na  Na37  1  0.86001061  0.08442271  0.25500441  1
  Na  Na38  1  0.85922540  0.08296734  0.50715897  1
  Na  Na39  1  0.85945412  0.08258632  0.75605379  1
  Na  Na40  1  0.86010360  0.41707248  0.00758516  1
  Na  Na41  1  0.86040086  0.41794706  0.25608990  1
  Na  Na42  1  0.85995544  0.41590697  0.50707577  1
  Na  Na43  1  0.85991874  0.41773775  0.75656909  1
  Na  Na44  1  0.86035703  0.74896325  0.00614788  1
  Na  Na45  1  0.86000888  0.74915913  0.25458803  1
  Na  Na46  1  0.85967570  0.74929227  0.50674845  1
  Na  Na47  1  0.86012599  0.75012463  0.75756641  1
  Na  Na48  1  0.10953667  0.08396647  0.11678641  1
  Na  Na49  1  0.10952495  0.08455643  0.36753431  1
  Na  Na50  1  0.10942402  0.08394177  0.61898166  1
  Na  Na51  1  0.10985161  0.08227970  0.87002982  1
  Na  Na52  1  0.10956245  0.41601890  0.11749590  1
  Na  Na53  1  0.10934892  0.41463836  0.36776050  1
  Na  Na54  1  0.11039876  0.41701189  0.61852560  1
  Na  Na55  1  0.11001120  0.41713209  0.86843510  1
  Na  Na56  1  0.10957359  0.74994092  0.11607784  1
  Na  Na57  1  0.10968237  0.74901332  0.36838867  1
  Na  Na58  1  0.10982418  0.74961154  0.62078091  1
  Na  Na59  1  0.10971794  0.74911945  0.86794410  1
  Na  Na60  1  0.60919005  0.08333644  0.11819234  1
  Na  Na61  1  0.60980597  0.08263786  0.37002978  1
  Na  Na62  1  0.60961159  0.08480983  0.61892320  1
  Na  Na63  1  0.60911499  0.08376104  0.86869445  1
  Na  Na64  1  0.60941078  0.41681531  0.11941620  1
  Na  Na65  1  0.60946244  0.41567579  0.36993733  1
  Na  Na66  1  0.61008934  0.41749609  0.61850890  1
  Na  Na67  1  0.60993504  0.41619995  0.86847921  1
  Na  Na68  1  0.60981486  0.75021663  0.11828839  1
  Na  Na69  1  0.60960327  0.74804539  0.36964643  1
  Na  Na70  1  0.60963248  0.75206199  0.61909511  1
  Na  Na71  1  0.61035457  0.75115614  0.86856074  1
  Na  Na72  1  0.38961399  0.25011308  0.13208600  1
  Na  Na73  1  0.38961673  0.24857727  0.38099174  1
  Na  Na74  1  0.38997438  0.25128278  0.63117408  1
  Na  Na75  1  0.39035757  0.24983427  0.88119208  1
  Na  Na76  1  0.39007934  0.58346500  0.13005447  1
  Na  Na77  1  0.39032281  0.58157244  0.38105313  1
  Na  Na78  1  0.39026882  0.58394126  0.63226697  1
  Na  Na79  1  0.39029319  0.58423444  0.88125023  1
  Na  Na80  1  0.38979645  0.91781769  0.13063981  1
  Na  Na81  1  0.39033012  0.91610392  0.38047556  1
  Na  Na82  1  0.39043128  0.91868804  0.63213062  1
  Na  Na83  1  0.39025635  0.91790396  0.88320295  1
  Na  Na84  1  0.89067353  0.25036121  0.13128959  1
  Na  Na85  1  0.89024571  0.24982551  0.38032060  1
  Na  Na86  1  0.89016928  0.25133522  0.63176135  1
  Na  Na87  1  0.89061975  0.25004089  0.88189159  1
  Na  Na88  1  0.89055607  0.58259986  0.13088070  1
  Na  Na89  1  0.89048436  0.58196000  0.38029941  1
  Na  Na90  1  0.89086190  0.58363165  0.63255843  1
  Na  Na91  1  0.89081708  0.58339956  0.88237853  1
  Na  Na92  1  0.89082629  0.91677544  0.12970655  1
  Na  Na93  1  0.89061251  0.91638584  0.38106057  1
  Na  Na94  1  0.88990066  0.91540755  0.63260152  1
  Na  Na95  1  0.89059191  0.91523139  0.88199399  1
  Mn  Mn96  1  -0.00000974  -0.00009642  0.49988043  1
  Mn  Mn97  1  0.74962732  0.50083911  0.87572912  1
  Mn  Mn98  1  0.24972923  0.00075535  0.62526595  1
  Mn  Mn99  1  0.24980809  0.83365206  0.37472042  1
  Mn  Mn100  1  0.24982756  0.49849411  0.37387996  1
  Mn  Mn101  1  0.75028898  0.83235510  0.12451567  1
  Mn  Mn102  1  0.75023431  0.33352007  0.87534835  1
  Mn  Mn103  1  0.74993221  0.33368585  0.12535078  1
  Mn  Mn104  1  -0.00001289  0.83258956  0.50040430  1
  Mn  Mn105  1  0.25042717  0.00142366  0.37412506  1
  Mn  Mn106  1  0.24950730  0.66546166  0.62568348  1
  Mn  Mn107  1  -0.00067523  0.16779475  0.49919158  1
  Mn  Mn108  1  -0.00069148  -0.00078989  0.75022595  1
  Mn  Mn109  1  0.00055247  0.00088038  0.24952722  1
  Mn  Mn110  1  0.49998139  0.50009130  -0.00043767  1
  Mn  Mn111  1  0.00035865  0.49899489  0.50022966  1
  Mn  Mn112  1  0.25004446  0.16686177  0.87556908  1
  Mn  Mn113  1  0.75023382  -0.00002823  0.37518769  1
  Mn  Mn114  1  0.25046720  0.83348245  0.62581843  1
  Mn  Mn115  1  0.00020992  0.16683717  0.75034570  1
  Mn  Mn116  1  0.50034249  0.83308777  0.25057154  1
  Mn  Mn117  1  0.75019226  0.16638263  0.87398026  1
  Mn  Mn118  1  0.50067730  0.00041730  0.24989742  1
  Mn  Mn119  1  0.49953019  0.49975481  0.50061635  1
  Mn  Mn120  1  0.00020023  0.66594383  0.50030304  1
  Mn  Mn121  1  0.50075785  0.66791709  0.00038868  1
  Mn  Mn122  1  0.50025376  0.66864047  0.75078643  1
  Mn  Mn123  1  0.75031094  0.00038146  0.12426910  1
  Mn  Mn124  1  0.74951620  -0.00065355  0.87499996  1
  Mn  Mn125  1  0.25007431  0.66705895  0.12326249  1
  Mn  Mn126  1  0.49950706  0.33257511  0.00004283  1
  Mn  Mn127  1  0.75022706  0.33396620  0.37536708  1
  Mn  Mn128  1  0.00013483  0.66518848  0.24866342  1
  Mn  Mn129  1  0.75036779  0.66691237  0.62546782  1
  Mn  Mn130  1  0.74959072  0.50105993  0.37595010  1
  Mn  Mn131  1  0.49951075  0.83365654  0.50017948  1
  Mn  Mn132  1  0.00070125  0.33434044  0.75117657  1
  Mn  Mn133  1  0.50083772  0.50034504  0.74978098  1
  Mn  Mn134  1  0.24922788  0.16804198  0.62598512  1
  Mn  Mn135  1  0.00033316  0.83314388  0.24909476  1
  Mn  Mn136  1  0.49980473  0.16685714  0.50055341  1
  Mn  Mn137  1  0.49982495  0.33245681  0.24983402  1
  Mn  Mn138  1  0.49971149  0.00116527  0.75100730  1
  Mn  Mn139  1  0.24986996  0.66614008  0.37452963  1
  Mn  Mn140  1  0.49892965  0.66554323  0.24939621  1
  Mn  Mn141  1  0.75052222  0.83223037  0.37442299  1
  Mn  Mn142  1  0.74959657  0.16707565  0.37590356  1
  Mn  Mn143  1  0.25053879  0.49885053  0.12372093  1
  Fe  Fe144  1  0.25050918  0.49928074  0.62532274  1
  Fe  Fe145  1  0.00011274  0.66623154  0.75118020  1
  Fe  Fe146  1  0.49981871  0.83430291  -0.00005807  1
  Fe  Fe147  1  0.49990789  0.16608104  0.25060139  1
  Fe  Fe148  1  0.24946721  0.33253013  0.12464475  1
  Fe  Fe149  1  0.24986185  0.33385820  0.62448438  1
  Fe  Fe150  1  0.49969234  0.83492327  0.74993290  1
  Fe  Fe151  1  0.75020170  -0.00086480  0.62534437  1
  Fe  Fe152  1  0.24977831  0.00007988  0.87627778  1
  Fe  Fe153  1  0.74994433  0.33373840  0.62545865  1
  Fe  Fe154  1  0.24951268  -0.00002631  0.12492929  1
  Fe  Fe155  1  -0.00014400  0.33323739  0.49916783  1
  Fe  Fe156  1  0.00054459  0.66587554  -0.00052376  1
  Fe  Fe157  1  0.24880076  0.16711156  0.37422283  1
  Fe  Fe158  1  -0.00005815  0.33371951  0.00022412  1
  Fe  Fe159  1  0.49965975  0.66678217  0.50019342  1
  Fe  Fe160  1  -0.00003736  -0.00015704  -0.00034024  1
  Fe  Fe161  1  0.00030385  0.83278603  -0.00049870  1
  Fe  Fe162  1  0.25003313  0.49919224  0.87441728  1
  Fe  Fe163  1  0.49968053  0.00053299  0.50055174  1
  Fe  Fe164  1  0.25002598  0.16685874  0.12483669  1
  Fe  Fe165  1  0.24957763  0.33253821  0.37496567  1
  Fe  Fe166  1  0.00020895  0.49964833  -0.00008067  1
  Fe  Fe167  1  0.74975627  0.50065422  0.12573894  1
  Fe  Fe168  1  0.49991268  0.33334271  0.75000319  1
  Fe  Fe169  1  0.75046800  0.16654873  0.62529465  1
  Fe  Fe170  1  0.50003506  0.16706898  -0.00016051  1
  Fe  Fe171  1  0.00045521  0.83255576  0.75123629  1
  Fe  Fe172  1  -0.00026921  0.49985679  0.75053637  1
  Fe  Fe173  1  0.24924379  0.83339913  0.12412819  1
  Fe  Fe174  1  -0.00021231  0.16684058  0.00002329  1
  Fe  Fe175  1  0.74968115  0.16698752  0.12500205  1
  Fe  Fe176  1  0.75057050  0.83285189  0.87450068  1
  Fe  Fe177  1  0.75012968  0.83287433  0.62526629  1
  Fe  Fe178  1  0.75048697  0.66638837  0.37540296  1
  Fe  Fe179  1  0.00071457  0.49921687  0.24918948  1
  Fe  Fe180  1  0.49960330  0.16733361  0.74999826  1
  Fe  Fe181  1  0.49989225  0.33301867  0.49986214  1
  Fe  Fe182  1  0.25014276  0.33338912  0.87466630  1
  Fe  Fe183  1  0.75082643  0.50045439  0.62522271  1
  Fe  Fe184  1  0.25020288  0.83379605  0.87550150  1
  Fe  Fe185  1  -0.00048005  0.16716853  0.24843211  1
  Fe  Fe186  1  0.75072087  0.66666601  0.87511265  1
  Fe  Fe187  1  0.49996666  0.49911200  0.25059003  1
  Fe  Fe188  1  0.74967630  0.66668953  0.12482817  1
  Fe  Fe189  1  -0.00040738  0.33317085  0.24892571  1
  Fe  Fe190  1  0.25016350  0.66637701  0.87457003  1
  Fe  Fe191  1  0.50006782  0.00069111  0.00018287  1
  P  P192  1  0.04071948  0.25017421  0.10177268  1
  P  P193  1  0.04081627  0.25000229  0.35046989  1
  P  P194  1  0.04227748  0.25195884  0.60207413  1
  P  P195  1  0.04278774  0.24998863  0.85455208  1
  P  P196  1  0.04201278  0.58227760  0.10101577  1
  P  P197  1  0.04279708  0.58100699  0.35168214  1
  P  P198  1  0.04272707  0.58298101  0.60433585  1
  P  P199  1  0.04118623  0.58243182  0.85260995  1
  P  P200  1  0.04160092  0.91656742  0.10076133  1
  P  P201  1  0.04327273  0.91660686  0.35251821  1
  P  P202  1  0.04252750  0.91597631  0.60402405  1
  P  P203  1  0.04165195  0.91510662  0.85378536  1
  P  P204  1  0.54186663  0.24840072  0.10291950  1
  P  P205  1  0.54222739  0.24838482  0.35291370  1
  P  P206  1  0.54177604  0.25189738  0.60339461  1
  P  P207  1  0.54169679  0.24974700  0.85166881  1
  P  P208  1  0.54256231  0.58292044  0.10360809  1
  P  P209  1  0.54185472  0.58164768  0.35297079  1
  P  P210  1  0.54212570  0.58534057  0.60260531  1
  P  P211  1  0.54341576  0.58416818  0.85309651  1
  P  P212  1  0.54164139  0.91707068  0.10142734  1
  P  P213  1  0.54314762  0.91683055  0.35379479  1
  P  P214  1  0.54175586  0.91868234  0.60313069  1
  P  P215  1  0.54209699  0.91625059  0.85334101  1
  P  P216  1  0.45806355  0.08482055  0.14688481  1
  P  P217  1  0.45756433  0.08227686  0.39760729  1
  P  P218  1  0.45728933  0.08518432  0.64794432  1
  P  P219  1  0.45832887  0.08416199  0.89864426  1
  P  P220  1  0.45732285  0.41750322  0.14771670  1
  P  P221  1  0.45761055  0.41497182  0.39741318  1
  P  P222  1  0.45825843  0.41569484  0.64740511  1
  P  P223  1  0.45767265  0.41600079  0.89606760  1
  P  P224  1  0.45725950  0.75103322  0.14628098  1
  P  P225  1  0.45727819  0.74829104  0.39773314  1
  P  P226  1  0.45720306  0.75224514  0.64778623  1
  P  P227  1  0.45812874  0.75242563  0.89744927  1
  P  P228  1  0.95815152  0.08466684  0.14584119  1
  P  P229  1  0.95692051  0.08378172  0.39612501  1
  P  P230  1  0.95704075  0.08370948  0.64699033  1
  P  P231  1  0.95852412  0.08336259  0.89854219  1
  P  P232  1  0.95897734  0.41675332  0.14718238  1
  P  P233  1  0.95766589  0.41496492  0.39659630  1
  P  P234  1  0.95809632  0.41774252  0.64784970  1
  P  P235  1  0.95852623  0.41726865  0.89851390  1
  P  P236  1  0.95799869  0.74935439  0.14509651  1
  P  P237  1  0.95730898  0.74901079  0.39662353  1
  P  P238  1  0.95879749  0.74961837  0.64962975  1
  P  P239  1  0.95953287  0.74928992  0.89793668  1
  P  P240  1  0.20830455  0.08388710  0.22612083  1
  P  P241  1  0.20729736  0.08534405  0.47706548  1
  P  P242  1  0.20697201  0.08352376  0.72936517  1
  P  P243  1  0.20825059  0.08215496  0.97884690  1
  P  P244  1  0.20769760  0.41441543  0.22679276  1
  P  P245  1  0.20757954  0.41495841  0.47747422  1
  P  P246  1  0.20877775  0.41650397  0.72724103  1
  P  P247  1  0.20866854  0.41560785  0.97633535  1
  P  P248  1  0.20717136  0.75099336  0.22618283  1
  P  P249  1  0.20716207  0.74951130  0.47811288  1
  P  P250  1  0.20801229  0.74967596  0.72964074  1
  P  P251  1  0.20875706  0.75005316  0.97608537  1
  P  P252  1  0.70761963  0.08442238  0.22718285  1
  P  P253  1  0.70763300  0.08302019  0.47973430  1
  P  P254  1  0.70863977  0.08295031  0.72620973  1
  P  P255  1  0.70742452  0.08388163  0.97817731  1
  P  P256  1  0.70763773  0.41835287  0.22790748  1
  P  P257  1  0.70751766  0.41693960  0.47969829  1
  P  P258  1  0.70881088  0.41766401  0.72675961  1
  P  P259  1  0.70725804  0.41728863  0.97905436  1
  P  P260  1  0.70766261  0.74822760  0.22769564  1
  P  P261  1  0.70798438  0.74863795  0.47792879  1
  P  P262  1  0.70827950  0.75145153  0.72832056  1
  P  P263  1  0.70908948  0.74940136  0.97654308  1
  P  P264  1  0.29125258  0.25011813  0.02303018  1
  P  P265  1  0.29072482  0.24978106  0.27241654  1
  P  P266  1  0.29159157  0.25140011  0.52194848  1
  P  P267  1  0.29204808  0.25182595  0.77246899  1
  P  P268  1  0.29243947  0.58286735  0.01982443  1
  P  P269  1  0.29278030  0.58274724  0.27093895  1
  P  P270  1  0.29234138  0.58121827  0.52278226  1
  P  P271  1  0.29146015  0.58256295  0.77322113  1
  P  P272  1  0.29062873  0.91686457  0.02281715  1
  P  P273  1  0.29242597  0.91723670  0.27055274  1
  P  P274  1  0.29298372  0.91728460  0.52216825  1
  P  P275  1  0.29149447  0.91761366  0.77446184  1
  P  P276  1  0.79220637  0.24916109  0.02276178  1
  P  P277  1  0.79222879  0.25011881  0.27156101  1
  P  P278  1  0.79144172  0.25020744  0.52413998  1
  P  P279  1  0.79282024  0.25041378  0.77090478  1
  P  P280  1  0.79161629  0.58369476  0.02352129  1
  P  P281  1  0.79199392  0.58474279  0.27191590  1
  P  P282  1  0.79295549  0.58264137  0.52281229  1
  P  P283  1  0.79266028  0.58444088  0.77272598  1
  P  P284  1  0.79259087  0.91580499  0.02097384  1
  P  P285  1  0.79324947  0.91658889  0.27153054  1
  P  P286  1  0.79171356  0.91572911  0.52367040  1
  P  P287  1  0.79214682  0.91542695  0.77189100  1
  O  O288  1  0.03554600  0.25012991  0.18164710  1
  O  O289  1  0.03612790  0.25065850  0.43043829  1
  O  O290  1  0.03763202  0.25180509  0.68207040  1
  O  O291  1  0.03728375  0.24981113  0.93441257  1
  O  O292  1  0.03726804  0.58198086  0.18098451  1
  O  O293  1  0.03784033  0.58117119  0.43166251  1
  O  O294  1  0.03736224  0.58306968  0.68424653  1
  O  O295  1  0.03635988  0.58240100  0.93252747  1
  O  O296  1  0.03703099  0.91696337  0.18075205  1
  O  O297  1  0.03815068  0.91659431  0.43254141  1
  O  O298  1  0.03720609  0.91564916  0.68403615  1
  O  O299  1  0.03611487  0.91527936  0.93366657  1
  O  O300  1  0.53669750  0.24824540  0.18285640  1
  O  O301  1  0.53683299  0.24913597  0.43283304  1
  O  O302  1  0.53637460  0.25188989  0.68327541  1
  O  O303  1  0.53662456  0.24914336  0.93167944  1
  O  O304  1  0.53690820  0.58228130  0.18352262  1
  O  O305  1  0.53650967  0.58234262  0.43292741  1
  O  O306  1  0.53725919  0.58536177  0.68257071  1
  O  O307  1  0.53832707  0.58416818  0.93304016  1
  O  O308  1  0.53735869  0.91732183  0.18145308  1
  O  O309  1  0.53761578  0.91743053  0.43370394  1
  O  O310  1  0.53626846  0.91818169  0.68308706  1
  O  O311  1  0.53678450  0.91644587  0.93324107  1
  O  O312  1  0.46341964  0.08475705  0.06699996  1
  O  O313  1  0.46308483  0.08301041  0.31768183  1
  O  O314  1  0.46229371  0.08428611  0.56804009  1
  O  O315  1  0.46295495  0.08421632  0.81866479  1
  O  O316  1  0.46249258  0.41709733  0.06774351  1
  O  O317  1  0.46308775  0.41570848  0.31748052  1
  O  O318  1  0.46329766  0.41551585  0.56742787  1
  O  O319  1  0.46320140  0.41546872  0.81615554  1
  O  O320  1  0.46277825  0.75182578  0.06633319  1
  O  O321  1  0.46242100  0.74835476  0.31774775  1
  O  O322  1  0.46237270  0.75125190  0.56784470  1
  O  O323  1  0.46322767  0.75282972  0.81750253  1
  O  O324  1  0.96363623  0.08438265  0.06594312  1
  O  O325  1  0.96211065  0.08411558  0.31611308  1
  O  O326  1  0.96205108  0.08370409  0.56700593  1
  O  O327  1  0.96318585  0.08305414  0.81852426  1
  O  O328  1  0.96379891  0.41697395  0.06728522  1
  O  O329  1  0.96277486  0.41523168  0.31671903  1
  O  O330  1  0.96300410  0.41690856  0.56793518  1
  O  O331  1  0.96347246  0.41767007  0.81857059  1
  O  O332  1  0.96360595  0.74951334  0.06519832  1
  O  O333  1  0.96226595  0.74893532  0.31662466  1
  O  O334  1  0.96326330  0.74920179  0.56960496  1
  O  O335  1  0.96457405  0.74915427  0.81803694  1
  O  O336  1  0.21373032  0.08218883  0.05871027  1
  O  O337  1  0.21295210  0.08472027  0.30612696  1
  O  O338  1  0.21219934  0.08526738  0.55707618  1
  O  O339  1  0.21242912  0.08303269  0.80932989  1
  O  O340  1  0.21340058  0.41560064  0.05627412  1
  O  O341  1  0.21282430  0.41424482  0.30672226  1
  O  O342  1  0.21283622  0.41524205  0.55736068  1
  O  O343  1  0.21396262  0.41645776  0.80713097  1
  O  O344  1  0.21339520  0.75073688  0.05607915  1
  O  O345  1  0.21213011  0.75055552  0.30617320  1
  O  O346  1  0.21248584  0.74937552  0.55812396  1
  O  O347  1  0.21360718  0.74956393  0.80952510  1
  O  O348  1  0.71267974  0.08456361  0.05810709  1
  O  O349  1  0.71235536  0.08413136  0.30723927  1
  O  O350  1  0.71329694  0.08303914  0.55958495  1
  O  O351  1  0.71335546  0.08265560  0.80622575  1
  O  O352  1  0.71245063  0.41776763  0.05900317  1
  O  O353  1  0.71260784  0.41813747  0.30790778  1
  O  O354  1  0.71289302  0.41709948  0.55960778  1
  O  O355  1  0.71342169  0.41735172  0.80681812  1
  O  O356  1  0.71390039  0.74898194  0.05652717  1
  O  O357  1  0.71303672  0.74809500  0.30762815  1
  O  O358  1  0.71323264  0.74940517  0.55788889  1
  O  O359  1  0.71366544  0.75131283  0.80819613  1
  O  O360  1  0.28563701  0.24970540  0.19249793  1
  O  O361  1  0.28627958  0.25100065  0.44206210  1
  O  O362  1  0.28655160  0.25192265  0.69258398  1
  O  O363  1  0.28663191  0.25006393  0.94308330  1
  O  O364  1  0.28785539  0.58288110  0.19091620  1
  O  O365  1  0.28723901  0.58137590  0.44280282  1
  O  O366  1  0.28671661  0.58196820  0.69322262  1
  O  O367  1  0.28693624  0.58291508  0.93993233  1
  O  O368  1  0.28671585  0.91714701  0.19065788  1
  O  O369  1  0.28801606  0.91738077  0.44217618  1
  O  O370  1  0.28704119  0.91740150  0.69445172  1
  O  O371  1  0.28560131  0.91694131  0.94287302  1
  O  O372  1  0.78695309  0.24956640  0.19160779  1
  O  O373  1  0.78647011  0.25058095  0.44413461  1
  O  O374  1  0.78757749  0.25048391  0.69099807  1
  O  O375  1  0.78765333  0.24934398  0.94271336  1
  O  O376  1  0.78628098  0.58433757  0.19205276  1
  O  O377  1  0.78764042  0.58353818  0.44287896  1
  O  O378  1  0.78759682  0.58384071  0.69280767  1
  O  O379  1  0.78669353  0.58391247  0.94352740  1
  O  O380  1  0.78810663  0.91655031  0.19153706  1
  O  O381  1  0.78710205  0.91598322  0.44364617  1
  O  O382  1  0.78690953  0.91560108  0.69196418  1
  O  O383  1  0.78722533  0.91529162  0.94102279  1
  O  O384  1  0.22699624  0.25055624  0.05872415  1
  O  O385  1  0.22663186  0.24995856  0.30876727  1
  O  O386  1  0.22741546  0.25188089  0.55804984  1
  O  O387  1  0.22788511  0.25152395  0.80847193  1
  O  O388  1  0.22829128  0.58275008  0.05571897  1
  O  O389  1  0.22830983  0.58262891  0.30588307  1
  O  O390  1  0.22802949  0.58079813  0.55839698  1
  O  O391  1  0.22730125  0.58333435  0.80906852  1
  O  O392  1  0.22656273  0.91718310  0.05906414  1
  O  O393  1  0.22829708  0.91752259  0.30654984  1
  O  O394  1  0.22850130  0.91694718  0.55717861  1
  O  O395  1  0.22718022  0.91793873  0.80987430  1
  O  O396  1  0.72775706  0.24961012  0.05773317  1
  O  O397  1  0.72797452  0.25041277  0.30709886  1
  O  O398  1  0.72733131  0.24949859  0.56007950  1
  O  O399  1  0.72845082  0.25044248  0.80634523  1
  O  O400  1  0.72745374  0.58367719  0.05950956  1
  O  O401  1  0.72794576  0.58544955  0.30842626  1
  O  O402  1  0.72867577  0.58213134  0.55854125  1
  O  O403  1  0.72830902  0.58518769  0.80824589  1
  O  O404  1  0.72834180  0.91614742  0.05648282  1
  O  O405  1  0.72884624  0.91631486  0.30667466  1
  O  O406  1  0.72746863  0.91525423  0.55936274  1
  O  O407  1  0.72794401  0.91499236  0.80779250  1
  O  O408  1  0.27250919  0.08304338  0.19041534  1
  O  O409  1  0.27166096  0.08603767  0.44160773  1
  O  O410  1  0.27126813  0.08416423  0.69392282  1
  O  O411  1  0.27232206  0.08210291  0.94257039  1
  O  O412  1  0.27202667  0.41411314  0.19118879  1
  O  O413  1  0.27179528  0.41457242  0.44146947  1
  O  O414  1  0.27276402  0.41629416  0.69064666  1
  O  O415  1  0.27286329  0.41538603  0.94052362  1
  O  O416  1  0.27157708  0.75141089  0.19081359  1
  O  O417  1  0.27156071  0.74963744  0.44287022  1
  O  O418  1  0.27210599  0.74924882  0.69360905  1
  O  O419  1  0.27292848  0.74938343  0.94038765  1
  O  O420  1  0.77205370  0.08442612  0.19204632  1
  O  O421  1  0.77176857  0.08340274  0.44367518  1
  O  O422  1  0.77287437  0.08335379  0.69065859  1
  O  O423  1  0.77176460  0.08318870  0.94290802  1
  O  O424  1  0.77195995  0.41819819  0.19245173  1
  O  O425  1  0.77172076  0.41730772  0.44390865  1
  O  O426  1  0.77305375  0.41793077  0.69116323  1
  O  O427  1  0.77165432  0.41715332  0.94381959  1
  O  O428  1  0.77191102  0.74801959  0.19186047  1
  O  O429  1  0.77228338  0.74795581  0.44215638  1
  O  O430  1  0.77248588  0.75154709  0.69236071  1
  O  O431  1  0.77329816  0.74931263  0.94062241  1
  O  O432  1  0.02226029  0.08536336  0.18208422  1
  O  O433  1  0.02131662  0.08383404  0.43137598  1
  O  O434  1  0.02146501  0.08310275  0.68205440  1
  O  O435  1  0.02271599  0.08411324  0.93419003  1
  O  O436  1  0.02303571  0.41703727  0.18335041  1
  O  O437  1  0.02194592  0.41467729  0.43251985  1
  O  O438  1  0.02243378  0.41855463  0.68345238  1
  O  O439  1  0.02276306  0.41758779  0.93428391  1
  O  O440  1  0.02213429  0.74923131  0.18103611  1
  O  O441  1  0.02178377  0.74926524  0.43160766  1
  O  O442  1  0.02301171  0.74991788  0.68528368  1
  O  O443  1  0.02353163  0.74991265  0.93422990  1
  O  O444  1  0.52222617  0.08537023  0.18305716  1
  O  O445  1  0.52173779  0.08190980  0.43364798  1
  O  O446  1  0.52163113  0.08551800  0.68353169  1
  O  O447  1  0.52260448  0.08447993  0.93421442  1
  O  O448  1  0.52161682  0.41755439  0.18336423  1
  O  O449  1  0.52175420  0.41506058  0.43349001  1
  O  O450  1  0.52255749  0.41570186  0.68295781  1
  O  O451  1  0.52185697  0.41586929  0.93172631  1
  O  O452  1  0.52152724  0.74985954  0.18175915  1
  O  O453  1  0.52161566  0.74854946  0.43327522  1
  O  O454  1  0.52161398  0.75308034  0.68330835  1
  O  O455  1  0.52243740  0.75264732  0.93306608  1
  O  O456  1  0.47754309  0.24830442  0.06727475  1
  O  O457  1  0.47798611  0.24791611  0.31698080  1
  O  O458  1  0.47769878  0.25193054  0.56710510  1
  O  O459  1  0.47744626  0.24979960  0.81581929  1
  O  O460  1  0.47837698  0.58381777  0.06790469  1
  O  O461  1  0.47761354  0.58074038  0.31707086  1
  O  O462  1  0.47773410  0.58507979  0.56726806  1
  O  O463  1  0.47896401  0.58398466  0.81816230  1
  O  O464  1  0.47730451  0.91670855  0.06605294  1
  O  O465  1  0.47886171  0.91684648  0.31823612  1
  O  O466  1  0.47760512  0.91865379  0.56709079  1
  O  O467  1  0.47784636  0.91606633  0.81741179  1
  O  O468  1  0.97680045  0.24966775  0.06526962  1
  O  O469  1  0.97666434  0.24926961  0.31456030  1
  O  O470  1  0.97780050  0.25206668  0.56684001  1
  O  O471  1  0.97861985  0.25029757  0.81867575  1
  O  O472  1  0.97773586  0.58188531  0.06537098  1
  O  O473  1  0.97840491  0.58069397  0.31622769  1
  O  O474  1  0.97850056  0.58267613  0.56852711  1
  O  O475  1  0.97715257  0.58201346  0.81636856  1
  O  O476  1  0.97736829  0.91571400  0.06523546  1
  O  O477  1  0.97882978  0.91691586  0.31747362  1
  O  O478  1  0.97817548  0.91626362  0.56863626  1
  O  O479  1  0.97760659  0.91440200  0.81747560  1
  O  O480  1  0.07101811  0.31428688  0.07349796  1
  O  O481  1  0.07115628  0.31369822  0.32148497  1
  O  O482  1  0.07271490  0.31549938  0.57326404  1
  O  O483  1  0.07406283  0.31344760  0.82640867  1
  O  O484  1  0.07206765  0.64643317  0.07259349  1
  O  O485  1  0.07363178  0.64468886  0.32364277  1
  O  O486  1  0.07366456  0.64650597  0.57579943  1
  O  O487  1  0.07159540  0.64639833  0.82421737  1
  O  O488  1  0.07150135  0.98077285  0.07236404  1
  O  O489  1  0.07442971  0.98003084  0.32431412  1
  O  O490  1  0.07368169  0.97952762  0.57600896  1
  O  O491  1  0.07247772  0.97893645  0.82594610  1
  O  O492  1  0.57263196  0.31241499  0.07534162  1
  O  O493  1  0.57332328  0.31187933  0.32471088  1
  O  O494  1  0.57281986  0.31506600  0.57436681  1
  O  O495  1  0.57242050  0.31365634  0.82389317  1
  O  O496  1  0.57401486  0.64646139  0.07598226  1
  O  O497  1  0.57263994  0.64524678  0.32468613  1
  O  O498  1  0.57255240  0.64902515  0.57405444  1
  O  O499  1  0.57426708  0.64776781  0.82507827  1
  O  O500  1  0.57173620  0.98108896  0.07287324  1
  O  O501  1  0.57462560  0.97977118  0.32495866  1
  O  O502  1  0.57219020  0.98255517  0.57505654  1
  O  O503  1  0.57313238  0.98000008  0.82536218  1
  O  O504  1  0.42732492  0.02093478  0.17478461  1
  O  O505  1  0.42668272  0.01871036  0.42578415  1
  O  O506  1  0.42606047  0.02200560  0.67667179  1
  O  O507  1  0.42829672  0.02003323  0.92718118  1
  O  O508  1  0.42634039  0.35371959  0.17535025  1
  O  O509  1  0.42722348  0.35098418  0.42533123  1
  O  O510  1  0.42724493  0.35255723  0.67632265  1
  O  O511  1  0.42616191  0.35295801  0.92468723  1
  O  O512  1  0.42548671  0.68759270  0.17355032  1
  O  O513  1  0.42679227  0.68463052  0.42627499  1
  O  O514  1  0.42633499  0.68872321  0.67630190  1
  O  O515  1  0.42747474  0.68831897  0.92480175  1
  O  O516  1  0.92729629  0.02089449  0.17381234  1
  O  O517  1  0.92602606  0.02017509  0.42435505  1
  O  O518  1  0.92560296  0.02049744  0.67517178  1
  O  O519  1  0.92849938  0.01912362  0.92670372  1
  O  O520  1  0.92840968  0.35287580  0.17560104  1
  O  O521  1  0.92690465  0.35150074  0.42561233  1
  O  O522  1  0.92726375  0.35428919  0.67644436  1
  O  O523  1  0.92839316  0.35308003  0.92666455  1
  O  O524  1  0.92677515  0.68586789  0.17319471  1
  O  O525  1  0.92660250  0.68543288  0.42503447  1
  O  O526  1  0.92842559  0.68580563  0.67831395  1
  O  O527  1  0.92926988  0.68522403  0.92643164  1
  O  O528  1  0.17691779  0.02038721  0.19835804  1
  O  O529  1  0.17677374  0.02142664  0.44918707  1
  O  O530  1  0.17598711  0.02020893  0.70069236  1
  O  O531  1  0.17716605  0.01883435  0.95012777  1
  O  O532  1  0.17649031  0.35129972  0.19795000  1
  O  O533  1  0.17653285  0.35173063  0.44843226  1
  O  O534  1  0.17751105  0.35313320  0.69882074  1
  O  O535  1  0.17739580  0.35227165  0.94810047  1
  O  O536  1  0.17631930  0.68733021  0.19799684  1
  O  O537  1  0.17627452  0.68588365  0.44996683  1
  O  O538  1  0.17637010  0.68650870  0.70135160  1
  O  O539  1  0.17753717  0.68644846  0.94829667  1
  O  O540  1  0.67649230  0.02085148  0.19918204  1
  O  O541  1  0.67673493  0.01952410  0.45115309  1
  O  O542  1  0.67819720  0.01901737  0.69802360  1
  O  O543  1  0.67616556  0.02028193  0.95047133  1
  O  O544  1  0.67629684  0.35482352  0.20022697  1
  O  O545  1  0.67658535  0.35340586  0.45121743  1
  O  O546  1  0.67840171  0.35373729  0.69844825  1
  O  O547  1  0.67636630  0.35360969  0.95090153  1
  O  O548  1  0.67639327  0.68526511  0.19873631  1
  O  O549  1  0.67711166  0.68501421  0.44985062  1
  O  O550  1  0.67710512  0.68787062  0.70028821  1
  O  O551  1  0.67804692  0.68595233  0.94811832  1
  O  O552  1  0.32263875  0.31331377  0.05144154  1
  O  O553  1  0.32191081  0.31317902  0.30087093  1
  O  O554  1  0.32273855  0.31465892  0.55074365  1
  O  O555  1  0.32296379  0.31514441  0.80106848  1
  O  O556  1  0.32369514  0.64627564  0.04807871  1
  O  O557  1  0.32368219  0.64626286  0.29921026  1
  O  O558  1  0.32312702  0.64495360  0.55079661  1
  O  O559  1  0.32285908  0.64607109  0.80105521  1
  O  O560  1  0.32203817  0.98014126  0.05122802  1
  O  O561  1  0.32384225  0.98061521  0.29876039  1
  O  O562  1  0.32356330  0.98100410  0.55049754  1
  O  O563  1  0.32262415  0.98107134  0.80268812  1
  O  O564  1  0.82361121  0.31260623  0.05057759  1
  O  O565  1  0.82320202  0.31394398  0.29918882  1
  O  O566  1  0.82156641  0.31428264  0.55248062  1
  O  O567  1  0.82391685  0.31372440  0.79976399  1
  O  O568  1  0.82264968  0.64719761  0.05166837  1
  O  O569  1  0.82341378  0.64787614  0.30051871  1
  O  O570  1  0.82409505  0.64601004  0.55124925  1
  O  O571  1  0.82349694  0.64798296  0.80120729  1
  O  O572  1  0.82374648  0.97946531  0.04862285  1
  O  O573  1  0.82402368  0.98021139  0.29968626  1
  O  O574  1  0.82197688  0.97966192  0.55215113  1
  O  O575  1  0.82315290  0.97910951  0.80000480  1
  O  O576  1  0.42678853  0.14785234  0.17596843  1
  O  O577  1  0.42648096  0.14578209  0.42576279  1
  O  O578  1  0.42675282  0.14899001  0.67614241  1
  O  O579  1  0.42693091  0.14737629  0.92696994  1
  O  O580  1  0.42660347  0.48099163  0.17605124  1
  O  O581  1  0.42603831  0.47811397  0.42568918  1
  O  O582  1  0.42744647  0.47968620  0.67495392  1
  O  O583  1  0.42682622  0.47983914  0.92364915  1
  O  O584  1  0.42660952  0.81443789  0.17512444  1
  O  O585  1  0.42607095  0.81190056  0.42530252  1
  O  O586  1  0.42635941  0.81587549  0.67593769  1
  O  O587  1  0.42688446  0.81541996  0.92645280  1
  O  O588  1  0.92688283  0.14789111  0.17442777  1
  O  O589  1  0.92565013  0.14702155  0.42456951  1
  O  O590  1  0.92664876  0.14751712  0.67516620  1
  O  O591  1  0.92706323  0.14667138  0.92643887  1
  O  O592  1  0.92779466  0.48005461  0.17588040  1
  O  O593  1  0.92660250  0.47842014  0.42504090  1
  O  O594  1  0.92713042  0.48123530  0.67621056  1
  O  O595  1  0.92694269  0.48027739  0.92702967  1
  O  O596  1  0.92671924  0.81269009  0.17344078  1
  O  O597  1  0.92624481  0.81243604  0.42494294  1
  O  O598  1  0.92780575  0.81320228  0.67760661  1
  O  O599  1  0.92785315  0.81243651  0.92611548  1
  O  O600  1  0.07241881  0.18706783  0.07347890  1
  O  O601  1  0.07203362  0.18647974  0.32245402  1
  O  O602  1  0.07316310  0.18828151  0.57407446  1
  O  O603  1  0.07388691  0.18667668  0.82589931  1
  O  O604  1  0.07355849  0.51922252  0.07251965  1
  O  O605  1  0.07357166  0.51753232  0.32311517  1
  O  O606  1  0.07410250  0.51982287  0.57573245  1
  O  O607  1  0.07248936  0.51914627  0.82410107  1
  O  O608  1  0.07305809  0.85325798  0.07283013  1
  O  O609  1  0.07405884  0.85304377  0.32429362  1
  O  O610  1  0.07358398  0.85257954  0.57567566  1
  O  O611  1  0.07299778  0.85190651  0.82522137  1
  O  O612  1  0.57299924  0.18545506  0.07377465  1
  O  O613  1  0.57306031  0.18475321  0.32484888  1
  O  O614  1  0.57282608  0.18814307  0.57564512  1
  O  O615  1  0.57256337  0.18630011  0.82294635  1
  O  O616  1  0.57348814  0.51958251  0.07511131  1
  O  O617  1  0.57285944  0.51803753  0.32493650  1
  O  O618  1  0.57325603  0.52169549  0.57505501  1
  O  O619  1  0.57458165  0.52079527  0.82489536  1
  O  O620  1  0.57284135  0.85362471  0.07337699  1
  O  O621  1  0.57391795  0.85291796  0.32610403  1
  O  O622  1  0.57323092  0.85536824  0.57519753  1
  O  O623  1  0.57316784  0.85315006  0.82428152  1
  O  O624  1  0.32130177  0.18605818  0.05168836  1
  O  O625  1  0.32140660  0.18608469  0.30098040  1
  O  O626  1  0.32257459  0.18786404  0.55037126  1
  O  O627  1  0.32317126  0.18817050  0.80025327  1
  O  O628  1  0.32374192  0.51949851  0.04809000  1
  O  O629  1  0.32367224  0.51919555  0.29902160  1
  O  O630  1  0.32322014  0.51779139  0.55125902  1
  O  O631  1  0.32174840  0.51870270  0.80182677  1
  O  O632  1  0.32112247  0.85292794  0.05104594  1
  O  O633  1  0.32358633  0.85384846  0.29895839  1
  O  O634  1  0.32409733  0.85391483  0.55041568  1
  O  O635  1  0.32173897  0.85364200  0.80291949  1
  O  O636  1  0.82232387  0.18538644  0.05146697  1
  O  O637  1  0.82341015  0.18700753  0.30029062  1
  O  O638  1  0.82293176  0.18676923  0.55165234  1
  O  O639  1  0.82394514  0.18692518  0.79917686  1
  O  O640  1  0.82207631  0.51978946  0.05181833  1
  O  O641  1  0.82278455  0.52098252  0.30007867  1
  O  O642  1  0.82374525  0.51898813  0.55089736  1
  O  O643  1  0.82348622  0.52097006  0.80119828  1
  O  O644  1  0.82381890  0.85260144  0.04936754  1
  O  O645  1  0.82440121  0.85313793  0.29955733  1
  O  O646  1  0.82279450  0.85216564  0.55164611  1
  O  O647  1  0.82324519  0.85219492  0.80077267  1
  O  O648  1  0.17809048  0.14765605  0.19710351  1
  O  O649  1  0.17618299  0.14856568  0.44837801  1
  O  O650  1  0.17566567  0.14705548  0.70161195  1
  O  O651  1  0.17709118  0.14576638  0.95103263  1
  O  O652  1  0.17711064  0.47832027  0.19885795  1
  O  O653  1  0.17657009  0.47855055  0.44925031  1
  O  O654  1  0.17822617  0.48032562  0.69882438  1
  O  O655  1  0.17842350  0.47956680  0.94770879  1
  O  O656  1  0.17640388  0.81454244  0.19779012  1
  O  O657  1  0.17608907  0.81298625  0.45011696  1
  O  O658  1  0.17713231  0.81334399  0.70154228  1
  O  O659  1  0.17839473  0.81386369  0.94742401  1
  O  O660  1  0.67723500  0.14812744  0.19860264  1
  O  O661  1  0.67612972  0.14633304  0.45157187  1
  O  O662  1  0.67757008  0.14660104  0.69855017  1
  O  O663  1  0.67642797  0.14704162  0.94924166  1
  O  O664  1  0.67715273  0.48200454  0.19950709  1
  O  O665  1  0.67600342  0.48010015  0.45125840  1
  O  O666  1  0.67787251  0.48132310  0.69892024  1
  O  O667  1  0.67599680  0.48042878  0.95044654  1
  O  O668  1  0.67694017  0.81223176  0.20001403  1
  O  O669  1  0.67708556  0.81215660  0.44960218  1
  O  O670  1  0.67728446  0.81465290  0.69926970  1
  O  O671  1  0.67858023  0.81333826  0.94854300  1
