# generated using pymatgen
data_Na2MnFe(PO4)2
_symmetry_space_group_name_H-M   'P 1'
_cell_length_a   22.33752120
_cell_length_b   20.09177723
_cell_length_c   19.45482344
_cell_angle_alpha   89.98845443
_cell_angle_beta   90.09105044
_cell_angle_gamma   90.01321000
_symmetry_Int_Tables_number   1
_chemical_formula_structural   Na2MnFe(PO4)2
_chemical_formula_sum   'Na96 Mn48 Fe48 P96 O384'
_cell_volume   8731.32305097
_cell_formula_units_Z   48
loop_
 _symmetry_equiv_pos_site_id
 _symmetry_equiv_pos_as_xyz
  1  'x, y, z'
loop_
 _atom_site_type_symbol
 _atom_site_label
 _atom_site_symmetry_multiplicity
 _atom_site_fract_x
 _atom_site_fract_y
 _atom_site_fract_z
 _atom_site_occupancy
  Na  Na0  1  0.13985292  0.25039368  0.24277552  1
  Na  Na1  1  0.14017964  0.24946600  0.49286860  1
  Na  Na2  1  0.14036013  0.25165240  0.74395627  1
  Na  Na3  1  0.14024868  0.25041483  0.99397400  1
  Na  Na4  1  0.13996211  0.58459779  0.24240917  1
  Na  Na5  1  0.13969943  0.58295063  0.49350941  1
  Na  Na6  1  0.14010894  0.58439015  0.74411335  1
  Na  Na7  1  0.14023544  0.58381481  0.99364585  1
  Na  Na8  1  0.14005491  0.91678500  0.24342809  1
  Na  Na9  1  0.13988315  0.91699057  0.49352248  1
  Na  Na10  1  0.14019709  0.91825318  0.74546983  1
  Na  Na11  1  0.13956715  0.91685109  0.99385102  1
  Na  Na12  1  0.64017601  0.24960487  0.24314319  1
  Na  Na13  1  0.63992226  0.24969028  0.49327831  1
  Na  Na14  1  0.63971263  0.24929884  0.74417727  1
  Na  Na15  1  0.64025284  0.25069047  0.99299382  1
  Na  Na16  1  0.64034136  0.58150764  0.24344363  1
  Na  Na17  1  0.63995545  0.58251939  0.49311658  1
  Na  Na18  1  0.64059079  0.58406565  0.74512428  1
  Na  Na19  1  0.64043007  0.58275300  0.99393757  1
  Na  Na20  1  0.63962019  0.91571182  0.24284512  1
  Na  Na21  1  0.63967978  0.91528962  0.49385877  1
  Na  Na22  1  0.63982518  0.91572034  0.74424139  1
  Na  Na23  1  0.63973935  0.91652468  0.99355568  1
  Na  Na24  1  0.36002590  0.08245935  0.00618877  1
  Na  Na25  1  0.35977279  0.08294609  0.25522049  1
  Na  Na26  1  0.36004593  0.08345934  0.50640232  1
  Na  Na27  1  0.35952330  0.08468661  0.75702890  1
  Na  Na28  1  0.36077223  0.41630252  0.00664892  1
  Na  Na29  1  0.36070117  0.41737013  0.25563781  1
  Na  Na30  1  0.35972457  0.41601459  0.50603297  1
  Na  Na31  1  0.35979925  0.41696515  0.75611298  1
  Na  Na32  1  0.35958228  0.75166161  0.00728417  1
  Na  Na33  1  0.35977969  0.75187966  0.25629955  1
  Na  Na34  1  0.36009629  0.74990100  0.50710833  1
  Na  Na35  1  0.35993315  0.75212403  0.75672489  1
  Na  Na36  1  0.85924711  0.08332202  0.00724558  1
  Na  Na37  1  0.85935285  0.08338358  0.25584528  1
  Na  Na38  1  0.85959485  0.08181133  0.50583296  1
  Na  Na39  1  0.85961984  0.08292348  0.75580867  1
  Na  Na40  1  0.86064545  0.41704625  0.00700267  1
  Na  Na41  1  0.86071386  0.41568754  0.25697402  1
  Na  Na42  1  0.86050184  0.41609079  0.50517147  1
  Na  Na43  1  0.85971874  0.41654188  0.75677371  1
  Na  Na44  1  0.86014639  0.74980966  0.00712806  1
  Na  Na45  1  0.86013365  0.74918562  0.25596741  1
  Na  Na46  1  0.85995911  0.74843214  0.50572750  1
  Na  Na47  1  0.85994702  0.74881109  0.75698440  1
  Na  Na48  1  0.10909679  0.08326753  0.11862974  1
  Na  Na49  1  0.10913582  0.08229428  0.36828047  1
  Na  Na50  1  0.10945804  0.08426375  0.61805095  1
  Na  Na51  1  0.10926116  0.08307074  0.86956035  1
  Na  Na52  1  0.10955808  0.41831179  0.11818518  1
  Na  Na53  1  0.10902442  0.41689154  0.36822168  1
  Na  Na54  1  0.10924489  0.41792797  0.61765061  1
  Na  Na55  1  0.10991493  0.41788159  0.86919050  1
  Na  Na56  1  0.10921769  0.75098615  0.11809432  1
  Na  Na57  1  0.10906087  0.74874905  0.36813826  1
  Na  Na58  1  0.10926690  0.74953074  0.61927691  1
  Na  Na59  1  0.10972555  0.75078407  0.87004785  1
  Na  Na60  1  0.60910465  0.08297199  0.11678249  1
  Na  Na61  1  0.60900150  0.08247289  0.36874704  1
  Na  Na62  1  0.60871363  0.08281852  0.61890808  1
  Na  Na63  1  0.60943361  0.08351798  0.86887526  1
  Na  Na64  1  0.60996529  0.41544815  0.11859621  1
  Na  Na65  1  0.60998459  0.41587067  0.36771726  1
  Na  Na66  1  0.60947816  0.41577953  0.61881397  1
  Na  Na67  1  0.60972201  0.41597936  0.86915674  1
  Na  Na68  1  0.60928458  0.75041901  0.11819405  1
  Na  Na69  1  0.60902538  0.74925690  0.36943369  1
  Na  Na70  1  0.60910579  0.75137704  0.61892353  1
  Na  Na71  1  0.60961851  0.75019922  0.86929066  1
  Na  Na72  1  0.39115681  0.25076707  0.12988439  1
  Na  Na73  1  0.39072762  0.24984519  0.38093000  1
  Na  Na74  1  0.39033343  0.24951508  0.63163098  1
  Na  Na75  1  0.39082582  0.25059077  0.88134507  1
  Na  Na76  1  0.39103174  0.58236615  0.13176482  1
  Na  Na77  1  0.39082388  0.58352747  0.38106875  1
  Na  Na78  1  0.39074695  0.58417489  0.63163180  1
  Na  Na79  1  0.39101556  0.58319542  0.88205743  1
  Na  Na80  1  0.38963936  0.91706172  0.13118032  1
  Na  Na81  1  0.39078326  0.91697875  0.38142537  1
  Na  Na82  1  0.39055447  0.91821683  0.63127604  1
  Na  Na83  1  0.39019293  0.91742518  0.88279853  1
  Na  Na84  1  0.89097627  0.25173914  0.13168799  1
  Na  Na85  1  0.89062358  0.25006523  0.38066753  1
  Na  Na86  1  0.89037359  0.25052284  0.63016899  1
  Na  Na87  1  0.89059794  0.25029490  0.88254579  1
  Na  Na88  1  0.89131962  0.58315958  0.13105809  1
  Na  Na89  1  0.89117194  0.58142986  0.38075264  1
  Na  Na90  1  0.89038278  0.58302983  0.63040971  1
  Na  Na91  1  0.89079115  0.58380577  0.88262310  1
  Na  Na92  1  0.88982187  0.91638533  0.13184053  1
  Na  Na93  1  0.89035286  0.91455851  0.38042456  1
  Na  Na94  1  0.89050480  0.91557213  0.63100053  1
  Na  Na95  1  0.89060137  0.91584354  0.88267228  1
  Mn  Mn96  1  -0.00030140  -0.00056585  0.24962276  1
  Mn  Mn97  1  0.24962178  0.16708824  0.87533709  1
  Mn  Mn98  1  0.49982901  0.33249219  0.49948292  1
  Mn  Mn99  1  -0.00044602  0.16668149  0.49935590  1
  Mn  Mn100  1  0.49975131  0.00037143  0.75016794  1
  Mn  Mn101  1  0.25023110  0.16559766  0.37367774  1
  Mn  Mn102  1  0.75002554  0.83251603  0.37434000  1
  Mn  Mn103  1  0.75034700  0.33309304  0.87501688  1
  Mn  Mn104  1  0.74966322  0.49970944  0.62521348  1
  Mn  Mn105  1  0.75003609  -0.00117118  0.37476924  1
  Mn  Mn106  1  0.75097352  0.49878448  0.12469945  1
  Mn  Mn107  1  0.75034512  0.66638547  0.62481960  1
  Mn  Mn108  1  0.49954397  0.50019581  0.50017817  1
  Mn  Mn109  1  0.74978448  0.33301911  0.62530109  1
  Mn  Mn110  1  0.00037213  0.83249613  0.75055792  1
  Mn  Mn111  1  0.25036546  0.66752851  0.12452925  1
  Mn  Mn112  1  0.74916826  0.16639058  0.37443493  1
  Mn  Mn113  1  0.25019283  0.00139438  0.62523098  1
  Mn  Mn114  1  0.25100552  0.49991512  0.87461733  1
  Mn  Mn115  1  0.49975391  -0.00074331  0.24946024  1
  Mn  Mn116  1  0.75082690  0.66615281  0.12504612  1
  Mn  Mn117  1  -0.00009861  0.16705450  0.75000983  1
  Mn  Mn118  1  0.74929504  0.66536270  0.37494127  1
  Mn  Mn119  1  0.24953950  0.66655250  0.62595493  1
  Mn  Mn120  1  0.00019272  0.16736036  0.00041079  1
  Mn  Mn121  1  0.74993104  0.16600221  0.62460374  1
  Mn  Mn122  1  0.50000938  0.66657828  0.25004618  1
  Mn  Mn123  1  0.49962075  0.16698290  0.24899768  1
  Mn  Mn124  1  0.24984610  0.33320623  0.37503315  1
  Mn  Mn125  1  0.25035624  0.66719676  0.37474923  1
  Mn  Mn126  1  0.75058241  0.83262336  0.87522756  1
  Mn  Mn127  1  0.25037055  0.16601300  0.12417644  1
  Mn  Mn128  1  0.49983018  0.66676655  0.00068556  1
  Mn  Mn129  1  -0.00046078  0.50121700  0.74955193  1
  Mn  Mn130  1  0.24992691  0.50045670  0.37464575  1
  Mn  Mn131  1  0.24931498  0.83454012  0.37549811  1
  Mn  Mn132  1  0.25112083  0.66784817  0.87508841  1
  Mn  Mn133  1  -0.00031648  0.83200392  0.50011343  1
  Mn  Mn134  1  -0.00009675  0.33431381  0.75032481  1
  Mn  Mn135  1  0.49993482  0.66815650  0.75112570  1
  Mn  Mn136  1  0.74998539  0.16707292  0.12538996  1
  Mn  Mn137  1  0.75062058  0.00015496  0.87469967  1
  Mn  Mn138  1  -0.00040921  -0.00015408  0.75008168  1
  Mn  Mn139  1  0.24967279  0.33379199  0.62465029  1
  Mn  Mn140  1  0.74919065  -0.00150036  0.62563559  1
  Mn  Mn141  1  0.25077969  0.33410284  0.12446051  1
  Mn  Mn142  1  0.50081877  0.49967849  0.75030862  1
  Mn  Mn143  1  0.24973800  0.83431183  0.62541901  1
  Fe  Fe144  1  0.75051071  0.33291351  0.37476912  1
  Fe  Fe145  1  -0.00027962  0.66574879  0.49890252  1
  Fe  Fe146  1  0.50070843  0.49939981  0.25024907  1
  Fe  Fe147  1  -0.00025769  0.16681511  0.24986933  1
  Fe  Fe148  1  0.49983872  0.33291542  0.75021770  1
  Fe  Fe149  1  0.74989693  0.66651454  0.87544339  1
  Fe  Fe150  1  0.75000086  0.16668718  0.87546854  1
  Fe  Fe151  1  0.50029274  0.16663711  0.50016597  1
  Fe  Fe152  1  0.00046124  0.50068356  0.00073706  1
  Fe  Fe153  1  0.49963162  0.83351347  0.50017388  1
  Fe  Fe154  1  0.00082766  0.33433005  0.00113144  1
  Fe  Fe155  1  0.00036822  0.66710600  0.00066541  1
  Fe  Fe156  1  0.75018889  0.49974625  0.87549850  1
  Fe  Fe157  1  0.24964418  0.00066516  0.87559251  1
  Fe  Fe158  1  0.49944483  0.83361994  0.00001734  1
  Fe  Fe159  1  0.74937076  0.83276364  0.12487486  1
  Fe  Fe160  1  0.50037574  0.66698979  0.50002295  1
  Fe  Fe161  1  0.49953609  0.83438062  0.74986345  1
  Fe  Fe162  1  0.24909548  -0.00014766  0.12484125  1
  Fe  Fe163  1  0.49995582  -0.00006285  -0.00057611  1
  Fe  Fe164  1  0.49974041  0.00016963  0.50014073  1
  Fe  Fe165  1  0.50024556  0.16723343  -0.00081851  1
  Fe  Fe166  1  0.24974848  0.83471602  0.87604390  1
  Fe  Fe167  1  0.75024916  0.83231537  0.62536257  1
  Fe  Fe168  1  0.00057247  0.50011161  0.24980257  1
  Fe  Fe169  1  0.75021229  0.33324720  0.12466493  1
  Fe  Fe170  1  0.74927394  -0.00003066  0.12445326  1
  Fe  Fe171  1  0.24999867  0.33412009  0.87455719  1
  Fe  Fe172  1  0.50066653  0.33303165  0.24945018  1
  Fe  Fe173  1  0.24979662  0.83449825  0.12538100  1
  Fe  Fe174  1  0.24953881  0.16732035  0.62531700  1
  Fe  Fe175  1  0.50063455  0.49936927  0.00054870  1
  Fe  Fe176  1  0.75024001  0.49876123  0.37437439  1
  Fe  Fe177  1  0.49973912  0.16658077  0.75014766  1
  Fe  Fe178  1  -0.00044999  0.83310587  0.00059034  1
  Fe  Fe179  1  -0.00088090  0.00022512  0.00061130  1
  Fe  Fe180  1  -0.00001270  0.66657569  0.75052038  1
  Fe  Fe181  1  0.25005893  0.50025792  0.62509583  1
  Fe  Fe182  1  0.00046473  0.33322429  0.49911218  1
  Fe  Fe183  1  0.00014807  0.83264002  0.24969123  1
  Fe  Fe184  1  0.00006687  0.66614199  0.24943521  1
  Fe  Fe185  1  0.00050459  0.33394517  0.25010265  1
  Fe  Fe186  1  0.49997541  0.83294152  0.25043593  1
  Fe  Fe187  1  0.25045056  0.50041639  0.12453714  1
  Fe  Fe188  1  0.50038326  0.33336430  -0.00026783  1
  Fe  Fe189  1  0.25009349  0.00030711  0.37509602  1
  Fe  Fe190  1  0.00006068  0.50008796  0.49932276  1
  Fe  Fe191  1  -0.00031895  -0.00063571  0.49934153  1
  P  P192  1  0.04251843  0.25197348  0.10363402  1
  P  P193  1  0.04143386  0.25003646  0.35149296  1
  P  P194  1  0.04239387  0.25153500  0.60183201  1
  P  P195  1  0.04281515  0.25076456  0.85387975  1
  P  P196  1  0.04175247  0.58426739  0.10234708  1
  P  P197  1  0.04156504  0.58309389  0.35152727  1
  P  P198  1  0.04113110  0.58379914  0.60131274  1
  P  P199  1  0.04206113  0.58502661  0.85342038  1
  P  P200  1  0.04049822  0.91660197  0.10199968  1
  P  P201  1  0.04188939  0.91469526  0.35234489  1
  P  P202  1  0.04206936  0.91722487  0.60214661  1
  P  P203  1  0.04193761  0.91655985  0.85455793  1
  P  P204  1  0.54173431  0.25014877  0.10117874  1
  P  P205  1  0.54230330  0.25037591  0.35212405  1
  P  P206  1  0.54205051  0.24851915  0.60312704  1
  P  P207  1  0.54105097  0.24985084  0.85226395  1
  P  P208  1  0.54229349  0.58159865  0.10320450  1
  P  P209  1  0.54239166  0.58231771  0.35264488  1
  P  P210  1  0.54229151  0.58499632  0.60268272  1
  P  P211  1  0.54258179  0.58320497  0.85416101  1
  P  P212  1  0.54089233  0.91644967  0.10142827  1
  P  P213  1  0.54202751  0.91497434  0.35299284  1
  P  P214  1  0.54089641  0.91697944  0.60176641  1
  P  P215  1  0.54168618  0.91574625  0.85317981  1
  P  P216  1  0.45757719  0.08321485  0.14547839  1
  P  P217  1  0.45876715  0.08352875  0.39835874  1
  P  P218  1  0.45754912  0.08483307  0.64726938  1
  P  P219  1  0.45869413  0.08391814  0.89805643  1
  P  P220  1  0.45960087  0.41639608  0.14764595  1
  P  P221  1  0.45754494  0.41660019  0.39600340  1
  P  P222  1  0.45791851  0.41528188  0.64789117  1
  P  P223  1  0.45908334  0.41643491  0.89829555  1
  P  P224  1  0.45790707  0.75152077  0.14742314  1
  P  P225  1  0.45836602  0.75012601  0.39838421  1
  P  P226  1  0.45778439  0.75226173  0.64716842  1
  P  P227  1  0.45745660  0.75162123  0.89782538  1
  P  P228  1  0.95777192  0.08464485  0.14725793  1
  P  P229  1  0.95756247  0.08173990  0.39675934  1
  P  P230  1  0.95704821  0.08332245  0.64617089  1
  P  P231  1  0.95723147  0.08253016  0.89820937  1
  P  P232  1  0.95935217  0.41723101  0.14810275  1
  P  P233  1  0.95946505  0.41626948  0.39727855  1
  P  P234  1  0.95721013  0.41714069  0.64596318  1
  P  P235  1  0.95911082  0.41728214  0.89930801  1
  P  P236  1  0.95887547  0.74964671  0.14772649  1
  P  P237  1  0.95775004  0.74770213  0.39635146  1
  P  P238  1  0.95775534  0.74788426  0.64756769  1
  P  P239  1  0.95864344  0.74948783  0.89885742  1
  P  P240  1  0.20750617  0.08182236  0.22719203  1
  P  P241  1  0.20745806  0.08257588  0.47735259  1
  P  P242  1  0.20731086  0.08529959  0.72802297  1
  P  P243  1  0.20741198  0.08190368  0.97804660  1
  P  P244  1  0.20785069  0.41843283  0.22683990  1
  P  P245  1  0.20699416  0.41707074  0.47832999  1
  P  P246  1  0.20736219  0.41824375  0.72745227  1
  P  P247  1  0.20834943  0.41618124  0.97760887  1
  P  P248  1  0.20763791  0.75190926  0.22704350  1
  P  P249  1  0.20686611  0.74996266  0.47824666  1
  P  P250  1  0.20724589  0.75142033  0.72923940  1
  P  P251  1  0.20832751  0.75202327  0.97821978  1
  P  P252  1  0.70703518  0.08187303  0.22679641  1
  P  P253  1  0.70680365  0.08234807  0.47780762  1
  P  P254  1  0.70676665  0.08322194  0.72869226  1
  P  P255  1  0.70812792  0.08411943  0.97783920  1
  P  P256  1  0.70851943  0.41456527  0.22791742  1
  P  P257  1  0.70829069  0.41609319  0.47610023  1
  P  P258  1  0.70705867  0.41681113  0.72893181  1
  P  P259  1  0.70824197  0.41719461  0.97768013  1
  P  P260  1  0.70753082  0.75007979  0.22703635  1
  P  P261  1  0.70713094  0.74956325  0.47840327  1
  P  P262  1  0.70776483  0.75020551  0.72796178  1
  P  P263  1  0.70791101  0.74888547  0.97805014  1
  P  P264  1  0.29285408  0.25015787  0.02100809  1
  P  P265  1  0.29296272  0.25016473  0.27134438  1
  P  P266  1  0.29215922  0.24853334  0.52249596  1
  P  P267  1  0.29199527  0.25163812  0.77243198  1
  P  P268  1  0.29297736  0.58249589  0.02252287  1
  P  P269  1  0.29304965  0.58388308  0.27103952  1
  P  P270  1  0.29242769  0.58241105  0.52290287  1
  P  P271  1  0.29354628  0.58376192  0.77165429  1
  P  P272  1  0.29087382  0.91719724  0.02305337  1
  P  P273  1  0.29202629  0.91850646  0.27219392  1
  P  P274  1  0.29265178  0.91765070  0.52191285  1
  P  P275  1  0.29164555  0.91792220  0.77426236  1
  P  P276  1  0.79264059  0.25110410  0.02247776  1
  P  P277  1  0.79206520  0.25091308  0.27206336  1
  P  P278  1  0.79245596  0.25021970  0.52112073  1
  P  P279  1  0.79265298  0.24839915  0.77289288  1
  P  P280  1  0.79301230  0.58297267  0.02113411  1
  P  P281  1  0.79259653  0.58126445  0.27248542  1
  P  P282  1  0.79246278  0.58205048  0.52114709  1
  P  P283  1  0.79171563  0.58320994  0.77409486  1
  P  P284  1  0.79109177  0.91623140  0.02359739  1
  P  P285  1  0.79240949  0.91612584  0.27022249  1
  P  P286  1  0.79225809  0.91436891  0.52281620  1
  P  P287  1  0.79325747  0.91576350  0.77177524  1
  O  O288  1  0.03686670  0.25167972  0.18344944  1
  O  O289  1  0.03627303  0.25024155  0.43142347  1
  O  O290  1  0.03729470  0.25129613  0.68177867  1
  O  O291  1  0.03779016  0.25106947  0.93383491  1
  O  O292  1  0.03671489  0.58393292  0.18215806  1
  O  O293  1  0.03643819  0.58282662  0.43136265  1
  O  O294  1  0.03642095  0.58386241  0.68125518  1
  O  O295  1  0.03703354  0.58481714  0.93325095  1
  O  O296  1  0.03582158  0.91584480  0.18194398  1
  O  O297  1  0.03662847  0.91506074  0.43221088  1
  O  O298  1  0.03694933  0.91707390  0.68210158  1
  O  O299  1  0.03618646  0.91682496  0.93439070  1
  O  O300  1  0.53690125  0.25085520  0.18107848  1
  O  O301  1  0.53718525  0.24950452  0.43200313  1
  O  O302  1  0.53660629  0.24900387  0.68296072  1
  O  O303  1  0.53603823  0.24954559  0.93212649  1
  O  O304  1  0.53699395  0.58155804  0.18314053  1
  O  O305  1  0.53725479  0.58293619  0.43254451  1
  O  O306  1  0.53721017  0.58491291  0.68262796  1
  O  O307  1  0.53710605  0.58257041  0.93405924  1
  O  O308  1  0.53640624  0.91652314  0.18135557  1
  O  O309  1  0.53669734  0.91514234  0.43276502  1
  O  O310  1  0.53599346  0.91726305  0.68170914  1
  O  O311  1  0.53633494  0.91593613  0.93300778  1
  O  O312  1  0.46304008  0.08324685  0.06567529  1
  O  O313  1  0.46367347  0.08300042  0.31841265  1
  O  O314  1  0.46269335  0.08474814  0.56746859  1
  O  O315  1  0.46332607  0.08379893  0.81809755  1
  O  O316  1  0.46487049  0.41686042  0.06778254  1
  O  O317  1  0.46312079  0.41671763  0.31614358  1
  O  O318  1  0.46286439  0.41558554  0.56796058  1
  O  O319  1  0.46376490  0.41579050  0.81839114  1
  O  O320  1  0.46315562  0.75146397  0.06752646  1
  O  O321  1  0.46361208  0.75008179  0.31843990  1
  O  O322  1  0.46326093  0.75188743  0.56735767  1
  O  O323  1  0.46261174  0.75193234  0.81790483  1
  O  O324  1  0.96326492  0.08413436  0.06738419  1
  O  O325  1  0.96298015  0.08237870  0.31687270  1
  O  O326  1  0.96222703  0.08291841  0.56622331  1
  O  O327  1  0.96230255  0.08280646  0.81826121  1
  O  O328  1  0.96452589  0.41726043  0.06826172  1
  O  O329  1  0.96478401  0.41639981  0.31745366  1
  O  O330  1  0.96246558  0.41682944  0.56613877  1
  O  O331  1  0.96332895  0.41770339  0.81931299  1
  O  O332  1  0.96401761  0.74992419  0.06786256  1
  O  O333  1  0.96333071  0.74817100  0.31655409  1
  O  O334  1  0.96279960  0.74777023  0.56765231  1
  O  O335  1  0.96335745  0.74951666  0.81894691  1
  O  O336  1  0.21266297  0.08153988  0.05794711  1
  O  O337  1  0.21275946  0.08169485  0.30711737  1
  O  O338  1  0.21245106  0.08375677  0.55729942  1
  O  O339  1  0.21256740  0.08454325  0.80795026  1
  O  O340  1  0.21373750  0.41707440  0.05752174  1
  O  O341  1  0.21256849  0.41808023  0.30683025  1
  O  O342  1  0.21218926  0.41760060  0.55827498  1
  O  O343  1  0.21272141  0.41749177  0.80739501  1
  O  O344  1  0.21361844  0.75205046  0.05815221  1
  O  O345  1  0.21250941  0.75148847  0.30700354  1
  O  O346  1  0.21173139  0.74986475  0.55822482  1
  O  O347  1  0.21281485  0.75190978  0.80917500  1
  O  O348  1  0.71351645  0.08337747  0.05777653  1
  O  O349  1  0.71197186  0.08201278  0.30676431  1
  O  O350  1  0.71186281  0.08234665  0.55776181  1
  O  O351  1  0.71217261  0.08389515  0.80864840  1
  O  O352  1  0.71342177  0.41627192  0.05760668  1
  O  O353  1  0.71385217  0.41468462  0.30780442  1
  O  O354  1  0.71284237  0.41619316  0.55615472  1
  O  O355  1  0.71242354  0.41732846  0.80884674  1
  O  O356  1  0.71324034  0.74975163  0.05795393  1
  O  O357  1  0.71233233  0.74975605  0.30700631  1
  O  O358  1  0.71249469  0.75001329  0.55834368  1
  O  O359  1  0.71307842  0.74939634  0.80792338  1
  O  O360  1  0.28805419  0.25024055  0.19139410  1
  O  O361  1  0.28719963  0.24860833  0.44251019  1
  O  O362  1  0.28651406  0.25101035  0.69252179  1
  O  O363  1  0.28727621  0.25081312  0.94114082  1
  O  O364  1  0.28790458  0.58354241  0.19108204  1
  O  O365  1  0.28737943  0.58293548  0.44289456  1
  O  O366  1  0.28816208  0.58311366  0.69173156  1
  O  O367  1  0.28810905  0.58287401  0.94255464  1
  O  O368  1  0.28650172  0.91805919  0.19231568  1
  O  O369  1  0.28753327  0.91801797  0.44200357  1
  O  O370  1  0.28688443  0.91802290  0.69429655  1
  O  O371  1  0.28565450  0.91711905  0.94318570  1
  O  O372  1  0.78694722  0.25123301  0.19211531  1
  O  O373  1  0.78708872  0.25077165  0.44116381  1
  O  O374  1  0.78754542  0.24878805  0.69292133  1
  O  O375  1  0.78743509  0.25018597  0.94255349  1
  O  O376  1  0.78792844  0.58160442  0.19249497  1
  O  O377  1  0.78715710  0.58141000  0.44124393  1
  O  O378  1  0.78678764  0.58320909  0.69406839  1
  O  O379  1  0.78757768  0.58309945  0.94128095  1
  O  O380  1  0.78680392  0.91624557  0.19032844  1
  O  O381  1  0.78724141  0.91475326  0.44281230  1
  O  O382  1  0.78802203  0.91507951  0.69186485  1
  O  O383  1  0.78666692  0.91634807  0.94356015  1
  O  O384  1  0.22866072  0.25018515  0.05655503  1
  O  O385  1  0.22845071  0.24976774  0.30610280  1
  O  O386  1  0.22775955  0.24884155  0.55774952  1
  O  O387  1  0.22780430  0.25196967  0.80831930  1
  O  O388  1  0.22855726  0.58247694  0.05769033  1
  O  O389  1  0.22856067  0.58412972  0.30595855  1
  O  O390  1  0.22799607  0.58184787  0.55820594  1
  O  O391  1  0.22922943  0.58409571  0.80688366  1
  O  O392  1  0.22678016  0.91694721  0.05935019  1
  O  O393  1  0.22781869  0.91924174  0.30820157  1
  O  O394  1  0.22825404  0.91785521  0.55701591  1
  O  O395  1  0.22732271  0.91818121  0.80976234  1
  O  O396  1  0.72826337  0.25153756  0.05791833  1
  O  O397  1  0.72776181  0.25111191  0.30749121  1
  O  O398  1  0.72814042  0.24980607  0.55650398  1
  O  O399  1  0.72823545  0.24839819  0.80816986  1
  O  O400  1  0.72884530  0.58274756  0.05683073  1
  O  O401  1  0.72812890  0.58060302  0.30750216  1
  O  O402  1  0.72816742  0.58289951  0.55652731  1
  O  O403  1  0.72750925  0.58328339  0.80984138  1
  O  O404  1  0.72675071  0.91610839  0.05887228  1
  O  O405  1  0.72815441  0.91597507  0.30580428  1
  O  O406  1  0.72787833  0.91365263  0.55823799  1
  O  O407  1  0.72886551  0.91608770  0.80685834  1
  O  O408  1  0.27180421  0.08143772  0.19162922  1
  O  O409  1  0.27192491  0.08184179  0.44204316  1
  O  O410  1  0.27166706  0.08591245  0.69247659  1
  O  O411  1  0.27166228  0.08217269  0.94237196  1
  O  O412  1  0.27238050  0.41899197  0.19190438  1
  O  O413  1  0.27141153  0.41681049  0.44323206  1
  O  O414  1  0.27168578  0.41861349  0.69186815  1
  O  O415  1  0.27260783  0.41519071  0.94190332  1
  O  O416  1  0.27204158  0.75215650  0.19187961  1
  O  O417  1  0.27139766  0.75060470  0.44352729  1
  O  O418  1  0.27149207  0.75078941  0.69375009  1
  O  O419  1  0.27251718  0.75247595  0.94247854  1
  O  O420  1  0.77146016  0.08196470  0.19172528  1
  O  O421  1  0.77123729  0.08283439  0.44281451  1
  O  O422  1  0.77109485  0.08247941  0.69343939  1
  O  O423  1  0.77232710  0.08475791  0.94203369  1
  O  O424  1  0.77276802  0.41400055  0.19205368  1
  O  O425  1  0.77265238  0.41648254  0.44066182  1
  O  O426  1  0.77144352  0.41651077  0.69375459  1
  O  O427  1  0.77251245  0.41733729  0.94216647  1
  O  O428  1  0.77202747  0.75088111  0.19211350  1
  O  O429  1  0.77142880  0.74892606  0.44303797  1
  O  O430  1  0.77208282  0.75082267  0.69231204  1
  O  O431  1  0.77215896  0.74798168  0.94233124  1
  O  O432  1  0.02192189  0.08471312  0.18337046  1
  O  O433  1  0.02175470  0.08168324  0.43284446  1
  O  O434  1  0.02142667  0.08357333  0.68164073  1
  O  O435  1  0.02159941  0.08215100  0.93377068  1
  O  O436  1  0.02336794  0.41701210  0.18456629  1
  O  O437  1  0.02329520  0.41601604  0.43416530  1
  O  O438  1  0.02148978  0.41767443  0.68182159  1
  O  O439  1  0.02342243  0.41660576  0.93487807  1
  O  O440  1  0.02293933  0.74925497  0.18416424  1
  O  O441  1  0.02182031  0.74771384  0.43288285  1
  O  O442  1  0.02209086  0.74784027  0.68341650  1
  O  O443  1  0.02283116  0.74942539  0.93486237  1
  O  O444  1  0.52172807  0.08308251  0.18151484  1
  O  O445  1  0.52285349  0.08398938  0.43453813  1
  O  O446  1  0.52175033  0.08462945  0.68343589  1
  O  O447  1  0.52286693  0.08430630  0.93399636  1
  O  O448  1  0.52354065  0.41578622  0.18443234  1
  O  O449  1  0.52172514  0.41656961  0.43197234  1
  O  O450  1  0.52229681  0.41453413  0.68343913  1
  O  O451  1  0.52330189  0.41694531  0.93421246  1
  O  O452  1  0.52215414  0.75136941  0.18333599  1
  O  O453  1  0.52245978  0.75010409  0.43472868  1
  O  O454  1  0.52191596  0.75260882  0.68361098  1
  O  O455  1  0.52175710  0.75147266  0.93359111  1
  O  O456  1  0.47757204  0.24950243  0.06514431  1
  O  O457  1  0.47803654  0.25152912  0.31622628  1
  O  O458  1  0.47787549  0.24813441  0.56679784  1
  O  O459  1  0.47704033  0.25058112  0.81569856  1
  O  O460  1  0.47810159  0.58160162  0.06721233  1
  O  O461  1  0.47815943  0.58220727  0.31680937  1
  O  O462  1  0.47796521  0.58529688  0.56695325  1
  O  O463  1  0.47842240  0.58339050  0.81829881  1
  O  O464  1  0.47663293  0.91643519  0.06566713  1
  O  O465  1  0.47781929  0.91482583  0.31672055  1
  O  O466  1  0.47681072  0.91661680  0.56557439  1
  O  O467  1  0.47751613  0.91576886  0.81693673  1
  O  O468  1  0.97843606  0.25228424  0.06718951  1
  O  O469  1  0.97734499  0.25004476  0.31521130  1
  O  O470  1  0.97805347  0.25172186  0.56615012  1
  O  O471  1  0.97836457  0.25048097  0.81861053  1
  O  O472  1  0.97771618  0.58473065  0.06595938  1
  O  O473  1  0.97750744  0.58347016  0.31506994  1
  O  O474  1  0.97701480  0.58394580  0.56510953  1
  O  O475  1  0.97778072  0.58522454  0.81733127  1
  O  O476  1  0.97630075  0.91713103  0.06614534  1
  O  O477  1  0.97769272  0.91450190  0.31632778  1
  O  O478  1  0.97775637  0.91714696  0.56640747  1
  O  O479  1  0.97787585  0.91612050  0.81828030  1
  O  O480  1  0.07362619  0.31533174  0.07504419  1
  O  O481  1  0.07272220  0.31347282  0.32342886  1
  O  O482  1  0.07322854  0.31500963  0.57340039  1
  O  O483  1  0.07385766  0.31409934  0.82535666  1
  O  O484  1  0.07330806  0.64755278  0.07420077  1
  O  O485  1  0.07288631  0.64642106  0.32308263  1
  O  O486  1  0.07248340  0.64706136  0.57298425  1
  O  O487  1  0.07290748  0.64842112  0.82448467  1
  O  O488  1  0.07151225  0.98040715  0.07440260  1
  O  O489  1  0.07311500  0.97818916  0.32435770  1
  O  O490  1  0.07256824  0.98086807  0.57355223  1
  O  O491  1  0.07311099  0.97993865  0.82610389  1
  O  O492  1  0.57222201  0.31380370  0.07225924  1
  O  O493  1  0.57351495  0.31378798  0.32400631  1
  O  O494  1  0.57315610  0.31207136  0.57475665  1
  O  O495  1  0.57248074  0.31326657  0.82417205  1
  O  O496  1  0.57317496  0.64558755  0.07577033  1
  O  O497  1  0.57377792  0.64568063  0.32449870  1
  O  O498  1  0.57306358  0.64847467  0.57416098  1
  O  O499  1  0.57354406  0.64703379  0.82663702  1
  O  O500  1  0.57130253  0.98030917  0.07264288  1
  O  O501  1  0.57310529  0.97858622  0.32476952  1
  O  O502  1  0.57109149  0.98107667  0.57333427  1
  O  O503  1  0.57295003  0.97929922  0.82514988  1
  O  O504  1  0.42617778  0.02006269  0.17416262  1
  O  O505  1  0.42849197  0.01955644  0.42681265  1
  O  O506  1  0.42622851  0.02133589  0.67542908  1
  O  O507  1  0.42856088  0.01974645  0.92641677  1
  O  O508  1  0.42824983  0.35279443  0.17546645  1
  O  O509  1  0.42623962  0.35318571  0.42427031  1
  O  O510  1  0.42672901  0.35196967  0.67616675  1
  O  O511  1  0.42860037  0.35273802  0.92718288  1
  O  O512  1  0.42682555  0.68773699  0.17501828  1
  O  O513  1  0.42787726  0.68609993  0.42643469  1
  O  O514  1  0.42667187  0.68873469  0.67546784  1
  O  O515  1  0.42647348  0.68776843  0.92541823  1
  O  O516  1  0.92627305  0.02127066  0.17499136  1
  O  O517  1  0.92706032  0.01784640  0.42492253  1
  O  O518  1  0.92581478  0.02007077  0.67462840  1
  O  O519  1  0.92628298  0.01904741  0.92658971  1
  O  O520  1  0.92804967  0.35386063  0.17648205  1
  O  O521  1  0.92807077  0.35282505  0.42532891  1
  O  O522  1  0.92624846  0.35377061  0.67486116  1
  O  O523  1  0.92784123  0.35385328  0.92731457  1
  O  O524  1  0.92754030  0.68614550  0.17574559  1
  O  O525  1  0.92691538  0.68412870  0.42478262  1
  O  O526  1  0.92686692  0.68464151  0.67657872  1
  O  O527  1  0.92744439  0.68623197  0.92731181  1
  O  O528  1  0.17606947  0.01878472  0.19847373  1
  O  O529  1  0.17670667  0.01886593  0.44922235  1
  O  O530  1  0.17629078  0.02176616  0.69972309  1
  O  O531  1  0.17652924  0.01865426  0.94908883  1
  O  O532  1  0.17719965  0.35457723  0.19898101  1
  O  O533  1  0.17621898  0.35323945  0.45032112  1
  O  O534  1  0.17616519  0.35482965  0.69918834  1
  O  O535  1  0.17726728  0.35268002  0.94943670  1
  O  O536  1  0.17667765  0.68833439  0.19888563  1
  O  O537  1  0.17637845  0.68628103  0.44970051  1
  O  O538  1  0.17590442  0.68787885  0.70140349  1
  O  O539  1  0.17771318  0.68794290  0.95060340  1
  O  O540  1  0.67635057  0.01839749  0.19798686  1
  O  O541  1  0.67618198  0.01858864  0.44973727  1
  O  O542  1  0.67544856  0.01954319  0.70104323  1
  O  O543  1  0.67705127  0.02059331  0.94970757  1
  O  O544  1  0.67719216  0.35150840  0.19884784  1
  O  O545  1  0.67789039  0.35213370  0.44799444  1
  O  O546  1  0.67613020  0.35307365  0.70098863  1
  O  O547  1  0.67674036  0.35396359  0.94940893  1
  O  O548  1  0.67704938  0.68606205  0.19925374  1
  O  O549  1  0.67587123  0.68604213  0.45037323  1
  O  O550  1  0.67671369  0.68670343  0.69969129  1
  O  O551  1  0.67685927  0.68531932  0.94995397  1
  O  O552  1  0.32451525  0.31312681  0.04956051  1
  O  O553  1  0.32359124  0.31377479  0.29978420  1
  O  O554  1  0.32348339  0.31212184  0.55013964  1
  O  O555  1  0.32264491  0.31543912  0.80061057  1
  O  O556  1  0.32409644  0.64615269  0.05023205  1
  O  O557  1  0.32395348  0.64762562  0.29916913  1
  O  O558  1  0.32313311  0.64621645  0.55089369  1
  O  O559  1  0.32467761  0.64736724  0.79964092  1
  O  O560  1  0.32169976  0.98092395  0.05128788  1
  O  O561  1  0.32341410  0.98169952  0.30081767  1
  O  O562  1  0.32407687  0.98073115  0.55057396  1
  O  O563  1  0.32254326  0.98161376  0.80244527  1
  O  O564  1  0.82337203  0.31485106  0.05058089  1
  O  O565  1  0.82339019  0.31384445  0.30118529  1
  O  O566  1  0.82347444  0.31353649  0.54987257  1
  O  O567  1  0.82386497  0.31204258  0.80067787  1
  O  O568  1  0.82418458  0.64631164  0.04978719  1
  O  O569  1  0.82309763  0.64518791  0.30037218  1
  O  O570  1  0.82386273  0.64551584  0.54903091  1
  O  O571  1  0.82245653  0.64699081  0.80210437  1
  O  O572  1  0.82164788  0.98012059  0.05169643  1
  O  O573  1  0.82354105  0.97951216  0.29890636  1
  O  O574  1  0.82277318  0.97833428  0.55064840  1
  O  O575  1  0.82425664  0.97944896  0.79974740  1
  O  O576  1  0.42647153  0.14671707  0.17380911  1
  O  O577  1  0.42760140  0.14715582  0.42587680  1
  O  O578  1  0.42687333  0.14816444  0.67652230  1
  O  O579  1  0.42725314  0.14717054  0.92611592  1
  O  O580  1  0.42900358  0.48007765  0.17635731  1
  O  O581  1  0.42618469  0.47983407  0.42454676  1
  O  O582  1  0.42751627  0.47927555  0.67574060  1
  O  O583  1  0.42805540  0.48004226  0.92637648  1
  O  O584  1  0.42711807  0.81486511  0.17618248  1
  O  O585  1  0.42711826  0.81354357  0.42638348  1
  O  O586  1  0.42679813  0.81574758  0.67570228  1
  O  O587  1  0.42648487  0.81485234  0.92664509  1
  O  O588  1  0.92724283  0.14844669  0.17550232  1
  O  O589  1  0.92609892  0.14512205  0.42457205  1
  O  O590  1  0.92616474  0.14705039  0.67417622  1
  O  O591  1  0.92641116  0.14623758  0.92607446  1
  O  O592  1  0.92863436  0.48100721  0.17649471  1
  O  O593  1  0.92889770  0.48013181  0.42568113  1
  O  O594  1  0.92586046  0.48043210  0.67450939  1
  O  O595  1  0.92914872  0.48136980  0.92788945  1
  O  O596  1  0.92825444  0.81337728  0.17632738  1
  O  O597  1  0.92634761  0.81104042  0.42464736  1
  O  O598  1  0.92704240  0.81178468  0.67534939  1
  O  O599  1  0.92820762  0.81342759  0.92735570  1
  O  O600  1  0.07364930  0.18832492  0.07573429  1
  O  O601  1  0.07196857  0.18602750  0.32353255  1
  O  O602  1  0.07332749  0.18787347  0.57393181  1
  O  O603  1  0.07369901  0.18708544  0.82580826  1
  O  O604  1  0.07208450  0.52040414  0.07347641  1
  O  O605  1  0.07217444  0.51934852  0.32285547  1
  O  O606  1  0.07134013  0.51976017  0.57283979  1
  O  O607  1  0.07302587  0.52146216  0.82500470  1
  O  O608  1  0.07103328  0.85293072  0.07323688  1
  O  O609  1  0.07261786  0.85108635  0.32390629  1
  O  O610  1  0.07322301  0.85350854  0.57473555  1
  O  O611  1  0.07338873  0.85320806  0.82645447  1
  O  O612  1  0.57285275  0.18653748  0.07333495  1
  O  O613  1  0.57287079  0.18667562  0.32365112  1
  O  O614  1  0.57308842  0.18517821  0.57447895  1
  O  O615  1  0.57133979  0.18593459  0.82361926  1
  O  O616  1  0.57341814  0.51837218  0.07462461  1
  O  O617  1  0.57305278  0.51862439  0.32429311  1
  O  O618  1  0.57312045  0.52107827  0.57520561  1
  O  O619  1  0.57395629  0.52010274  0.82563273  1
  O  O620  1  0.57205522  0.85302123  0.07327477  1
  O  O621  1  0.57285413  0.85157167  0.32404714  1
  O  O622  1  0.57237051  0.85373702  0.57377267  1
  O  O623  1  0.57257184  0.85236695  0.82440485  1
  O  O624  1  0.32360608  0.18622780  0.04862126  1
  O  O625  1  0.32420601  0.18665763  0.29925057  1
  O  O626  1  0.32247073  0.18491059  0.55137889  1
  O  O627  1  0.32329857  0.18826521  0.80059077  1
  O  O628  1  0.32351583  0.51878752  0.05090314  1
  O  O629  1  0.32423343  0.52072629  0.29974849  1
  O  O630  1  0.32336696  0.51886666  0.55109434  1
  O  O631  1  0.32483060  0.52051879  0.80019332  1
  O  O632  1  0.32198143  0.85376430  0.05176760  1
  O  O633  1  0.32276183  0.85471982  0.30049299  1
  O  O634  1  0.32329717  0.85385633  0.55005614  1
  O  O635  1  0.32210411  0.85410208  0.80263981  1
  O  O636  1  0.82376543  0.18778610  0.05108946  1
  O  O637  1  0.82267235  0.18674018  0.29946661  1
  O  O638  1  0.82366290  0.18657315  0.54879573  1
  O  O639  1  0.82319067  0.18483881  0.80153357  1
  O  O640  1  0.82437425  0.51965845  0.04958459  1
  O  O641  1  0.82353728  0.51778838  0.30080679  1
  O  O642  1  0.82327902  0.51869402  0.54998764  1
  O  O643  1  0.82242651  0.51936111  0.80215534  1
  O  O644  1  0.82183038  0.85241478  0.05158462  1
  O  O645  1  0.82376939  0.85280307  0.29863249  1
  O  O646  1  0.82337146  0.85095440  0.55103774  1
  O  O647  1  0.82452058  0.85266493  0.80070932  1
  O  O648  1  0.17695136  0.14587520  0.19939990  1
  O  O649  1  0.17646714  0.14589265  0.44842789  1
  O  O650  1  0.17657738  0.14893504  0.69958152  1
  O  O651  1  0.17630948  0.14574000  0.95063045  1
  O  O652  1  0.17704483  0.48190816  0.19819284  1
  O  O653  1  0.17573299  0.48019117  0.44961940  1
  O  O654  1  0.17667483  0.48201930  0.69929821  1
  O  O655  1  0.17749085  0.47984521  0.94943606  1
  O  O656  1  0.17686601  0.81550238  0.19872126  1
  O  O657  1  0.17549808  0.81329097  0.45015150  1
  O  O658  1  0.17622502  0.81483272  0.70078590  1
  O  O659  1  0.17702941  0.81519868  0.94966623  1
  O  O660  1  0.67596441  0.14561737  0.19914827  1
  O  O661  1  0.67554007  0.14568342  0.44955631  1
  O  O662  1  0.67581087  0.14646507  0.69988032  1
  O  O663  1  0.67735412  0.14789350  0.94979529  1
  O  O664  1  0.67777258  0.47839933  0.19979014  1
  O  O665  1  0.67736935  0.47966405  0.44773673  1
  O  O666  1  0.67583614  0.48001900  0.70023262  1
  O  O667  1  0.67772872  0.48106722  0.94958226  1
  O  O668  1  0.67642259  0.81336014  0.19841399  1
  O  O669  1  0.67612781  0.81286094  0.44975869  1
  O  O670  1  0.67697619  0.81388923  0.69977262  1
  O  O671  1  0.67699512  0.81245359  0.94971811  1
