# generated using pymatgen
data_Na2MnFe(PO4)2
_symmetry_space_group_name_H-M   'P 1'
_cell_length_a   22.34661641
_cell_length_b   20.09678590
_cell_length_c   19.44608844
_cell_angle_alpha   89.98777383
_cell_angle_beta   90.05905661
_cell_angle_gamma   89.98091190
_symmetry_Int_Tables_number   1
_chemical_formula_structural   Na2MnFe(PO4)2
_chemical_formula_sum   'Na96 Mn48 Fe48 P96 O384'
_cell_volume   8733.13898396
_cell_formula_units_Z   48
loop_
 _symmetry_equiv_pos_site_id
 _symmetry_equiv_pos_as_xyz
  1  'x, y, z'
loop_
 _atom_site_type_symbol
 _atom_site_label
 _atom_site_symmetry_multiplicity
 _atom_site_fract_x
 _atom_site_fract_y
 _atom_site_fract_z
 _atom_site_occupancy
  Na  Na0  1  0.14062243  0.25079078  0.24433495  1
  Na  Na1  1  0.14015007  0.25051723  0.49309629  1
  Na  Na2  1  0.13983492  0.24959136  0.74316055  1
  Na  Na3  1  0.14049259  0.24916314  0.99335724  1
  Na  Na4  1  0.13967974  0.58413950  0.24375188  1
  Na  Na5  1  0.13985352  0.58445922  0.49258581  1
  Na  Na6  1  0.14032193  0.58465132  0.74400973  1
  Na  Na7  1  0.13991767  0.58445706  0.99487026  1
  Na  Na8  1  0.13987547  0.91559276  0.24476135  1
  Na  Na9  1  0.14037759  0.91612072  0.49477713  1
  Na  Na10  1  0.13987654  0.91664683  0.74536450  1
  Na  Na11  1  0.13984143  0.91590993  0.99411236  1
  Na  Na12  1  0.64041165  0.24977912  0.24305421  1
  Na  Na13  1  0.63971502  0.24987711  0.49162423  1
  Na  Na14  1  0.63963781  0.24963960  0.74236096  1
  Na  Na15  1  0.64037575  0.25007387  0.99339627  1
  Na  Na16  1  0.64031994  0.58251055  0.24163813  1
  Na  Na17  1  0.64018108  0.58413428  0.49198330  1
  Na  Na18  1  0.64007894  0.58501513  0.74443578  1
  Na  Na19  1  0.63993045  0.58329697  0.99417324  1
  Na  Na20  1  0.64050948  0.91528077  0.24409617  1
  Na  Na21  1  0.64023537  0.91747838  0.49409933  1
  Na  Na22  1  0.64002269  0.91772017  0.74470910  1
  Na  Na23  1  0.64009153  0.91499423  0.99427308  1
  Na  Na24  1  0.35954114  0.08162742  0.00592094  1
  Na  Na25  1  0.35994763  0.08238597  0.25686386  1
  Na  Na26  1  0.36041077  0.08230297  0.50771890  1
  Na  Na27  1  0.36009096  0.08146652  0.75651128  1
  Na  Na28  1  0.36039533  0.41619925  0.00628416  1
  Na  Na29  1  0.36023330  0.41708562  0.25550825  1
  Na  Na30  1  0.36047340  0.41648112  0.50530093  1
  Na  Na31  1  0.36031849  0.41602830  0.75556772  1
  Na  Na32  1  0.36023221  0.74905878  0.00683886  1
  Na  Na33  1  0.36008829  0.74830330  0.25588151  1
  Na  Na34  1  0.35987673  0.75018981  0.50635813  1
  Na  Na35  1  0.35992006  0.75064298  0.75660088  1
  Na  Na36  1  0.85943800  0.08282383  0.00717411  1
  Na  Na37  1  0.85912749  0.08302648  0.25586359  1
  Na  Na38  1  0.85955224  0.08390191  0.50578409  1
  Na  Na39  1  0.85955654  0.08349422  0.75607370  1
  Na  Na40  1  0.85927840  0.41754040  0.00713708  1
  Na  Na41  1  0.85969286  0.41729104  0.25635511  1
  Na  Na42  1  0.86012548  0.41727703  0.50533784  1
  Na  Na43  1  0.85975994  0.41737746  0.75541309  1
  Na  Na44  1  0.85935044  0.74969636  0.00862978  1
  Na  Na45  1  0.85983091  0.75040297  0.25706534  1
  Na  Na46  1  0.86005966  0.75171053  0.50612309  1
  Na  Na47  1  0.85959458  0.75116682  0.75680292  1
  Na  Na48  1  0.10914470  0.08262785  0.11835441  1
  Na  Na49  1  0.10938793  0.08306149  0.37003821  1
  Na  Na50  1  0.10942092  0.08276613  0.61859904  1
  Na  Na51  1  0.10913253  0.08328705  0.86941711  1
  Na  Na52  1  0.10961472  0.41840291  0.11879583  1
  Na  Na53  1  0.10973797  0.41833497  0.36849478  1
  Na  Na54  1  0.10890229  0.41664353  0.61780859  1
  Na  Na55  1  0.10928495  0.41702502  0.86953320  1
  Na  Na56  1  0.10905328  0.75149490  0.11917961  1
  Na  Na57  1  0.10932351  0.74999044  0.36890066  1
  Na  Na58  1  0.10946998  0.74973833  0.61833463  1
  Na  Na59  1  0.10939635  0.75088928  0.87029869  1
  Na  Na60  1  0.60931829  0.08306819  0.11870122  1
  Na  Na61  1  0.60963668  0.08222241  0.36926066  1
  Na  Na62  1  0.60942156  0.08347671  0.61863315  1
  Na  Na63  1  0.60934871  0.08369763  0.86785902  1
  Na  Na64  1  0.61006812  0.41744429  0.11740882  1
  Na  Na65  1  0.61005177  0.41578281  0.36636517  1
  Na  Na66  1  0.60944413  0.41603324  0.61728514  1
  Na  Na67  1  0.60949320  0.41696790  0.86930745  1
  Na  Na68  1  0.60984915  0.74846201  0.11770961  1
  Na  Na69  1  0.60959854  0.74879247  0.36781477  1
  Na  Na70  1  0.60942640  0.75034913  0.61895050  1
  Na  Na71  1  0.60981814  0.75041086  0.86982602  1
  Na  Na72  1  0.39107985  0.25087483  0.13075046  1
  Na  Na73  1  0.39140561  0.24837340  0.38155905  1
  Na  Na74  1  0.39136496  0.24896997  0.63070075  1
  Na  Na75  1  0.39099075  0.25044344  0.88010545  1
  Na  Na76  1  0.39068323  0.58237968  0.13125841  1
  Na  Na77  1  0.39099539  0.58134376  0.38048579  1
  Na  Na78  1  0.39112449  0.58266879  0.62998198  1
  Na  Na79  1  0.39137670  0.58334718  0.88180409  1
  Na  Na80  1  0.39028255  0.91480848  0.13154097  1
  Na  Na81  1  0.39049097  0.91555509  0.38273027  1
  Na  Na82  1  0.39014961  0.91696965  0.63280356  1
  Na  Na83  1  0.39000141  0.91606857  0.88160622  1
  Na  Na84  1  0.89053770  0.25077997  0.13095858  1
  Na  Na85  1  0.89059047  0.25175071  0.38120328  1
  Na  Na86  1  0.89032775  0.25061746  0.62938420  1
  Na  Na87  1  0.89041000  0.25037145  0.88100056  1
  Na  Na88  1  0.89000418  0.58489638  0.13300267  1
  Na  Na89  1  0.89057124  0.58347898  0.38122084  1
  Na  Na90  1  0.89054525  0.58269145  0.63004038  1
  Na  Na91  1  0.89001587  0.58478601  0.88247834  1
  Na  Na92  1  0.88972124  0.91637995  0.13202746  1
  Na  Na93  1  0.88978939  0.91642261  0.38201728  1
  Na  Na94  1  0.88993203  0.91702673  0.63078889  1
  Na  Na95  1  0.89007645  0.91742234  0.88365397  1
  Mn  Mn96  1  0.25082659  0.66751953  0.87483218  1
  Mn  Mn97  1  0.24990834  0.50061726  0.62485971  1
  Mn  Mn98  1  0.25045833  0.16540036  0.62493688  1
  Mn  Mn99  1  0.50052905  0.33267794  0.24943629  1
  Mn  Mn100  1  -0.00073133  0.16776028  0.74945581  1
  Mn  Mn101  1  0.50016989  0.83146026  0.25104524  1
  Mn  Mn102  1  0.74993829  0.66712443  0.37435049  1
  Mn  Mn103  1  -0.00090184  0.83320237  0.75083012  1
  Mn  Mn104  1  0.49967102  0.16750992  -0.00110828  1
  Mn  Mn105  1  -0.00096510  -0.00055048  0.24995096  1
  Mn  Mn106  1  0.74951269  0.50137712  0.87591118  1
  Mn  Mn107  1  0.24965243  0.33353605  0.62450372  1
  Mn  Mn108  1  0.25012815  0.16559116  0.12482412  1
  Mn  Mn109  1  0.75002617  0.16651015  0.37406902  1
  Mn  Mn110  1  -0.00056319  0.00031038  0.75027786  1
  Mn  Mn111  1  -0.00042387  -0.00023552  0.49978859  1
  Mn  Mn112  1  0.74952497  0.33403751  0.62399145  1
  Mn  Mn113  1  0.50000585  0.83229900  0.50069602  1
  Mn  Mn114  1  0.50129726  0.49899845  0.49955381  1
  Mn  Mn115  1  0.25068157  0.66812000  0.62423061  1
  Mn  Mn116  1  0.25000691  0.66722477  0.37461306  1
  Mn  Mn117  1  0.50064302  0.49999669  0.74951240  1
  Mn  Mn118  1  0.74966388  0.16631182  0.12503588  1
  Mn  Mn119  1  0.74949203  0.50111515  0.62452105  1
  Mn  Mn120  1  0.24960755  0.33287383  0.87518487  1
  Mn  Mn121  1  0.75014184  0.16625103  0.62384275  1
  Mn  Mn122  1  0.00047737  0.49974170  0.75027335  1
  Mn  Mn123  1  0.24957882  -0.00202225  0.12606007  1
  Mn  Mn124  1  -0.00036954  0.33390939  0.00015809  1
  Mn  Mn125  1  0.25005327  0.50015452  0.87469541  1
  Mn  Mn126  1  0.25004522  0.16627296  0.37542617  1
  Mn  Mn127  1  0.00008650  0.16712125  0.24997871  1
  Mn  Mn128  1  0.24990134  0.66663413  0.12532113  1
  Mn  Mn129  1  0.75014223  0.66809365  0.62423024  1
  Mn  Mn130  1  -0.00066158  0.66685053  0.74990918  1
  Mn  Mn131  1  0.25054028  0.16479123  0.87424740  1
  Mn  Mn132  1  0.49950187  -0.00036164  0.00013085  1
  Mn  Mn133  1  0.75030109  0.83346945  0.87565693  1
  Mn  Mn134  1  0.00118232  0.33475441  0.25043520  1
  Mn  Mn135  1  0.50011067  -0.00031519  0.25045810  1
  Mn  Mn136  1  0.49989228  0.83320343  0.74995542  1
  Mn  Mn137  1  0.25006120  -0.00150256  0.37559535  1
  Mn  Mn138  1  0.74963747  0.83545792  0.62613112  1
  Mn  Mn139  1  0.25097144  0.33445868  0.37409349  1
  Mn  Mn140  1  0.75004176  0.16589087  0.87478111  1
  Mn  Mn141  1  0.25033953  0.33368230  0.12455123  1
  Mn  Mn142  1  0.74961979  0.33371727  0.87460897  1
  Mn  Mn143  1  -0.00095124  0.50195471  -0.00021620  1
  Fe  Fe144  1  0.24994545  0.50009626  0.12476844  1
  Fe  Fe145  1  0.75002556  0.50003000  0.37351535  1
  Fe  Fe146  1  0.50041191  0.49922051  0.24902288  1
  Fe  Fe147  1  0.50051623  0.33212952  0.49899620  1
  Fe  Fe148  1  0.50058779  0.33351105  -0.00045804  1
  Fe  Fe149  1  0.50004334  0.66681426  0.75056037  1
  Fe  Fe150  1  0.24993153  0.83320016  0.87532017  1
  Fe  Fe151  1  0.50034539  0.66554863  0.49954572  1
  Fe  Fe152  1  0.75008878  0.33398404  0.37356782  1
  Fe  Fe153  1  0.00035466  0.33391646  0.49966562  1
  Fe  Fe154  1  0.49989546  0.83274180  0.00031676  1
  Fe  Fe155  1  -0.00034061  0.16719167  0.49987249  1
  Fe  Fe156  1  0.24980855  -0.00125376  0.62584121  1
  Fe  Fe157  1  -0.00056302  0.00038479  0.00073661  1
  Fe  Fe158  1  0.74973113  0.83364795  0.37461539  1
  Fe  Fe159  1  0.24972130  0.83398230  0.62598742  1
  Fe  Fe160  1  0.50023464  0.66524110  0.24890026  1
  Fe  Fe161  1  0.25037135  0.83275043  0.12490388  1
  Fe  Fe162  1  0.50027486  0.16703445  0.74923719  1
  Fe  Fe163  1  0.75021106  0.66705561  0.87608774  1
  Fe  Fe164  1  0.49995066  0.50012012  -0.00063297  1
  Fe  Fe165  1  0.49991643  -0.00032334  0.50084153  1
  Fe  Fe166  1  0.75008701  0.83300503  0.12536538  1
  Fe  Fe167  1  -0.00095318  0.83347556  0.00126000  1
  Fe  Fe168  1  0.74993577  0.66630971  0.12579971  1
  Fe  Fe169  1  -0.00028397  0.50139326  0.25042061  1
  Fe  Fe170  1  0.74967484  -0.00015394  0.87578766  1
  Fe  Fe171  1  0.50034181  0.33328607  0.74924142  1
  Fe  Fe172  1  0.00039361  0.50035039  0.49981386  1
  Fe  Fe173  1  0.75020233  0.49980764  0.12502076  1
  Fe  Fe174  1  0.50034488  0.16570532  0.50070242  1
  Fe  Fe175  1  0.50026683  0.00022032  0.75060945  1
  Fe  Fe176  1  0.74998628  -0.00038008  0.37483792  1
  Fe  Fe177  1  0.50003424  0.16586583  0.25075794  1
  Fe  Fe178  1  0.00021213  0.16744819  -0.00003138  1
  Fe  Fe179  1  0.75033665  0.33339708  0.12502959  1
  Fe  Fe180  1  0.25062038  0.83331852  0.37562451  1
  Fe  Fe181  1  -0.00017677  0.66763477  0.25082477  1
  Fe  Fe182  1  0.00000595  0.66784032  0.00164482  1
  Fe  Fe183  1  0.74926689  -0.00084917  0.12569227  1
  Fe  Fe184  1  0.24991687  0.50052488  0.37467668  1
  Fe  Fe185  1  0.50009680  0.66635013  -0.00011793  1
  Fe  Fe186  1  0.00000669  0.83279209  0.49999851  1
  Fe  Fe187  1  -0.00007371  0.33340341  0.74943064  1
  Fe  Fe188  1  0.24956223  -0.00149472  0.87550610  1
  Fe  Fe189  1  0.75007693  0.00034947  0.62481035  1
  Fe  Fe190  1  -0.00013762  0.83332183  0.25039478  1
  Fe  Fe191  1  -0.00044657  0.66659098  0.49933646  1
  P  P192  1  0.04277054  0.24962084  0.10245340  1
  P  P193  1  0.04281913  0.25057715  0.35413739  1
  P  P194  1  0.04156637  0.25043091  0.60136111  1
  P  P195  1  0.04203935  0.25129435  0.85250921  1
  P  P196  1  0.04146800  0.58559722  0.10401609  1
  P  P197  1  0.04117324  0.58423544  0.35249250  1
  P  P198  1  0.04153285  0.58368440  0.60113882  1
  P  P199  1  0.04267307  0.58446472  0.85373946  1
  P  P200  1  0.04066305  0.91660865  0.10233689  1
  P  P201  1  0.04151548  0.91498757  0.35315927  1
  P  P202  1  0.04177515  0.91528853  0.60244250  1
  P  P203  1  0.04142626  0.91696386  0.85479427  1
  P  P204  1  0.54255054  0.25114423  0.10208072  1
  P  P205  1  0.54255171  0.24797423  0.35288277  1
  P  P206  1  0.54178603  0.24981376  0.60167492  1
  P  P207  1  0.54165260  0.25067794  0.85110599  1
  P  P208  1  0.54107361  0.58305227  0.10167151  1
  P  P209  1  0.54186469  0.58262380  0.35079139  1
  P  P210  1  0.54298012  0.58416304  0.60226152  1
  P  P211  1  0.54203518  0.58473830  0.85320219  1
  P  P212  1  0.54179891  0.91486106  0.10272579  1
  P  P213  1  0.54247016  0.91613720  0.35417591  1
  P  P214  1  0.54180312  0.91784483  0.60337512  1
  P  P215  1  0.54182103  0.91715418  0.85311090  1
  P  P216  1  0.45769457  0.08440768  0.14784082  1
  P  P217  1  0.45874570  0.08274025  0.39883075  1
  P  P218  1  0.45911834  0.08299938  0.64813218  1
  P  P219  1  0.45737895  0.08324855  0.89586354  1
  P  P220  1  0.45861089  0.41760305  0.14634015  1
  P  P221  1  0.45883822  0.41487397  0.39670450  1
  P  P222  1  0.45841371  0.41491363  0.64660373  1
  P  P223  1  0.45905256  0.41628697  0.89764834  1
  P  P224  1  0.45848890  0.74786837  0.14672770  1
  P  P225  1  0.45814308  0.74727450  0.39726888  1
  P  P226  1  0.45798067  0.74810366  0.64742057  1
  P  P227  1  0.45874320  0.74972247  0.89832674  1
  P  P228  1  0.95723073  0.08344737  0.14607754  1
  P  P229  1  0.95744097  0.08470879  0.39746962  1
  P  P230  1  0.95703265  0.08392646  0.64613828  1
  P  P231  1  0.95808293  0.08411685  0.89892382  1
  P  P232  1  0.95789826  0.41894670  0.14803489  1
  P  P233  1  0.95915030  0.41774055  0.39798402  1
  P  P234  1  0.95815692  0.41556822  0.64650675  1
  P  P235  1  0.95658499  0.41710135  0.89665310  1
  P  P236  1  0.95830016  0.75058512  0.14860937  1
  P  P237  1  0.95852793  0.74994822  0.39751937  1
  P  P238  1  0.95687403  0.75006555  0.64610199  1
  P  P239  1  0.95786096  0.75011908  0.89974513  1
  P  P240  1  0.20683955  0.08238962  0.22862686  1
  P  P241  1  0.20757284  0.08189920  0.47902535  1
  P  P242  1  0.20769413  0.08082004  0.72791877  1
  P  P243  1  0.20760159  0.08098383  0.97753583  1
  P  P244  1  0.20804107  0.41865875  0.22752183  1
  P  P245  1  0.20786486  0.41823581  0.47689563  1
  P  P246  1  0.20664182  0.41691851  0.72795910  1
  P  P247  1  0.20712117  0.41722548  0.97866512  1
  P  P248  1  0.20792103  0.75148910  0.22788821  1
  P  P249  1  0.20784061  0.75196604  0.47781720  1
  P  P250  1  0.20769803  0.75187441  0.72797009  1
  P  P251  1  0.20810818  0.75125805  0.97802859  1
  P  P252  1  0.70757695  0.08146373  0.22779277  1
  P  P253  1  0.70801985  0.08185350  0.47712098  1
  P  P254  1  0.70774088  0.08206084  0.72742673  1
  P  P255  1  0.70733315  0.08143834  0.97811109  1
  P  P256  1  0.70879031  0.41665820  0.22664591  1
  P  P257  1  0.70837687  0.41724051  0.47513757  1
  P  P258  1  0.70663196  0.41764135  0.72765747  1
  P  P259  1  0.70751289  0.41686841  0.97919104  1
  P  P260  1  0.70882967  0.75022799  0.22689841  1
  P  P261  1  0.70763377  0.75204212  0.47699179  1
  P  P262  1  0.70721154  0.75078522  0.72884315  1
  P  P263  1  0.70831170  0.74874966  0.97894249  1
  P  P264  1  0.29318084  0.24911319  0.02159985  1
  P  P265  1  0.29338573  0.24978617  0.27176220  1
  P  P266  1  0.29301600  0.24983873  0.52173259  1
  P  P267  1  0.29278872  0.24930462  0.77160052  1
  P  P268  1  0.29247712  0.58237337  0.02274859  1
  P  P269  1  0.29195010  0.58206771  0.27206033  1
  P  P270  1  0.29274000  0.58361487  0.52087842  1
  P  P271  1  0.29358854  0.58392278  0.77161461  1
  P  P272  1  0.29233225  0.91458087  0.02215668  1
  P  P273  1  0.29299598  0.91413792  0.27268141  1
  P  P274  1  0.29203859  0.91582458  0.52382283  1
  P  P275  1  0.29134566  0.91609410  0.77324324  1
  P  P276  1  0.79198821  0.25084126  0.02267806  1
  P  P277  1  0.79215846  0.25156273  0.27153247  1
  P  P278  1  0.79212634  0.25071226  0.52028001  1
  P  P279  1  0.79257695  0.24999607  0.77130858  1
  P  P280  1  0.79126566  0.58366438  0.02396840  1
  P  P281  1  0.79179122  0.58233000  0.27134001  1
  P  P282  1  0.79231645  0.58383906  0.52050546  1
  P  P283  1  0.79227442  0.58545789  0.77300923  1
  P  P284  1  0.79099952  0.91660949  0.02387542  1
  P  P285  1  0.79123305  0.91654121  0.27284812  1
  P  P286  1  0.79204772  0.91842545  0.52175576  1
  P  P287  1  0.79252571  0.91884519  0.77320559  1
  O  O288  1  0.03783237  0.24997898  0.18245177  1
  O  O289  1  0.03730167  0.25049034  0.43403775  1
  O  O290  1  0.03646137  0.25108018  0.68137275  1
  O  O291  1  0.03679810  0.25044547  0.93246277  1
  O  O292  1  0.03599013  0.58522533  0.18391078  1
  O  O293  1  0.03612670  0.58400952  0.43239158  1
  O  O294  1  0.03689246  0.58326775  0.68114248  1
  O  O295  1  0.03762041  0.58516905  0.93370599  1
  O  O296  1  0.03585852  0.91572325  0.18232839  1
  O  O297  1  0.03629166  0.91477669  0.43309603  1
  O  O298  1  0.03658945  0.91576902  0.68242227  1
  O  O299  1  0.03591803  0.91728240  0.93467445  1
  O  O300  1  0.53751668  0.25043301  0.18195959  1
  O  O301  1  0.53738276  0.24839517  0.43276387  1
  O  O302  1  0.53695289  0.25001883  0.68159606  1
  O  O303  1  0.53663159  0.25080175  0.93104904  1
  O  O304  1  0.53637389  0.58261203  0.18159458  1
  O  O305  1  0.53742490  0.58260946  0.43078917  1
  O  O306  1  0.53762083  0.58401877  0.68217293  1
  O  O307  1  0.53630086  0.58452032  0.93305303  1
  O  O308  1  0.53682811  0.91483188  0.18271296  1
  O  O309  1  0.53704816  0.91651386  0.43411809  1
  O  O310  1  0.53643490  0.91806018  0.68334043  1
  O  O311  1  0.53647754  0.91623714  0.93304970  1
  O  O312  1  0.46277372  0.08423138  0.06789116  1
  O  O313  1  0.46344635  0.08337196  0.31883880  1
  O  O314  1  0.46402403  0.08266542  0.56818696  1
  O  O315  1  0.46274054  0.08290029  0.81597566  1
  O  O316  1  0.46352605  0.41749400  0.06646490  1
  O  O317  1  0.46390939  0.41552288  0.31676958  1
  O  O318  1  0.46391989  0.41482970  0.56666896  1
  O  O319  1  0.46418019  0.41632188  0.81768245  1
  O  O320  1  0.46404740  0.74856833  0.06686475  1
  O  O321  1  0.46348394  0.74723342  0.31731703  1
  O  O322  1  0.46334336  0.74807666  0.56749019  1
  O  O323  1  0.46351398  0.74989486  0.81832573  1
  O  O324  1  0.96273477  0.08345501  0.06616051  1
  O  O325  1  0.96257794  0.08427516  0.31749815  1
  O  O326  1  0.96238844  0.08412022  0.56620956  1
  O  O327  1  0.96301523  0.08396003  0.81885844  1
  O  O328  1  0.96250339  0.41876054  0.06805072  1
  O  O329  1  0.96401051  0.41862592  0.31802218  1
  O  O330  1  0.96387965  0.41593152  0.56662552  1
  O  O331  1  0.96186589  0.41649756  0.81669486  1
  O  O332  1  0.96343573  0.75051724  0.06871480  1
  O  O333  1  0.96392330  0.75036064  0.31759815  1
  O  O334  1  0.96218256  0.75014911  0.56618216  1
  O  O335  1  0.96220143  0.75031384  0.81971309  1
  O  O336  1  0.21261738  0.08132391  0.05754003  1
  O  O337  1  0.21205335  0.08249613  0.30863994  1
  O  O338  1  0.21278862  0.08132506  0.55901541  1
  O  O339  1  0.21287238  0.08064263  0.80791011  1
  O  O340  1  0.21245060  0.41761606  0.05869038  1
  O  O341  1  0.21344215  0.41900773  0.30750648  1
  O  O342  1  0.21244146  0.41786683  0.55690868  1
  O  O343  1  0.21160505  0.41673785  0.80797792  1
  O  O344  1  0.21328340  0.75109624  0.05798840  1
  O  O345  1  0.21334650  0.75163031  0.30781307  1
  O  O346  1  0.21302235  0.75206981  0.55778875  1
  O  O347  1  0.21301956  0.75167014  0.80795357  1
  O  O348  1  0.71254958  0.08156614  0.05808862  1
  O  O349  1  0.71320987  0.08172009  0.30769987  1
  O  O350  1  0.71337345  0.08203315  0.55707847  1
  O  O351  1  0.71276887  0.08223665  0.80745457  1
  O  O352  1  0.71316641  0.41648576  0.05910436  1
  O  O353  1  0.71400876  0.41681502  0.30661655  1
  O  O354  1  0.71302243  0.41745000  0.55518852  1
  O  O355  1  0.71150736  0.41753492  0.80766986  1
  O  O356  1  0.71359655  0.74882663  0.05884002  1
  O  O357  1  0.71348511  0.75064073  0.30689577  1
  O  O358  1  0.71251810  0.75200625  0.55699490  1
  O  O359  1  0.71258053  0.75022373  0.80883175  1
  O  O360  1  0.28818156  0.24971052  0.19177292  1
  O  O361  1  0.28814442  0.24984137  0.44172145  1
  O  O362  1  0.28766711  0.24934395  0.69161012  1
  O  O363  1  0.28799123  0.24907512  0.94160420  1
  O  O364  1  0.28670051  0.58176934  0.19209276  1
  O  O365  1  0.28724822  0.58319087  0.44089451  1
  O  O366  1  0.28857366  0.58421014  0.69160845  1
  O  O367  1  0.28771628  0.58301691  0.94276756  1
  O  O368  1  0.28784272  0.91410010  0.19271475  1
  O  O369  1  0.28730269  0.91545776  0.44378252  1
  O  O370  1  0.28610723  0.91631695  0.69331393  1
  O  O371  1  0.28689938  0.91514684  0.94226277  1
  O  O372  1  0.78676793  0.25162134  0.19155402  1
  O  O373  1  0.78687803  0.25114243  0.44030255  1
  O  O374  1  0.78744813  0.24986822  0.69126798  1
  O  O375  1  0.78692628  0.25046621  0.94267651  1
  O  O376  1  0.78629385  0.58229426  0.19143997  1
  O  O377  1  0.78702630  0.58309376  0.44052253  1
  O  O378  1  0.78719986  0.58536936  0.69299044  1
  O  O379  1  0.78654606  0.58468196  0.94396634  1
  O  O380  1  0.78585841  0.91636940  0.19296162  1
  O  O381  1  0.78671326  0.91769354  0.44186839  1
  O  O382  1  0.78741760  0.91903502  0.69321562  1
  O  O383  1  0.78638665  0.91666726  0.94388864  1
  O  O384  1  0.22873636  0.24946812  0.05653731  1
  O  O385  1  0.22893687  0.25027981  0.30666450  1
  O  O386  1  0.22851674  0.24940808  0.55646125  1
  O  O387  1  0.22836037  0.24896653  0.80656499  1
  O  O388  1  0.22807892  0.58240564  0.05796243  1
  O  O389  1  0.22772690  0.58254232  0.30774387  1
  O  O390  1  0.22847015  0.58422750  0.55628390  1
  O  O391  1  0.22907325  0.58408750  0.80635841  1
  O  O392  1  0.22808493  0.91397597  0.05811745  1
  O  O393  1  0.22857411  0.91414953  0.30804236  1
  O  O394  1  0.22771840  0.91604023  0.55941847  1
  O  O395  1  0.22732786  0.91589964  0.80969846  1
  O  O396  1  0.72770458  0.25086983  0.05808373  1
  O  O397  1  0.72797550  0.25134216  0.30728005  1
  O  O398  1  0.72786239  0.25022180  0.55568882  1
  O  O399  1  0.72815775  0.24958574  0.80631789  1
  O  O400  1  0.72708322  0.58255317  0.05964011  1
  O  O401  1  0.72769077  0.58220317  0.30739886  1
  O  O402  1  0.72799542  0.58428117  0.55581419  1
  O  O403  1  0.72792027  0.58595975  0.80849706  1
  O  O404  1  0.72683665  0.91652820  0.05968416  1
  O  O405  1  0.72723011  0.91652505  0.30925137  1
  O  O406  1  0.72789121  0.91915467  0.55792505  1
  O  O407  1  0.72818444  0.91831013  0.80869807  1
  O  O408  1  0.27129762  0.08202703  0.19374259  1
  O  O409  1  0.27192617  0.08193372  0.44385612  1
  O  O410  1  0.27202706  0.08069237  0.69240179  1
  O  O411  1  0.27191748  0.08041560  0.94209388  1
  O  O412  1  0.27228379  0.41840048  0.19184712  1
  O  O413  1  0.27237213  0.41871455  0.44197340  1
  O  O414  1  0.27122166  0.41688376  0.69333124  1
  O  O415  1  0.27149254  0.41669967  0.94349667  1
  O  O416  1  0.27212151  0.75125265  0.19201252  1
  O  O417  1  0.27212998  0.75159051  0.44217279  1
  O  O418  1  0.27201211  0.75211296  0.69236187  1
  O  O419  1  0.27239044  0.75170580  0.94239963  1
  O  O420  1  0.77169519  0.08146401  0.19181347  1
  O  O421  1  0.77216840  0.08206544  0.44126484  1
  O  O422  1  0.77200824  0.08195010  0.69174710  1
  O  O423  1  0.77166871  0.08151007  0.94253626  1
  O  O424  1  0.77286958  0.41708635  0.19047276  1
  O  O425  1  0.77268805  0.41739735  0.43963742  1
  O  O426  1  0.77112723  0.41759969  0.69280250  1
  O  O427  1  0.77159595  0.41730176  0.94325049  1
  O  O428  1  0.77297843  0.75040554  0.19125659  1
  O  O429  1  0.77195718  0.75188342  0.44157969  1
  O  O430  1  0.77150333  0.75125224  0.69343794  1
  O  O431  1  0.77242154  0.74876035  0.94279964  1
  O  O432  1  0.02142152  0.08298532  0.18190204  1
  O  O433  1  0.02166593  0.08466320  0.43318456  1
  O  O434  1  0.02126863  0.08385501  0.68177533  1
  O  O435  1  0.02228093  0.08411887  0.93486634  1
  O  O436  1  0.02233134  0.41939179  0.18327080  1
  O  O437  1  0.02325124  0.41682274  0.43398181  1
  O  O438  1  0.02218586  0.41521321  0.68311475  1
  O  O439  1  0.02090124  0.41776402  0.93210072  1
  O  O440  1  0.02236779  0.75062982  0.18502150  1
  O  O441  1  0.02244180  0.74929754  0.43426806  1
  O  O442  1  0.02115056  0.75009696  0.68184519  1
  O  O443  1  0.02220170  0.74976263  0.93518906  1
  O  O444  1  0.52205908  0.08426605  0.18341668  1
  O  O445  1  0.52291039  0.08184705  0.43474491  1
  O  O446  1  0.52311444  0.08284451  0.68451531  1
  O  O447  1  0.52156888  0.08317571  0.93172776  1
  O  O448  1  0.52281336  0.41730012  0.18228019  1
  O  O449  1  0.52309393  0.41429625  0.43251523  1
  O  O450  1  0.52258242  0.41499096  0.68266811  1
  O  O451  1  0.52304728  0.41592968  0.93403292  1
  O  O452  1  0.52255918  0.74730851  0.18313532  1
  O  O453  1  0.52235572  0.74771439  0.43321074  1
  O  O454  1  0.52215764  0.74838256  0.68344110  1
  O  O455  1  0.52288652  0.74941062  0.93432281  1
  O  O456  1  0.47825007  0.25197105  0.06629336  1
  O  O457  1  0.47837829  0.24813760  0.31675616  1
  O  O458  1  0.47774119  0.25018085  0.56536029  1
  O  O459  1  0.47758359  0.25083299  0.81483824  1
  O  O460  1  0.47706736  0.58367077  0.06537344  1
  O  O461  1  0.47760909  0.58301136  0.31504648  1
  O  O462  1  0.47876933  0.58371461  0.56625447  1
  O  O463  1  0.47807766  0.58454230  0.81654683  1
  O  O464  1  0.47751091  0.91483178  0.06715150  1
  O  O465  1  0.47822405  0.91589270  0.31858294  1
  O  O466  1  0.47763949  0.91742129  0.56734864  1
  O  O467  1  0.47769412  0.91744808  0.81706497  1
  O  O468  1  0.97832823  0.24905348  0.06711052  1
  O  O469  1  0.97865588  0.25119565  0.31821790  1
  O  O470  1  0.97744240  0.25059064  0.56516142  1
  O  O471  1  0.97775995  0.25214021  0.81659961  1
  O  O472  1  0.97732264  0.58627776  0.06775958  1
  O  O473  1  0.97713627  0.58438607  0.31608649  1
  O  O474  1  0.97729994  0.58430369  0.56542431  1
  O  O475  1  0.97826859  0.58361242  0.81850086  1
  O  O476  1  0.97651014  0.91760786  0.06642812  1
  O  O477  1  0.97726239  0.91494938  0.31731897  1
  O  O478  1  0.97752350  0.91541551  0.56679765  1
  O  O479  1  0.97726792  0.91708264  0.81875540  1
  O  O480  1  0.07334436  0.31356154  0.07476986  1
  O  O481  1  0.07435905  0.31385118  0.32584759  1
  O  O482  1  0.07288519  0.31362490  0.57280448  1
  O  O483  1  0.07297677  0.31480014  0.82431234  1
  O  O484  1  0.07269868  0.64900604  0.07570565  1
  O  O485  1  0.07225166  0.64783412  0.32433490  1
  O  O486  1  0.07274090  0.64708260  0.57309600  1
  O  O487  1  0.07344107  0.64784236  0.82486422  1
  O  O488  1  0.07212670  0.98003617  0.07464414  1
  O  O489  1  0.07230645  0.97889611  0.32549791  1
  O  O490  1  0.07307234  0.97873656  0.57458055  1
  O  O491  1  0.07275956  0.98013100  0.82604370  1
  O  O492  1  0.57347768  0.31462416  0.07369736  1
  O  O493  1  0.57399003  0.31119682  0.32444063  1
  O  O494  1  0.57318812  0.31290511  0.57277361  1
  O  O495  1  0.57301957  0.31393818  0.82289295  1
  O  O496  1  0.57261192  0.64637374  0.07360743  1
  O  O497  1  0.57316856  0.64584846  0.32229580  1
  O  O498  1  0.57359723  0.64761935  0.57351581  1
  O  O499  1  0.57271316  0.64835080  0.82469431  1
  O  O500  1  0.57278259  0.97860832  0.07521446  1
  O  O501  1  0.57364150  0.97930654  0.32556306  1
  O  O502  1  0.57261398  0.98114049  0.57458810  1
  O  O503  1  0.57256102  0.98086764  0.82500004  1
  O  O504  1  0.42658534  0.02071683  0.17553690  1
  O  O505  1  0.42738929  0.01922460  0.42669601  1
  O  O506  1  0.42779215  0.01975236  0.67673156  1
  O  O507  1  0.42604222  0.02012286  0.92469352  1
  O  O508  1  0.42708827  0.35439496  0.17465794  1
  O  O509  1  0.42789091  0.35134397  0.42487471  1
  O  O510  1  0.42735788  0.35170780  0.67529306  1
  O  O511  1  0.42769334  0.35300631  0.92583112  1
  O  O512  1  0.42733033  0.68441332  0.17490863  1
  O  O513  1  0.42752832  0.68371918  0.42572695  1
  O  O514  1  0.42721185  0.68479673  0.67622494  1
  O  O515  1  0.42741338  0.68641204  0.92648571  1
  O  O516  1  0.92579717  0.02019616  0.17456407  1
  O  O517  1  0.92626935  0.02105109  0.42496832  1
  O  O518  1  0.92606804  0.02038646  0.67436429  1
  O  O519  1  0.92728250  0.02045769  0.92707846  1
  O  O520  1  0.92737192  0.35501360  0.17588895  1
  O  O521  1  0.92776634  0.35421218  0.42558321  1
  O  O522  1  0.92707475  0.35219115  0.67495604  1
  O  O523  1  0.92564779  0.35383005  0.92548016  1
  O  O524  1  0.92736442  0.68711328  0.17721767  1
  O  O525  1  0.92713558  0.68643138  0.42528934  1
  O  O526  1  0.92582598  0.68658318  0.67453868  1
  O  O527  1  0.92687097  0.68670501  0.92806989  1
  O  O528  1  0.17578314  0.01874736  0.20083426  1
  O  O529  1  0.17620314  0.01876513  0.45042612  1
  O  O530  1  0.17667574  0.01757144  0.69918181  1
  O  O531  1  0.17667592  0.01746463  0.94944211  1
  O  O532  1  0.17694701  0.35478726  0.20016058  1
  O  O533  1  0.17725532  0.35448942  0.44875858  1
  O  O534  1  0.17574224  0.35347285  0.69955236  1
  O  O535  1  0.17597014  0.35361165  0.95079664  1
  O  O536  1  0.17695647  0.68757767  0.20044748  1
  O  O537  1  0.17676978  0.68830339  0.44991176  1
  O  O538  1  0.17694888  0.68811723  0.69979383  1
  O  O539  1  0.17754439  0.68728231  0.95016833  1
  O  O540  1  0.67647046  0.01810843  0.19953499  1
  O  O541  1  0.67718055  0.01845740  0.44856000  1
  O  O542  1  0.67683841  0.01872995  0.69879352  1
  O  O543  1  0.67656728  0.01800731  0.94947070  1
  O  O544  1  0.67821020  0.35276134  0.19848860  1
  O  O545  1  0.67790437  0.35329723  0.44712595  1
  O  O546  1  0.67572515  0.35423470  0.69911473  1
  O  O547  1  0.67634687  0.35361934  0.95048919  1
  O  O548  1  0.67855202  0.68603587  0.19891916  1
  O  O549  1  0.67658371  0.68842653  0.44907413  1
  O  O550  1  0.67607329  0.68775046  0.69986289  1
  O  O551  1  0.67748234  0.68536110  0.95011565  1
  O  O552  1  0.32433242  0.31254177  0.04970503  1
  O  O553  1  0.32460117  0.31333078  0.29953501  1
  O  O554  1  0.32364765  0.31358165  0.54970484  1
  O  O555  1  0.32360104  0.31288339  0.79978232  1
  O  O556  1  0.32346140  0.64589183  0.05096398  1
  O  O557  1  0.32313687  0.64586785  0.29939899  1
  O  O558  1  0.32395141  0.64718121  0.54869616  1
  O  O559  1  0.32456738  0.64731311  0.80004998  1
  O  O560  1  0.32316707  0.97815216  0.05075415  1
  O  O561  1  0.32382047  0.97796769  0.30060192  1
  O  O562  1  0.32260638  0.97966617  0.55205955  1
  O  O563  1  0.32215978  0.97965732  0.80181876  1
  O  O564  1  0.82278838  0.31441873  0.05097869  1
  O  O565  1  0.82302343  0.31495537  0.30019618  1
  O  O566  1  0.82317526  0.31404177  0.54880333  1
  O  O567  1  0.82328503  0.31368025  0.79932364  1
  O  O568  1  0.82140364  0.64739137  0.05326323  1
  O  O569  1  0.82287657  0.64604961  0.29908563  1
  O  O570  1  0.82335385  0.64751012  0.54821603  1
  O  O571  1  0.82327957  0.64872242  0.80172343  1
  O  O572  1  0.82202314  0.97999002  0.05229521  1
  O  O573  1  0.82231473  0.98010970  0.30106339  1
  O  O574  1  0.82325846  0.98172588  0.55017069  1
  O  O575  1  0.82307356  0.98218672  0.80232871  1
  O  O576  1  0.42728909  0.14807292  0.17638808  1
  O  O577  1  0.42856004  0.14653293  0.42780692  1
  O  O578  1  0.42871915  0.14708365  0.67628163  1
  O  O579  1  0.42634979  0.14688563  0.92382299  1
  O  O580  1  0.42817489  0.48120496  0.17549641  1
  O  O581  1  0.42799100  0.47845199  0.42501881  1
  O  O582  1  0.42743357  0.47875450  0.67425070  1
  O  O583  1  0.42874037  0.48037959  0.92588092  1
  O  O584  1  0.42739459  0.81129798  0.17518370  1
  O  O585  1  0.42688312  0.81086623  0.42508086  1
  O  O586  1  0.42690073  0.81194111  0.67494817  1
  O  O587  1  0.42842527  0.81372320  0.92667737  1
  O  O588  1  0.92619200  0.14692744  0.17439815  1
  O  O589  1  0.92684563  0.14843905  0.42556127  1
  O  O590  1  0.92571551  0.14723843  0.67432488  1
  O  O591  1  0.92739914  0.14801119  0.92664213  1
  O  O592  1  0.92699270  0.48232949  0.17655122  1
  O  O593  1  0.92882808  0.48149104  0.42694936  1
  O  O594  1  0.92703925  0.47924274  0.67448136  1
  O  O595  1  0.92529638  0.48064321  0.92446457  1
  O  O596  1  0.92729875  0.81422534  0.17680296  1
  O  O597  1  0.92795799  0.81369021  0.42612576  1
  O  O598  1  0.92561179  0.81330398  0.67482121  1
  O  O599  1  0.92756317  0.81406010  0.92827127  1
  O  O600  1  0.07367345  0.18619779  0.07404263  1
  O  O601  1  0.07378761  0.18707961  0.32576589  1
  O  O602  1  0.07199150  0.18620347  0.57382057  1
  O  O603  1  0.07287390  0.18764789  0.82419335  1
  O  O604  1  0.07234405  0.52207286  0.07559067  1
  O  O605  1  0.07200477  0.52067632  0.32382191  1
  O  O606  1  0.07177503  0.51968679  0.57272501  1
  O  O607  1  0.07401571  0.52101706  0.82582971  1
  O  O608  1  0.07081089  0.85272431  0.07345033  1
  O  O609  1  0.07259513  0.85182463  0.32432856  1
  O  O610  1  0.07234974  0.85159048  0.57417232  1
  O  O611  1  0.07245424  0.85335815  0.82670768  1
  O  O612  1  0.57333705  0.18751861  0.07372034  1
  O  O613  1  0.57300420  0.18421952  0.32426756  1
  O  O614  1  0.57205793  0.18567934  0.57336149  1
  O  O615  1  0.57189791  0.18654950  0.82282711  1
  O  O616  1  0.57138828  0.51925695  0.07267044  1
  O  O617  1  0.57191189  0.51853012  0.32219497  1
  O  O618  1  0.57424162  0.52056952  0.57435767  1
  O  O619  1  0.57356032  0.52130307  0.82537056  1
  O  O620  1  0.57251224  0.85131595  0.07423238  1
  O  O621  1  0.57357987  0.85252393  0.32633542  1
  O  O622  1  0.57302513  0.85403730  0.57606715  1
  O  O623  1  0.57325718  0.85386405  0.82493688  1
  O  O624  1  0.32398230  0.18543231  0.04961281  1
  O  O625  1  0.32414949  0.18624197  0.30019044  1
  O  O626  1  0.32423652  0.18646503  0.54998630  1
  O  O627  1  0.32399835  0.18578971  0.79943729  1
  O  O628  1  0.32303466  0.51863106  0.05096940  1
  O  O629  1  0.32276032  0.51878284  0.30114177  1
  O  O630  1  0.32395389  0.52032765  0.54932562  1
  O  O631  1  0.32447267  0.52029638  0.79966551  1
  O  O632  1  0.32353542  0.85126439  0.05067033  1
  O  O633  1  0.32397001  0.85093098  0.30158585  1
  O  O634  1  0.32291009  0.85238644  0.55250547  1
  O  O635  1  0.32246272  0.85249232  0.80144536  1
  O  O636  1  0.82302984  0.18719765  0.05056471  1
  O  O637  1  0.82333730  0.18778317  0.29900413  1
  O  O638  1  0.82332229  0.18714974  0.54819133  1
  O  O639  1  0.82387114  0.18668923  0.79963241  1
  O  O640  1  0.82277512  0.52013381  0.05147001  1
  O  O641  1  0.82290887  0.51905767  0.30012632  1
  O  O642  1  0.82336310  0.52058198  0.54933463  1
  O  O643  1  0.82287694  0.52150934  0.80083187  1
  O  O644  1  0.82149321  0.85261530  0.05217349  1
  O  O645  1  0.82206010  0.85286034  0.30142244  1
  O  O646  1  0.82278949  0.85479951  0.55044753  1
  O  O647  1  0.82377350  0.85516231  0.80095735  1
  O  O648  1  0.17590417  0.14583483  0.20030001  1
  O  O649  1  0.17663773  0.14563590  0.45116206  1
  O  O650  1  0.17679267  0.14467794  0.70013524  1
  O  O651  1  0.17686856  0.14474725  0.94947308  1
  O  O652  1  0.17712552  0.48195278  0.19861532  1
  O  O653  1  0.17706861  0.48180343  0.44845555  1
  O  O654  1  0.17576296  0.48054989  0.69985751  1
  O  O655  1  0.17602891  0.48059139  0.95028047  1
  O  O656  1  0.17691316  0.81461946  0.19890398  1
  O  O657  1  0.17712293  0.81532442  0.44899705  1
  O  O658  1  0.17654325  0.81518157  0.69954126  1
  O  O659  1  0.17680061  0.81433727  0.94933931  1
  O  O660  1  0.67657406  0.14524007  0.19995144  1
  O  O661  1  0.67680214  0.14548786  0.44930859  1
  O  O662  1  0.67687452  0.14583212  0.69931989  1
  O  O663  1  0.67638383  0.14518233  0.95004713  1
  O  O664  1  0.67744818  0.48001406  0.19819050  1
  O  O665  1  0.67739021  0.48077137  0.44677189  1
  O  O666  1  0.67582280  0.48129733  0.69952664  1
  O  O667  1  0.67615171  0.48038902  0.95128873  1
  O  O668  1  0.67747514  0.81338190  0.19821875  1
  O  O669  1  0.67700993  0.81559999  0.44847337  1
  O  O670  1  0.67616198  0.81460971  0.70122250  1
  O  O671  1  0.67711665  0.81233122  0.95086124  1
