# generated using pymatgen
data_Na2MnFe(PO4)2
_symmetry_space_group_name_H-M   'P 1'
_cell_length_a   22.33840742
_cell_length_b   20.09051994
_cell_length_c   19.45284672
_cell_angle_alpha   89.93258430
_cell_angle_beta   90.01250395
_cell_angle_gamma   89.94672562
_symmetry_Int_Tables_number   1
_chemical_formula_structural   Na2MnFe(PO4)2
_chemical_formula_sum   'Na96 Mn48 Fe48 P96 O384'
_cell_volume   8730.23732947
_cell_formula_units_Z   48
loop_
 _symmetry_equiv_pos_site_id
 _symmetry_equiv_pos_as_xyz
  1  'x, y, z'
loop_
 _atom_site_type_symbol
 _atom_site_label
 _atom_site_symmetry_multiplicity
 _atom_site_fract_x
 _atom_site_fract_y
 _atom_site_fract_z
 _atom_site_occupancy
  Na  Na0  1  0.14042768  0.24893710  0.24393688  1
  Na  Na1  1  0.14062931  0.25013790  0.49284884  1
  Na  Na2  1  0.14066770  0.24971977  0.74319204  1
  Na  Na3  1  0.14062948  0.25123147  0.99229999  1
  Na  Na4  1  0.14004014  0.58395729  0.24284369  1
  Na  Na5  1  0.14084408  0.58290759  0.49235511  1
  Na  Na6  1  0.14000565  0.58330190  0.74444080  1
  Na  Na7  1  0.14017076  0.58362000  0.99238301  1
  Na  Na8  1  0.14093605  0.91599314  0.24355153  1
  Na  Na9  1  0.14008067  0.91742159  0.49380054  1
  Na  Na10  1  0.13996798  0.91720268  0.74307126  1
  Na  Na11  1  0.14029319  0.91714381  0.99339350  1
  Na  Na12  1  0.64039140  0.25122350  0.24435754  1
  Na  Na13  1  0.64012486  0.25005598  0.49404309  1
  Na  Na14  1  0.64010948  0.24971949  0.74406362  1
  Na  Na15  1  0.64039919  0.24946748  0.99433435  1
  Na  Na16  1  0.63954309  0.58433614  0.24306470  1
  Na  Na17  1  0.64026273  0.58306160  0.49365054  1
  Na  Na18  1  0.64038006  0.58376677  0.74403257  1
  Na  Na19  1  0.63987422  0.58369148  0.99464778  1
  Na  Na20  1  0.64032175  0.91804083  0.24445988  1
  Na  Na21  1  0.63963811  0.91681551  0.49331553  1
  Na  Na22  1  0.63998967  0.91726762  0.74396759  1
  Na  Na23  1  0.64057975  0.91688475  0.99431391  1
  Na  Na24  1  0.35919296  0.08271105  0.00599286  1
  Na  Na25  1  0.35931780  0.08155844  0.25702258  1
  Na  Na26  1  0.35943873  0.08259769  0.50678747  1
  Na  Na27  1  0.35947813  0.08251296  0.75620316  1
  Na  Na28  1  0.35953395  0.41640424  0.00561247  1
  Na  Na29  1  0.35965614  0.41590774  0.25876416  1
  Na  Na30  1  0.35958927  0.41500478  0.50563650  1
  Na  Na31  1  0.35905344  0.41542666  0.75610203  1
  Na  Na32  1  0.35947634  0.75017862  0.00644396  1
  Na  Na33  1  0.35934666  0.74873995  0.25757514  1
  Na  Na34  1  0.35966001  0.74891600  0.50638520  1
  Na  Na35  1  0.35951605  0.74847729  0.75619666  1
  Na  Na36  1  0.85954668  0.08303996  0.00526164  1
  Na  Na37  1  0.86003188  0.08437433  0.25627935  1
  Na  Na38  1  0.85988103  0.08369131  0.50632564  1
  Na  Na39  1  0.86005324  0.08379430  0.75681821  1
  Na  Na40  1  0.86030685  0.41703178  0.00627515  1
  Na  Na41  1  0.86032248  0.41793172  0.25538335  1
  Na  Na42  1  0.86015138  0.41604299  0.50525888  1
  Na  Na43  1  0.85935089  0.41633746  0.75650342  1
  Na  Na44  1  0.85998405  0.75006402  0.00678690  1
  Na  Na45  1  0.85982646  0.75121201  0.25507097  1
  Na  Na46  1  0.85991603  0.75048518  0.50613098  1
  Na  Na47  1  0.86024149  0.75130857  0.75797659  1
  Na  Na48  1  0.10988663  0.08385335  0.11816171  1
  Na  Na49  1  0.10986492  0.08303540  0.36920534  1
  Na  Na50  1  0.11009706  0.08420838  0.61881030  1
  Na  Na51  1  0.10989871  0.08341030  0.86711644  1
  Na  Na52  1  0.10990008  0.41818064  0.11792855  1
  Na  Na53  1  0.11002252  0.41634293  0.36739134  1
  Na  Na54  1  0.10996544  0.41736154  0.61848579  1
  Na  Na55  1  0.10987601  0.41724374  0.86827686  1
  Na  Na56  1  0.10984395  0.74952876  0.11820177  1
  Na  Na57  1  0.11010655  0.74950467  0.36735210  1
  Na  Na58  1  0.10917223  0.75113496  0.61919557  1
  Na  Na59  1  0.10929486  0.75143979  0.86894032  1
  Na  Na60  1  0.60973928  0.08248040  0.11932667  1
  Na  Na61  1  0.60931237  0.08303651  0.36873166  1
  Na  Na62  1  0.60918981  0.08236496  0.61907297  1
  Na  Na63  1  0.60978326  0.08360716  0.86841181  1
  Na  Na64  1  0.60930538  0.41786219  0.12023196  1
  Na  Na65  1  0.60950829  0.41680353  0.36831647  1
  Na  Na66  1  0.60951188  0.41613694  0.61888508  1
  Na  Na67  1  0.60926971  0.41748656  0.86865675  1
  Na  Na68  1  0.60939631  0.74997685  0.11911685  1
  Na  Na69  1  0.60897570  0.74993620  0.36893764  1
  Na  Na70  1  0.60897238  0.75005813  0.61934959  1
  Na  Na71  1  0.60949087  0.74984746  0.86912354  1
  Na  Na72  1  0.39017856  0.24949084  0.13194577  1
  Na  Na73  1  0.39002460  0.24890806  0.38205621  1
  Na  Na74  1  0.38996280  0.24872116  0.63151163  1
  Na  Na75  1  0.38970961  0.25017122  0.88099866  1
  Na  Na76  1  0.39042759  0.58260027  0.13229890  1
  Na  Na77  1  0.38992216  0.58231596  0.38208952  1
  Na  Na78  1  0.38993472  0.58182170  0.63048332  1
  Na  Na79  1  0.39026884  0.58289716  0.88038831  1
  Na  Na80  1  0.38956564  0.91539912  0.13241981  1
  Na  Na81  1  0.39042000  0.91521746  0.38207227  1
  Na  Na82  1  0.39020437  0.91541021  0.63117199  1
  Na  Na83  1  0.38997681  0.91571390  0.88163667  1
  Na  Na84  1  0.89119382  0.25178084  0.13096332  1
  Na  Na85  1  0.89066315  0.24985144  0.38135271  1
  Na  Na86  1  0.89048239  0.25051838  0.63107138  1
  Na  Na87  1  0.89083846  0.25024037  0.88070070  1
  Na  Na88  1  0.89089429  0.58353103  0.13027002  1
  Na  Na89  1  0.89089129  0.58294495  0.37963778  1
  Na  Na90  1  0.89087802  0.58482405  0.63151471  1
  Na  Na91  1  0.89076411  0.58464792  0.88246532  1
  Na  Na92  1  0.88998426  0.91661272  0.13154168  1
  Na  Na93  1  0.89040156  0.91731418  0.38068711  1
  Na  Na94  1  0.89118074  0.91804572  0.63217264  1
  Na  Na95  1  0.89056572  0.91686368  0.88193677  1
  Mn  Mn96  1  -0.00012093  0.16679015  0.50042070  1
  Mn  Mn97  1  0.25004565  0.66648947  0.87493808  1
  Mn  Mn98  1  0.49953796  -0.00053738  0.00012785  1
  Mn  Mn99  1  0.49999936  0.83200839  0.00070973  1
  Mn  Mn100  1  0.00042388  0.33370248  0.24918237  1
  Mn  Mn101  1  0.74937191  0.16721008  0.62513827  1
  Mn  Mn102  1  0.49988589  0.83266044  0.25061414  1
  Mn  Mn103  1  0.00023757  0.16769272  -0.00078244  1
  Mn  Mn104  1  0.49999463  0.16604969  0.50032693  1
  Mn  Mn105  1  0.74983920  0.83504935  0.37530798  1
  Mn  Mn106  1  0.00055635  0.83258246  0.25018045  1
  Mn  Mn107  1  -0.00038680  -0.00015347  -0.00071733  1
  Mn  Mn108  1  -0.00014977  0.33384655  0.74984162  1
  Mn  Mn109  1  0.24998534  0.49972248  0.12522951  1
  Mn  Mn110  1  0.49933021  0.50080332  -0.00002057  1
  Mn  Mn111  1  0.49996740  0.33373378  0.00106968  1
  Mn  Mn112  1  0.49978296  0.16595782  0.25097278  1
  Mn  Mn113  1  0.24926239  0.83298402  0.62471682  1
  Mn  Mn114  1  0.75008142  0.00049259  0.62532559  1
  Mn  Mn115  1  -0.00060509  0.50129914  0.74989167  1
  Mn  Mn116  1  0.75003006  0.66718571  0.12540072  1
  Mn  Mn117  1  0.00031403  0.66710773  0.49990765  1
  Mn  Mn118  1  0.25041941  0.66732780  0.12452621  1
  Mn  Mn119  1  0.75003518  0.16736636  0.37493205  1
  Mn  Mn120  1  0.25012050  0.33288692  0.12500575  1
  Mn  Mn121  1  0.75069857  0.16634383  0.12507590  1
  Mn  Mn122  1  0.75060090  0.33424499  0.12425908  1
  Mn  Mn123  1  0.49989738  0.50010561  0.74947393  1
  Mn  Mn124  1  0.24958407  0.33288242  0.62465311  1
  Mn  Mn125  1  0.00087741  0.49989184  0.49989828  1
  Mn  Mn126  1  0.75019098  0.83397765  0.62559454  1
  Mn  Mn127  1  0.24925609  0.66524516  0.62507422  1
  Mn  Mn128  1  0.75023241  0.66692344  0.62514900  1
  Mn  Mn129  1  0.00071212  0.00047088  0.24966210  1
  Mn  Mn130  1  0.75082439  0.49913007  0.62446237  1
  Mn  Mn131  1  0.75036142  0.49974274  0.37494191  1
  Mn  Mn132  1  0.24993797  -0.00025552  0.87487965  1
  Mn  Mn133  1  0.50003680  0.49936907  0.50024820  1
  Mn  Mn134  1  0.49925570  0.83270297  0.74975311  1
  Mn  Mn135  1  0.74952823  0.50035095  0.87482243  1
  Mn  Mn136  1  0.74976134  0.83384188  0.87570950  1
  Mn  Mn137  1  0.74937327  0.33269974  0.87588116  1
  Mn  Mn138  1  0.49983672  0.16643619  0.00024589  1
  Mn  Mn139  1  -0.00025183  0.83436688  0.49979245  1
  Mn  Mn140  1  0.74997204  0.66748390  0.37447628  1
  Mn  Mn141  1  0.25063921  0.16580867  0.12462557  1
  Mn  Mn142  1  0.25000487  -0.00047234  0.37501880  1
  Mn  Mn143  1  0.49957020  0.16648229  0.74966017  1
  Fe  Fe144  1  0.74997324  0.00050921  0.12500161  1
  Fe  Fe145  1  0.00065835  0.16746787  0.74955724  1
  Fe  Fe146  1  0.75070297  0.00079625  0.37469837  1
  Fe  Fe147  1  0.00032948  0.50112147  -0.00060599  1
  Fe  Fe148  1  0.75016803  0.66679535  0.87564032  1
  Fe  Fe149  1  0.25036762  0.16658401  0.62486038  1
  Fe  Fe150  1  0.24945245  0.49938505  0.37480395  1
  Fe  Fe151  1  0.00034120  0.33343414  0.49932117  1
  Fe  Fe152  1  0.49969105  0.66646156  0.74973090  1
  Fe  Fe153  1  0.00097752  0.33424872  -0.00007736  1
  Fe  Fe154  1  0.24983146  0.16635814  0.87476938  1
  Fe  Fe155  1  0.25024087  0.00001903  0.62454472  1
  Fe  Fe156  1  0.00045742  0.50037187  0.24859841  1
  Fe  Fe157  1  0.49997502  0.33292928  0.49987710  1
  Fe  Fe158  1  0.75038931  0.16631253  0.87495385  1
  Fe  Fe159  1  0.00018682  0.00078957  0.50064194  1
  Fe  Fe160  1  0.74974909  0.50055349  0.12503449  1
  Fe  Fe161  1  0.00021098  0.16691779  0.24991943  1
  Fe  Fe162  1  0.24983476  0.49898301  0.62430413  1
  Fe  Fe163  1  0.24967529  0.16582544  0.37530767  1
  Fe  Fe164  1  0.49966544  0.49984393  0.25075141  1
  Fe  Fe165  1  0.49994820  0.33293421  0.25051892  1
  Fe  Fe166  1  0.75007776  0.33381565  0.37467913  1
  Fe  Fe167  1  0.24980994  0.83332262  0.12548546  1
  Fe  Fe168  1  0.49949070  -0.00094402  0.50007988  1
  Fe  Fe169  1  0.24965209  0.66624652  0.37504844  1
  Fe  Fe170  1  -0.00021385  0.66622722  0.24855684  1
  Fe  Fe171  1  0.49961124  0.66627554  0.00041556  1
  Fe  Fe172  1  0.24998856  0.33320225  0.87401333  1
  Fe  Fe173  1  0.74984498  0.00019140  0.87553128  1
  Fe  Fe174  1  0.74962323  0.83428388  0.12491463  1
  Fe  Fe175  1  0.00023613  0.00060808  0.75015359  1
  Fe  Fe176  1  0.00027220  0.66730036  -0.00007508  1
  Fe  Fe177  1  0.00033837  0.66804316  0.75113029  1
  Fe  Fe178  1  0.49930821  0.66630902  0.25069180  1
  Fe  Fe179  1  0.49975321  0.83252131  0.50024535  1
  Fe  Fe180  1  0.25004552  0.83365666  0.87499972  1
  Fe  Fe181  1  -0.00022757  0.83409315  0.75037579  1
  Fe  Fe182  1  0.50020678  0.66583630  0.49992936  1
  Fe  Fe183  1  0.25000149  0.33233281  0.37560708  1
  Fe  Fe184  1  0.49961369  0.33322692  0.75029470  1
  Fe  Fe185  1  0.49965314  -0.00086298  0.74959858  1
  Fe  Fe186  1  0.24943597  -0.00042685  0.12493236  1
  Fe  Fe187  1  0.25035467  0.49961968  0.87450058  1
  Fe  Fe188  1  0.49978877  -0.00079722  0.25061274  1
  Fe  Fe189  1  0.75004052  0.33302570  0.62531916  1
  Fe  Fe190  1  0.25025532  0.83302302  0.37500997  1
  Fe  Fe191  1  0.00024680  0.83338525  -0.00021344  1
  P  P192  1  0.04292203  0.25171872  0.10217988  1
  P  P193  1  0.04221676  0.24891085  0.35236861  1
  P  P194  1  0.04251385  0.25140502  0.60237949  1
  P  P195  1  0.04276534  0.24963074  0.85222980  1
  P  P196  1  0.04190267  0.58380492  0.10142886  1
  P  P197  1  0.04160912  0.58340966  0.35051438  1
  P  P198  1  0.04340789  0.58422492  0.60336649  1
  P  P199  1  0.04187781  0.58524587  0.85344087  1
  P  P200  1  0.04210077  0.91557577  0.10198786  1
  P  P201  1  0.04329849  0.91694350  0.35331193  1
  P  P202  1  0.04206379  0.91860266  0.60343813  1
  P  P203  1  0.04137923  0.91687084  0.85178018  1
  P  P204  1  0.54268255  0.24988591  0.10430300  1
  P  P205  1  0.54195033  0.25100120  0.35329702  1
  P  P206  1  0.54167128  0.25096179  0.60287446  1
  P  P207  1  0.54214987  0.25102836  0.85250574  1
  P  P208  1  0.54162917  0.58440960  0.10364442  1
  P  P209  1  0.54108903  0.58342945  0.35219414  1
  P  P210  1  0.54215767  0.58418754  0.60274929  1
  P  P211  1  0.54210479  0.58489577  0.85252637  1
  P  P212  1  0.54235184  0.91616821  0.10390477  1
  P  P213  1  0.54172609  0.91725314  0.35354960  1
  P  P214  1  0.54094253  0.91617910  0.60188582  1
  P  P215  1  0.54175878  0.91704548  0.85227014  1
  P  P216  1  0.45734934  0.08158352  0.14828940  1
  P  P217  1  0.45768373  0.08137862  0.39770375  1
  P  P218  1  0.45769551  0.08109926  0.64707463  1
  P  P219  1  0.45691586  0.08305661  0.89639291  1
  P  P220  1  0.45816292  0.41654294  0.14932705  1
  P  P221  1  0.45817780  0.41516872  0.39707437  1
  P  P222  1  0.45756336  0.41469040  0.64719722  1
  P  P223  1  0.45729112  0.41653535  0.89657211  1
  P  P224  1  0.45729588  0.74801181  0.14807466  1
  P  P225  1  0.45851015  0.74887158  0.39854356  1
  P  P226  1  0.45731736  0.74803496  0.64657738  1
  P  P227  1  0.45747136  0.74807026  0.89745706  1
  P  P228  1  0.95808129  0.08516341  0.14726176  1
  P  P229  1  0.95797121  0.08255448  0.39752587  1
  P  P230  1  0.95881065  0.08395499  0.64845969  1
  P  P231  1  0.95784032  0.08379402  0.89562301  1
  P  P232  1  0.95854390  0.41872204  0.14599115  1
  P  P233  1  0.95854008  0.41584257  0.39661386  1
  P  P234  1  0.95710354  0.41718915  0.64641616  1
  P  P235  1  0.95880106  0.41728093  0.89841412  1
  P  P236  1  0.95828268  0.74887325  0.14629418  1
  P  P237  1  0.95735675  0.74978372  0.39630423  1
  P  P238  1  0.95852547  0.75077674  0.64910276  1
  P  P239  1  0.95873603  0.75065132  0.89805823  1
  P  P240  1  0.20780109  0.08179879  0.22757242  1
  P  P241  1  0.20807209  0.08415239  0.47826327  1
  P  P242  1  0.20906344  0.08353198  0.72649051  1
  P  P243  1  0.20745866  0.08407350  0.97725949  1
  P  P244  1  0.20774318  0.41612078  0.22905055  1
  P  P245  1  0.20849630  0.41638692  0.47652003  1
  P  P246  1  0.20781674  0.41750861  0.72776059  1
  P  P247  1  0.20880827  0.41665121  0.97587656  1
  P  P248  1  0.20814410  0.75084510  0.22810998  1
  P  P249  1  0.20841544  0.74994882  0.47634600  1
  P  P250  1  0.20714731  0.74959245  0.72846517  1
  P  P251  1  0.20799037  0.75189485  0.97755956  1
  P  P252  1  0.70808794  0.08254991  0.22795608  1
  P  P253  1  0.70754342  0.08253576  0.47715762  1
  P  P254  1  0.70706799  0.08365214  0.72919568  1
  P  P255  1  0.70837772  0.08311058  0.97704903  1
  P  P256  1  0.70795034  0.41801257  0.22771990  1
  P  P257  1  0.70766904  0.41493251  0.47770509  1
  P  P258  1  0.70758962  0.41543735  0.72748238  1
  P  P259  1  0.70683860  0.41738617  0.97865949  1
  P  P260  1  0.70754321  0.75250116  0.22740253  1
  P  P261  1  0.70697496  0.75052859  0.47814897  1
  P  P262  1  0.70735512  0.75017028  0.72908601  1
  P  P263  1  0.70790327  0.74924552  0.97814830  1
  P  P264  1  0.29271849  0.24985234  0.02083585  1
  P  P265  1  0.29130220  0.24888598  0.27388648  1
  P  P266  1  0.29187941  0.24844188  0.52183577  1
  P  P267  1  0.29108751  0.24908266  0.77275197  1
  P  P268  1  0.29262180  0.58301461  0.02151150  1
  P  P269  1  0.29096910  0.58286371  0.27366683  1
  P  P270  1  0.29160079  0.58125389  0.52140305  1
  P  P271  1  0.29194680  0.58133627  0.77184898  1
  P  P272  1  0.29127753  0.91635370  0.02344019  1
  P  P273  1  0.29226416  0.91467645  0.27222135  1
  P  P274  1  0.29188462  0.91707323  0.52225260  1
  P  P275  1  0.29205910  0.91551140  0.77216333  1
  P  P276  1  0.79326281  0.24933550  0.02142919  1
  P  P277  1  0.79279478  0.25194733  0.27245002  1
  P  P278  1  0.79218243  0.25151313  0.52224987  1
  P  P279  1  0.79216284  0.24923095  0.77254781  1
  P  P280  1  0.79204396  0.58278646  0.02236682  1
  P  P281  1  0.79247146  0.58360481  0.27113440  1
  P  P282  1  0.79334102  0.58329460  0.52167510  1
  P  P283  1  0.79270363  0.58479829  0.77292834  1
  P  P284  1  0.79144783  0.91735610  0.02322443  1
  P  P285  1  0.79248958  0.91892170  0.27156235  1
  P  P286  1  0.79332615  0.91739849  0.52185661  1
  P  P287  1  0.79250313  0.91836478  0.77340452  1
  O  O288  1  0.03760832  0.25103292  0.18207691  1
  O  O289  1  0.03689338  0.24944368  0.43227480  1
  O  O290  1  0.03735323  0.25075283  0.68230619  1
  O  O291  1  0.03772080  0.25031811  0.93211581  1
  O  O292  1  0.03657808  0.58354652  0.18132319  1
  O  O293  1  0.03705034  0.58312462  0.43050111  1
  O  O294  1  0.03826479  0.58464128  0.68327685  1
  O  O295  1  0.03632918  0.58472719  0.93330415  1
  O  O296  1  0.03725212  0.91576232  0.18192386  1
  O  O297  1  0.03815323  0.91738769  0.43325224  1
  O  O298  1  0.03657898  0.91844480  0.68330458  1
  O  O299  1  0.03654392  0.91601495  0.93172753  1
  O  O300  1  0.53736254  0.24991479  0.18425957  1
  O  O301  1  0.53660638  0.25101888  0.43324329  1
  O  O302  1  0.53623701  0.25099262  0.68278984  1
  O  O303  1  0.53716925  0.25055128  0.93250179  1
  O  O304  1  0.53608802  0.58400843  0.18348545  1
  O  O305  1  0.53649337  0.58321123  0.43219037  1
  O  O306  1  0.53675444  0.58417477  0.68263894  1
  O  O307  1  0.53668301  0.58468043  0.93246695  1
  O  O308  1  0.53732317  0.91639657  0.18385534  1
  O  O309  1  0.53618810  0.91696181  0.43340055  1
  O  O310  1  0.53591822  0.91623347  0.68186147  1
  O  O311  1  0.53683375  0.91659509  0.93221486  1
  O  O312  1  0.46231716  0.08226722  0.06830645  1
  O  O313  1  0.46298947  0.08144559  0.31778674  1
  O  O314  1  0.46321608  0.08121219  0.56716222  1
  O  O315  1  0.46203681  0.08272475  0.81643725  1
  O  O316  1  0.46278695  0.41718152  0.06930281  1
  O  O317  1  0.46344173  0.41550501  0.31721522  1
  O  O318  1  0.46307880  0.41441470  0.56725672  1
  O  O319  1  0.46258584  0.41622005  0.81665264  1
  O  O320  1  0.46248812  0.74793512  0.06814058  1
  O  O321  1  0.46327532  0.74898975  0.31857178  1
  O  O322  1  0.46297788  0.74837791  0.56675965  1
  O  O323  1  0.46251946  0.74839363  0.81750466  1
  O  O324  1  0.96305077  0.08499253  0.06732718  1
  O  O325  1  0.96324456  0.08320526  0.31762947  1
  O  O326  1  0.96365924  0.08350750  0.56847087  1
  O  O327  1  0.96336292  0.08383701  0.81577100  1
  O  O328  1  0.96395375  0.41866452  0.06615465  1
  O  O329  1  0.96383006  0.41644231  0.31670138  1
  O  O330  1  0.96246774  0.41662092  0.56650502  1
  O  O331  1  0.96354391  0.41730815  0.81841624  1
  O  O332  1  0.96387938  0.74937954  0.06645456  1
  O  O333  1  0.96234141  0.74916587  0.31636691  1
  O  O334  1  0.96321276  0.75110333  0.56912775  1
  O  O335  1  0.96384108  0.75085319  0.81816847  1
  O  O336  1  0.21266871  0.08320851  0.05716056  1
  O  O337  1  0.21293291  0.08216858  0.30749269  1
  O  O338  1  0.21379955  0.08391521  0.55807576  1
  O  O339  1  0.21387443  0.08371940  0.80646927  1
  O  O340  1  0.21333169  0.41624321  0.05589964  1
  O  O341  1  0.21291461  0.41605183  0.30894026  1
  O  O342  1  0.21326461  0.41661683  0.55650799  1
  O  O343  1  0.21356468  0.41723049  0.80758359  1
  O  O344  1  0.21340025  0.75219014  0.05750169  1
  O  O345  1  0.21334867  0.75034791  0.30799170  1
  O  O346  1  0.21306338  0.74933431  0.55633384  1
  O  O347  1  0.21265102  0.75009883  0.80833602  1
  O  O348  1  0.71374755  0.08258233  0.05701659  1
  O  O349  1  0.71331865  0.08254794  0.30788704  1
  O  O350  1  0.71242308  0.08298914  0.55713387  1
  O  O351  1  0.71225254  0.08362063  0.80910055  1
  O  O352  1  0.71220250  0.41801664  0.05856323  1
  O  O353  1  0.71335847  0.41705208  0.30765300  1
  O  O354  1  0.71292729  0.41467320  0.55765492  1
  O  O355  1  0.71249663  0.41590622  0.80745412  1
  O  O356  1  0.71296624  0.74991390  0.05806812  1
  O  O357  1  0.71265996  0.75241764  0.30731664  1
  O  O358  1  0.71202579  0.75035338  0.55812047  1
  O  O359  1  0.71264153  0.74970001  0.80906031  1
  O  O360  1  0.28678976  0.24934770  0.19387010  1
  O  O361  1  0.28646751  0.24841841  0.44201209  1
  O  O362  1  0.28611684  0.24911273  0.69277259  1
  O  O363  1  0.28737697  0.24994421  0.94096540  1
  O  O364  1  0.28654839  0.58344060  0.19363679  1
  O  O365  1  0.28588235  0.58176769  0.44153776  1
  O  O366  1  0.28645212  0.58110352  0.69193625  1
  O  O367  1  0.28748458  0.58262365  0.94158458  1
  O  O368  1  0.28682254  0.91477148  0.19239506  1
  O  O369  1  0.28684598  0.91666951  0.44232840  1
  O  O370  1  0.28685613  0.91621080  0.69227932  1
  O  O371  1  0.28628517  0.91614450  0.94344073  1
  O  O372  1  0.78787776  0.25155866  0.19250969  1
  O  O373  1  0.78696245  0.25156938  0.44229280  1
  O  O374  1  0.78681284  0.25018986  0.69259581  1
  O  O375  1  0.78779699  0.24870539  0.94154331  1
  O  O376  1  0.78715951  0.58315899  0.19121221  1
  O  O377  1  0.78808507  0.58339672  0.44172277  1
  O  O378  1  0.78809283  0.58446986  0.69292077  1
  O  O379  1  0.78670830  0.58361510  0.94244290  1
  O  O380  1  0.78682992  0.91878816  0.19168897  1
  O  O381  1  0.78852358  0.91793058  0.44187243  1
  O  O382  1  0.78774577  0.91787409  0.69344734  1
  O  O383  1  0.78615015  0.91763238  0.94328667  1
  O  O384  1  0.22846273  0.24953333  0.05652012  1
  O  O385  1  0.22705554  0.24854077  0.30948161  1
  O  O386  1  0.22777113  0.24836352  0.55804008  1
  O  O387  1  0.22704327  0.24872471  0.80888854  1
  O  O388  1  0.22825775  0.58333784  0.05678325  1
  O  O389  1  0.22666690  0.58227233  0.30907350  1
  O  O390  1  0.22753167  0.58063290  0.55781143  1
  O  O391  1  0.22785720  0.58155573  0.80801030  1
  O  O392  1  0.22711885  0.91670568  0.05950416  1
  O  O393  1  0.22809882  0.91451448  0.30834526  1
  O  O394  1  0.22760585  0.91771836  0.55784564  1
  O  O395  1  0.22776103  0.91514432  0.80792465  1
  O  O396  1  0.72896568  0.24978396  0.05688194  1
  O  O397  1  0.72837829  0.25202981  0.30781444  1
  O  O398  1  0.72786339  0.25173046  0.55794470  1
  O  O399  1  0.72793790  0.24834504  0.80838266  1
  O  O400  1  0.72785470  0.58240434  0.05833978  1
  O  O401  1  0.72815819  0.58349424  0.30652867  1
  O  O402  1  0.72889411  0.58305582  0.55671821  1
  O  O403  1  0.72815237  0.58501676  0.80784183  1
  O  O404  1  0.72732612  0.91715658  0.05934958  1
  O  O405  1  0.72835716  0.91963905  0.30787979  1
  O  O406  1  0.72871710  0.91709557  0.55660557  1
  O  O407  1  0.72802158  0.91838528  0.80850351  1
  O  O408  1  0.27208357  0.08100433  0.19183715  1
  O  O409  1  0.27212116  0.08427229  0.44184846  1
  O  O410  1  0.27319105  0.08351313  0.69051781  1
  O  O411  1  0.27173464  0.08451028  0.94148328  1
  O  O412  1  0.27207463  0.41624109  0.19352783  1
  O  O413  1  0.27265133  0.41695413  0.44068371  1
  O  O414  1  0.27182970  0.41751284  0.69118419  1
  O  O415  1  0.27303566  0.41682433  0.94030698  1
  O  O416  1  0.27233547  0.75133120  0.19213565  1
  O  O417  1  0.27269708  0.75029807  0.44080606  1
  O  O418  1  0.27133248  0.74930038  0.69277665  1
  O  O419  1  0.27217229  0.75162924  0.94160571  1
  O  O420  1  0.77239559  0.08211340  0.19231280  1
  O  O421  1  0.77198857  0.08260346  0.44186678  1
  O  O422  1  0.77140871  0.08402515  0.69370152  1
  O  O423  1  0.77248058  0.08322050  0.94075421  1
  O  O424  1  0.77214701  0.41893913  0.19171690  1
  O  O425  1  0.77201297  0.41490939  0.44205061  1
  O  O426  1  0.77204603  0.41488905  0.69222081  1
  O  O427  1  0.77120273  0.41689720  0.94340752  1
  O  O428  1  0.77181400  0.75249991  0.19179881  1
  O  O429  1  0.77145230  0.75083600  0.44319928  1
  O  O430  1  0.77180845  0.75050028  0.69394796  1
  O  O431  1  0.77216794  0.74944707  0.94248775  1
  O  O432  1  0.02249138  0.08538635  0.18265534  1
  O  O433  1  0.02218036  0.08235155  0.43346635  1
  O  O434  1  0.02303518  0.08390234  0.68439187  1
  O  O435  1  0.02201594  0.08354169  0.93147328  1
  O  O436  1  0.02264075  0.41834462  0.18220868  1
  O  O437  1  0.02278560  0.41533657  0.43256392  1
  O  O438  1  0.02146104  0.41757025  0.68174391  1
  O  O439  1  0.02306368  0.41727110  0.93412532  1
  O  O440  1  0.02235796  0.74818806  0.18267691  1
  O  O441  1  0.02178953  0.75050223  0.43149333  1
  O  O442  1  0.02279123  0.75012755  0.68472436  1
  O  O443  1  0.02281883  0.75056896  0.93440000  1
  O  O444  1  0.52174605  0.08161859  0.18365333  1
  O  O445  1  0.52191919  0.08141624  0.43350390  1
  O  O446  1  0.52183062  0.08141198  0.68312751  1
  O  O447  1  0.52133778  0.08301679  0.93164239  1
  O  O448  1  0.52243722  0.41606929  0.18483682  1
  O  O449  1  0.52228721  0.41534456  0.43328080  1
  O  O450  1  0.52175459  0.41480437  0.68318612  1
  O  O451  1  0.52151622  0.41709122  0.93224102  1
  O  O452  1  0.52161838  0.74777326  0.18372734  1
  O  O453  1  0.52268052  0.74881265  0.43441124  1
  O  O454  1  0.52137391  0.74806808  0.68309235  1
  O  O455  1  0.52177877  0.74769610  0.93324105  1
  O  O456  1  0.47829853  0.24970478  0.06897369  1
  O  O457  1  0.47770273  0.25077639  0.31749117  1
  O  O458  1  0.47748834  0.25032972  0.56696041  1
  O  O459  1  0.47777331  0.25120026  0.81698882  1
  O  O460  1  0.47748034  0.58497269  0.06731057  1
  O  O461  1  0.47680722  0.58378934  0.31651487  1
  O  O462  1  0.47795034  0.58394436  0.56680776  1
  O  O463  1  0.47786860  0.58478634  0.81658240  1
  O  O464  1  0.47797064  0.91575766  0.06866652  1
  O  O465  1  0.47761552  0.91727768  0.31726127  1
  O  O466  1  0.47683477  0.91622846  0.56583628  1
  O  O467  1  0.47737540  0.91712661  0.81685613  1
  O  O468  1  0.97861429  0.25244907  0.06649450  1
  O  O469  1  0.97804934  0.24893871  0.31633717  1
  O  O470  1  0.97821938  0.25202405  0.56663823  1
  O  O471  1  0.97842366  0.24902258  0.81663037  1
  O  O472  1  0.97786281  0.58392370  0.06502307  1
  O  O473  1  0.97738760  0.58383566  0.31473918  1
  O  O474  1  0.97897372  0.58365709  0.56821124  1
  O  O475  1  0.97781779  0.58603662  0.81705173  1
  O  O476  1  0.97771303  0.91532667  0.06662386  1
  O  O477  1  0.97896731  0.91684006  0.31795279  1
  O  O478  1  0.97796646  0.91889077  0.56709024  1
  O  O479  1  0.97720179  0.91792790  0.81594931  1
  O  O480  1  0.07370641  0.31541910  0.07385736  1
  O  O481  1  0.07372870  0.31211073  0.32422581  1
  O  O482  1  0.07332919  0.31495200  0.57387770  1
  O  O483  1  0.07366718  0.31324143  0.82409111  1
  O  O484  1  0.07291852  0.64745230  0.07323154  1
  O  O485  1  0.07253633  0.64703728  0.32242994  1
  O  O486  1  0.07423131  0.64765393  0.57457953  1
  O  O487  1  0.07316846  0.64862620  0.82523090  1
  O  O488  1  0.07280954  0.97942695  0.07410152  1
  O  O489  1  0.07457015  0.98011460  0.32465174  1
  O  O490  1  0.07295892  0.98202695  0.57466235  1
  O  O491  1  0.07287413  0.98034951  0.82400314  1
  O  O492  1  0.57375985  0.31334570  0.07611576  1
  O  O493  1  0.57278169  0.31428359  0.32436836  1
  O  O494  1  0.57229913  0.31439357  0.57401323  1
  O  O495  1  0.57283822  0.31468718  0.82431070  1
  O  O496  1  0.57287744  0.64763581  0.07494825  1
  O  O497  1  0.57237430  0.64675412  0.32390716  1
  O  O498  1  0.57308688  0.64744699  0.57397602  1
  O  O499  1  0.57297396  0.64823542  0.82392287  1
  O  O500  1  0.57343357  0.97947087  0.07539681  1
  O  O501  1  0.57249317  0.98075083  0.32478022  1
  O  O502  1  0.57225259  0.97954879  0.57371209  1
  O  O503  1  0.57228342  0.98071325  0.82378952  1
  O  O504  1  0.42698101  0.01772913  0.17649605  1
  O  O505  1  0.42662872  0.01810452  0.42631604  1
  O  O506  1  0.42700673  0.01759517  0.67568158  1
  O  O507  1  0.42559169  0.01983717  0.92491668  1
  O  O508  1  0.42709485  0.35285451  0.17709157  1
  O  O509  1  0.42740078  0.35161234  0.42571283  1
  O  O510  1  0.42647288  0.35154999  0.67615454  1
  O  O511  1  0.42632599  0.35319106  0.92516308  1
  O  O512  1  0.42606567  0.68496881  0.17708145  1
  O  O513  1  0.42735811  0.68540636  0.42670207  1
  O  O514  1  0.42640581  0.68457856  0.67512870  1
  O  O515  1  0.42631239  0.68491032  0.92609164  1
  O  O516  1  0.92723608  0.02135676  0.17494893  1
  O  O517  1  0.92744374  0.01890495  0.42607209  1
  O  O518  1  0.92763191  0.02069484  0.67705310  1
  O  O519  1  0.92659331  0.02039695  0.92412772  1
  O  O520  1  0.92697097  0.35538090  0.17406585  1
  O  O521  1  0.92790359  0.35211278  0.42497020  1
  O  O522  1  0.92600632  0.35395921  0.67518530  1
  O  O523  1  0.92824101  0.35339624  0.92642797  1
  O  O524  1  0.92709500  0.68545285  0.17462579  1
  O  O525  1  0.92657747  0.68638151  0.42516287  1
  O  O526  1  0.92737696  0.68736072  0.67730452  1
  O  O527  1  0.92774357  0.68710610  0.92642735  1
  O  O528  1  0.17684365  0.01837038  0.19910813  1
  O  O529  1  0.17684452  0.02069172  0.45019113  1
  O  O530  1  0.17865456  0.01950304  0.69842085  1
  O  O531  1  0.17648011  0.02056645  0.94893325  1
  O  O532  1  0.17673156  0.35273987  0.20048637  1
  O  O533  1  0.17870802  0.35193891  0.44855512  1
  O  O534  1  0.17668703  0.35386196  0.69978544  1
  O  O535  1  0.17840777  0.35292968  0.94716167  1
  O  O536  1  0.17737696  0.68718944  0.19959694  1
  O  O537  1  0.17809680  0.68605944  0.44779110  1
  O  O538  1  0.17610572  0.68598155  0.70065372  1
  O  O539  1  0.17694616  0.68803309  0.95033073  1
  O  O540  1  0.67677253  0.01963161  0.19902499  1
  O  O541  1  0.67707214  0.01895802  0.44876010  1
  O  O542  1  0.67616214  0.02018786  0.70063512  1
  O  O543  1  0.67731382  0.01960588  0.94884812  1
  O  O544  1  0.67712483  0.35443964  0.19954736  1
  O  O545  1  0.67666621  0.35190263  0.44858566  1
  O  O546  1  0.67668735  0.35199034  0.69932841  1
  O  O547  1  0.67569906  0.35369734  0.95110805  1
  O  O548  1  0.67649359  0.68876186  0.19998943  1
  O  O549  1  0.67624241  0.68695582  0.44984474  1
  O  O550  1  0.67617593  0.68706893  0.70041342  1
  O  O551  1  0.67773768  0.68533935  0.94973068  1
  O  O552  1  0.32370224  0.31323736  0.04957412  1
  O  O553  1  0.32159878  0.31271026  0.30253872  1
  O  O554  1  0.32295449  0.31206553  0.54982720  1
  O  O555  1  0.32118542  0.31332869  0.80079024  1
  O  O556  1  0.32355447  0.64664056  0.04951283  1
  O  O557  1  0.32107688  0.64680658  0.30227521  1
  O  O558  1  0.32237258  0.64499042  0.54960086  1
  O  O559  1  0.32304934  0.64511735  0.79925598  1
  O  O560  1  0.32192141  0.98025013  0.05142853  1
  O  O561  1  0.32325086  0.97831090  0.30024236  1
  O  O562  1  0.32263322  0.98062443  0.55073062  1
  O  O563  1  0.32304843  0.97892472  0.80057239  1
  O  O564  1  0.82436940  0.31304012  0.04893830  1
  O  O565  1  0.82344476  0.31553149  0.30065802  1
  O  O566  1  0.82331023  0.31452448  0.55117125  1
  O  O567  1  0.82316409  0.31271290  0.80085612  1
  O  O568  1  0.82325427  0.64620079  0.05044225  1
  O  O569  1  0.82318325  0.64754656  0.29865925  1
  O  O570  1  0.82435960  0.64672388  0.54982470  1
  O  O571  1  0.82314659  0.64831177  0.80182217  1
  O  O572  1  0.82253837  0.98080172  0.05136126  1
  O  O573  1  0.82383890  0.98200676  0.30032312  1
  O  O574  1  0.82432016  0.98061591  0.55061533  1
  O  O575  1  0.82301805  0.98195544  0.80178281  1
  O  O576  1  0.42599661  0.14498727  0.17634962  1
  O  O577  1  0.42673213  0.14522520  0.42541317  1
  O  O578  1  0.42637204  0.14479987  0.67452801  1
  O  O579  1  0.42617574  0.14677308  0.92458135  1
  O  O580  1  0.42785037  0.48042466  0.17796336  1
  O  O581  1  0.42681572  0.47864425  0.42518042  1
  O  O582  1  0.42658595  0.47871065  0.67437368  1
  O  O583  1  0.42604752  0.48011842  0.92439748  1
  O  O584  1  0.42657832  0.81194037  0.17583417  1
  O  O585  1  0.42812165  0.81284529  0.42692979  1
  O  O586  1  0.42600634  0.81157250  0.67471312  1
  O  O587  1  0.42689057  0.81207633  0.92545583  1
  O  O588  1  0.92743233  0.14873696  0.17585999  1
  O  O589  1  0.92657075  0.14596325  0.42562255  1
  O  O590  1  0.92836165  0.14817245  0.67604595  1
  O  O591  1  0.92657595  0.14709917  0.92398077  1
  O  O592  1  0.92792098  0.48226334  0.17493596  1
  O  O593  1  0.92738978  0.47935674  0.42464580  1
  O  O594  1  0.92594560  0.48073965  0.67445431  1
  O  O595  1  0.92791528  0.48105634  0.92618015  1
  O  O596  1  0.92726678  0.81247818  0.17448657  1
  O  O597  1  0.92610396  0.81329541  0.42430650  1
  O  O598  1  0.92828225  0.81484265  0.67747326  1
  O  O599  1  0.92783027  0.81431489  0.92653602  1
  O  O600  1  0.07399279  0.18824548  0.07398822  1
  O  O601  1  0.07263853  0.18496944  0.32417702  1
  O  O602  1  0.07351419  0.18780691  0.57435123  1
  O  O603  1  0.07356182  0.18606080  0.82375042  1
  O  O604  1  0.07301591  0.52032423  0.07290647  1
  O  O605  1  0.07200740  0.51950105  0.32215456  1
  O  O606  1  0.07463070  0.52082882  0.57504365  1
  O  O607  1  0.07267753  0.52146021  0.82537680  1
  O  O608  1  0.07297451  0.85209418  0.07362976  1
  O  O609  1  0.07424193  0.85327403  0.32532577  1
  O  O610  1  0.07321034  0.85492020  0.57550046  1
  O  O611  1  0.07159196  0.85307392  0.82281173  1
  O  O612  1  0.57375596  0.18635625  0.07604026  1
  O  O613  1  0.57316471  0.18716884  0.32600294  1
  O  O614  1  0.57319395  0.18729649  0.57544192  1
  O  O615  1  0.57312376  0.18741309  0.82449621  1
  O  O616  1  0.57251014  0.52069617  0.07538129  1
  O  O617  1  0.57125376  0.51936026  0.32364445  1
  O  O618  1  0.57329477  0.52036565  0.57521786  1
  O  O619  1  0.57321795  0.52115513  0.82473185  1
  O  O620  1  0.57337031  0.85257611  0.07572250  1
  O  O621  1  0.57310586  0.85373173  0.32560654  1
  O  O622  1  0.57135230  0.85211778  0.57371310  1
  O  O623  1  0.57288463  0.85345375  0.82437913  1
  O  O624  1  0.32413980  0.18654925  0.04945715  1
  O  O625  1  0.32235077  0.18512264  0.30158549  1
  O  O626  1  0.32303157  0.18518407  0.55081804  1
  O  O627  1  0.32262666  0.18583356  0.80094184  1
  O  O628  1  0.32379193  0.51974099  0.05028971  1
  O  O629  1  0.32225858  0.51934580  0.30151302  1
  O  O630  1  0.32300530  0.51793103  0.54976668  1
  O  O631  1  0.32299543  0.51801707  0.80057697  1
  O  O632  1  0.32226698  0.85279748  0.05179747  1
  O  O633  1  0.32336739  0.85140648  0.30131932  1
  O  O634  1  0.32289930  0.85340844  0.55024810  1
  O  O635  1  0.32292098  0.85185664  0.80054991  1
  O  O636  1  0.82449225  0.18613779  0.05019634  1
  O  O637  1  0.82372555  0.18822095  0.30049237  1
  O  O638  1  0.82290418  0.18741256  0.54994111  1
  O  O639  1  0.82322275  0.18559558  0.80053705  1
  O  O640  1  0.82282875  0.51904048  0.05050226  1
  O  O641  1  0.82406156  0.52055416  0.29971531  1
  O  O642  1  0.82441914  0.51965959  0.54962828  1
  O  O643  1  0.82364359  0.52095826  0.80073299  1
  O  O644  1  0.82213107  0.85337325  0.05125014  1
  O  O645  1  0.82331293  0.85499448  0.29948594  1
  O  O646  1  0.82423113  0.85372149  0.55018205  1
  O  O647  1  0.82360094  0.85481515  0.80159306  1
  O  O648  1  0.17700691  0.14551064  0.19936868  1
  O  O649  1  0.17701706  0.14758823  0.44956420  1
  O  O650  1  0.17786425  0.14695624  0.69806634  1
  O  O651  1  0.17661605  0.14766344  0.94887349  1
  O  O652  1  0.17654437  0.47954195  0.20039300  1
  O  O653  1  0.17665746  0.47932325  0.44793388  1
  O  O654  1  0.17666356  0.48083578  0.69915155  1
  O  O655  1  0.17778977  0.48043458  0.94812402  1
  O  O656  1  0.17685358  0.81410195  0.19939381  1
  O  O657  1  0.17737851  0.81368676  0.44867637  1
  O  O658  1  0.17584857  0.81286297  0.69994284  1
  O  O659  1  0.17707813  0.81522061  0.94861646  1
  O  O660  1  0.67746044  0.14670671  0.20033255  1
  O  O661  1  0.67642662  0.14626111  0.44934115  1
  O  O662  1  0.67564548  0.14683987  0.70038351  1
  O  O663  1  0.67772717  0.14708543  0.94912709  1
  O  O664  1  0.67681294  0.48167258  0.19987054  1
  O  O665  1  0.67678290  0.47900755  0.45020193  1
  O  O666  1  0.67699359  0.47937278  0.69942839  1
  O  O667  1  0.67559756  0.48056138  0.94983701  1
  O  O668  1  0.67683637  0.81607069  0.19882202  1
  O  O669  1  0.67580193  0.81400467  0.45009386  1
  O  O670  1  0.67636067  0.81398376  0.70117143  1
  O  O671  1  0.67621097  0.81256462  0.95015891  1
