# generated using pymatgen
data_Na2MnFe(PO4)2
_symmetry_space_group_name_H-M   'P 1'
_cell_length_a   22.34197668
_cell_length_b   20.09422311
_cell_length_c   19.44951765
_cell_angle_alpha   89.99916990
_cell_angle_beta   89.95557650
_cell_angle_gamma   89.93084869
_symmetry_Int_Tables_number   1
_chemical_formula_structural   Na2MnFe(PO4)2
_chemical_formula_sum   'Na96 Mn48 Fe48 P96 O384'
_cell_volume   8731.74818236
_cell_formula_units_Z   48
loop_
 _symmetry_equiv_pos_site_id
 _symmetry_equiv_pos_as_xyz
  1  'x, y, z'
loop_
 _atom_site_type_symbol
 _atom_site_label
 _atom_site_symmetry_multiplicity
 _atom_site_fract_x
 _atom_site_fract_y
 _atom_site_fract_z
 _atom_site_occupancy
  Na  Na0  1  0.14041975  0.25091152  0.24183855  1
  Na  Na1  1  0.14043666  0.25080983  0.49546726  1
  Na  Na2  1  0.14060820  0.24974647  0.74419174  1
  Na  Na3  1  0.14006453  0.24983091  0.99275679  1
  Na  Na4  1  0.14040120  0.58441228  0.24296325  1
  Na  Na5  1  0.13999064  0.58310510  0.49429665  1
  Na  Na6  1  0.14009989  0.58168887  0.74440131  1
  Na  Na7  1  0.14004640  0.58349362  0.99290438  1
  Na  Na8  1  0.13993779  0.91743463  0.24268673  1
  Na  Na9  1  0.14053640  0.91661695  0.49409183  1
  Na  Na10  1  0.13997486  0.91692285  0.74508796  1
  Na  Na11  1  0.14052174  0.91678625  0.99386122  1
  Na  Na12  1  0.64096613  0.24896824  0.24302300  1
  Na  Na13  1  0.64089999  0.24855447  0.49435835  1
  Na  Na14  1  0.64113121  0.24918509  0.74340326  1
  Na  Na15  1  0.64038430  0.24915224  0.99372849  1
  Na  Na16  1  0.64052343  0.58342101  0.24418522  1
  Na  Na17  1  0.64075104  0.58443081  0.49286241  1
  Na  Na18  1  0.64070885  0.58392980  0.74226561  1
  Na  Na19  1  0.64075721  0.58326746  0.99372288  1
  Na  Na20  1  0.64035884  0.91700467  0.24447200  1
  Na  Na21  1  0.64021308  0.91624782  0.49312773  1
  Na  Na22  1  0.64106842  0.91774766  0.74202267  1
  Na  Na23  1  0.64067389  0.91743367  0.99434880  1
  Na  Na24  1  0.35939590  0.08269800  0.00585321  1
  Na  Na25  1  0.36004052  0.08364663  0.25605826  1
  Na  Na26  1  0.35986745  0.08311981  0.50671039  1
  Na  Na27  1  0.35978225  0.08169459  0.75710201  1
  Na  Na28  1  0.35954976  0.41549015  0.00660195  1
  Na  Na29  1  0.35897343  0.41713483  0.25449142  1
  Na  Na30  1  0.35930653  0.41643317  0.50588449  1
  Na  Na31  1  0.35957804  0.41498549  0.75583408  1
  Na  Na32  1  0.35953248  0.74943118  0.00577097  1
  Na  Na33  1  0.35960790  0.74997061  0.25667560  1
  Na  Na34  1  0.35993654  0.74894989  0.50696667  1
  Na  Na35  1  0.35961664  0.74892866  0.75640898  1
  Na  Na36  1  0.85926821  0.08457805  0.00697632  1
  Na  Na37  1  0.85963335  0.08336197  0.25621790  1
  Na  Na38  1  0.85910268  0.08294796  0.50695088  1
  Na  Na39  1  0.85957496  0.08450218  0.75658678  1
  Na  Na40  1  0.85986398  0.41656970  0.00671538  1
  Na  Na41  1  0.85940486  0.41719351  0.25523662  1
  Na  Na42  1  0.85873920  0.41642090  0.50693503  1
  Na  Na43  1  0.86028334  0.41710648  0.75728662  1
  Na  Na44  1  0.85974659  0.75130871  0.00753405  1
  Na  Na45  1  0.85951245  0.75112620  0.25668912  1
  Na  Na46  1  0.85945827  0.75076196  0.50617922  1
  Na  Na47  1  0.85907645  0.75163141  0.75585903  1
  Na  Na48  1  0.10955127  0.08365816  0.11747810  1
  Na  Na49  1  0.10941310  0.08307744  0.36873413  1
  Na  Na50  1  0.11001441  0.08287907  0.62002174  1
  Na  Na51  1  0.10993676  0.08482234  0.86840836  1
  Na  Na52  1  0.10942807  0.41725465  0.11619133  1
  Na  Na53  1  0.10961039  0.41707162  0.36918771  1
  Na  Na54  1  0.11000791  0.41766647  0.61943586  1
  Na  Na55  1  0.10993352  0.41737564  0.86899279  1
  Na  Na56  1  0.10934094  0.75072271  0.11824455  1
  Na  Na57  1  0.10980628  0.75014816  0.36845950  1
  Na  Na58  1  0.10938874  0.74997550  0.61970618  1
  Na  Na59  1  0.10915119  0.75075400  0.86970750  1
  Na  Na60  1  0.61043580  0.08331434  0.11912754  1
  Na  Na61  1  0.60989655  0.08182778  0.36877581  1
  Na  Na62  1  0.61011602  0.08179203  0.61855731  1
  Na  Na63  1  0.61034620  0.08249375  0.86796439  1
  Na  Na64  1  0.60996678  0.41546100  0.11864808  1
  Na  Na65  1  0.60961365  0.41577129  0.36851545  1
  Na  Na66  1  0.61012133  0.41635522  0.61849201  1
  Na  Na67  1  0.60990290  0.41498198  0.86839515  1
  Na  Na68  1  0.61005516  0.74919294  0.11990598  1
  Na  Na69  1  0.61016527  0.75060528  0.36884710  1
  Na  Na70  1  0.60969728  0.75031561  0.61678468  1
  Na  Na71  1  0.60988533  0.75048606  0.86794002  1
  Na  Na72  1  0.38990024  0.24931435  0.13119286  1
  Na  Na73  1  0.39034844  0.24836367  0.37980547  1
  Na  Na74  1  0.39052136  0.24901000  0.63170352  1
  Na  Na75  1  0.39040347  0.24843050  0.88099796  1
  Na  Na76  1  0.39031710  0.58255165  0.13084719  1
  Na  Na77  1  0.38985830  0.58450828  0.38094879  1
  Na  Na78  1  0.39038860  0.58283603  0.63050208  1
  Na  Na79  1  0.39063514  0.58194540  0.88069249  1
  Na  Na80  1  0.39031253  0.91593987  0.13168954  1
  Na  Na81  1  0.39084661  0.91593853  0.38170022  1
  Na  Na82  1  0.39032979  0.91628656  0.63198041  1
  Na  Na83  1  0.39002472  0.91625556  0.88089633  1
  Na  Na84  1  0.88972531  0.24983364  0.13143431  1
  Na  Na85  1  0.88988488  0.25052231  0.38141516  1
  Na  Na86  1  0.88990683  0.25084150  0.63292962  1
  Na  Na87  1  0.89050737  0.25222398  0.88228527  1
  Na  Na88  1  0.89012040  0.58481519  0.13083779  1
  Na  Na89  1  0.89000791  0.58436785  0.38111201  1
  Na  Na90  1  0.89014829  0.58375151  0.63133314  1
  Na  Na91  1  0.89069733  0.58371322  0.88215138  1
  Na  Na92  1  0.89018231  0.91718387  0.13190275  1
  Na  Na93  1  0.88981649  0.91625294  0.38150011  1
  Na  Na94  1  0.88941691  0.91736239  0.63179757  1
  Na  Na95  1  0.88975833  0.91867111  0.88186634  1
  Mn  Mn96  1  0.25021898  0.16598576  0.62524614  1
  Mn  Mn97  1  -0.00069392  0.66665862  0.75079069  1
  Mn  Mn98  1  0.00073050  0.83311856  0.50054290  1
  Mn  Mn99  1  0.50125033  0.49881708  -0.00012138  1
  Mn  Mn100  1  0.25039881  0.00010422  0.12446612  1
  Mn  Mn101  1  -0.00017059  0.00094855  0.00049576  1
  Mn  Mn102  1  0.75021152  0.16698368  0.87519568  1
  Mn  Mn103  1  0.74982723  0.83377063  0.12524773  1
  Mn  Mn104  1  0.24901969  0.50073081  0.37495740  1
  Mn  Mn105  1  0.75013008  0.49989196  0.62469767  1
  Mn  Mn106  1  0.24974512  0.16746314  0.37535595  1
  Mn  Mn107  1  -0.00021200  0.33355030  0.24925505  1
  Mn  Mn108  1  0.74961866  0.50010151  0.12534197  1
  Mn  Mn109  1  -0.00005308  0.50079221  0.24943661  1
  Mn  Mn110  1  0.25045546  0.83300125  0.37533838  1
  Mn  Mn111  1  0.50015221  0.83276629  0.25066830  1
  Mn  Mn112  1  0.49980072  0.50059106  0.49893980  1
  Mn  Mn113  1  0.49945691  0.16628070  -0.00052339  1
  Mn  Mn114  1  0.24993321  0.66714986  0.12414927  1
  Mn  Mn115  1  0.74982470  0.66762568  0.87431285  1
  Mn  Mn116  1  0.50016619  0.66602163  -0.00033790  1
  Mn  Mn117  1  -0.00104400  0.83444388  0.75031026  1
  Mn  Mn118  1  0.75027046  0.49952579  0.87444830  1
  Mn  Mn119  1  0.49992068  0.33205162  0.74920902  1
  Mn  Mn120  1  0.25002512  0.66565196  0.87535561  1
  Mn  Mn121  1  0.00035708  0.66784885  0.24950385  1
  Mn  Mn122  1  0.50023147  -0.00018520  0.00022221  1
  Mn  Mn123  1  0.49965192  0.33213810  0.24964097  1
  Mn  Mn124  1  0.49994514  0.83293955  0.74938936  1
  Mn  Mn125  1  0.00060671  0.16636169  0.25012069  1
  Mn  Mn126  1  -0.00002463  0.16765951  0.75045976  1
  Mn  Mn127  1  0.50035819  0.83291266  0.00004962  1
  Mn  Mn128  1  0.49996914  0.50022271  0.74916653  1
  Mn  Mn129  1  0.50036759  0.16466992  0.50033273  1
  Mn  Mn130  1  0.24986370  0.33397445  0.37397438  1
  Mn  Mn131  1  0.24927091  0.83332829  0.62566044  1
  Mn  Mn132  1  0.74960865  0.83492285  0.87512387  1
  Mn  Mn133  1  -0.00029558  0.33413751  0.50062518  1
  Mn  Mn134  1  0.50025048  0.33212433  0.49942879  1
  Mn  Mn135  1  0.75022797  0.16670944  0.37539727  1
  Mn  Mn136  1  -0.00009283  -0.00036793  0.49967469  1
  Mn  Mn137  1  0.74975329  0.49975645  0.37496198  1
  Mn  Mn138  1  0.49973022  0.50015720  0.24952672  1
  Mn  Mn139  1  -0.00091372  0.50121736  0.49997213  1
  Mn  Mn140  1  0.24927888  0.66517493  0.62633266  1
  Mn  Mn141  1  0.25013553  0.33284229  0.87512935  1
  Mn  Mn142  1  -0.00017425  0.16676049  0.50071233  1
  Mn  Mn143  1  0.24981942  0.00051615  0.37441835  1
  Fe  Fe144  1  0.75017423  0.33300067  0.87548780  1
  Fe  Fe145  1  0.50011772  0.66669491  0.25034465  1
  Fe  Fe146  1  0.00003016  0.00099543  0.75104315  1
  Fe  Fe147  1  0.74999594  0.83390893  0.62395815  1
  Fe  Fe148  1  -0.00050757  0.83366882  0.24980342  1
  Fe  Fe149  1  0.49972445  0.83316955  0.50001988  1
  Fe  Fe150  1  0.75018277  0.83388420  0.37541234  1
  Fe  Fe151  1  0.25019523  0.33279865  0.62527786  1
  Fe  Fe152  1  0.50058332  0.66680427  0.49994422  1
  Fe  Fe153  1  0.25024388  0.83342899  0.12487163  1
  Fe  Fe154  1  0.25026630  0.49906607  0.62467399  1
  Fe  Fe155  1  0.50040617  -0.00086337  0.74962801  1
  Fe  Fe156  1  0.75026741  0.00088040  0.87469499  1
  Fe  Fe157  1  0.50031946  0.66649525  0.74937201  1
  Fe  Fe158  1  0.25022906  0.49896158  0.87488815  1
  Fe  Fe159  1  0.74996722  0.00004177  0.37525180  1
  Fe  Fe160  1  0.74989485  0.66709116  0.12538191  1
  Fe  Fe161  1  0.24987829  -0.00073691  0.87566215  1
  Fe  Fe162  1  0.24951579  0.33344249  0.12403008  1
  Fe  Fe163  1  0.75018325  0.33310632  0.62539943  1
  Fe  Fe164  1  -0.00018034  0.33409489  -0.00034173  1
  Fe  Fe165  1  -0.00042888  -0.00016571  0.24938047  1
  Fe  Fe166  1  0.50044341  0.16537440  0.74998116  1
  Fe  Fe167  1  0.75014315  0.66748781  0.62403799  1
  Fe  Fe168  1  0.75046982  0.00009197  0.12538814  1
  Fe  Fe169  1  0.74990147  0.33279063  0.37528777  1
  Fe  Fe170  1  0.24981018  0.50055561  0.12473914  1
  Fe  Fe171  1  -0.00014752  0.50066794  -0.00039383  1
  Fe  Fe172  1  0.74956886  0.33309644  0.12542697  1
  Fe  Fe173  1  -0.00011347  0.83450869  0.00021494  1
  Fe  Fe174  1  0.75052750  0.16656014  0.62488235  1
  Fe  Fe175  1  0.24980421  0.83296192  0.87530205  1
  Fe  Fe176  1  0.24947144  0.16650722  0.12421404  1
  Fe  Fe177  1  -0.00048531  0.16748009  -0.00053622  1
  Fe  Fe178  1  0.24999547  -0.00048207  0.62609101  1
  Fe  Fe179  1  0.24989502  0.66676010  0.37476666  1
  Fe  Fe180  1  0.00028593  0.50037061  0.75103040  1
  Fe  Fe181  1  0.50069228  0.16565255  0.25001090  1
  Fe  Fe182  1  0.49929306  -0.00046899  0.50013929  1
  Fe  Fe183  1  0.00016506  0.66713229  0.50023104  1
  Fe  Fe184  1  0.50009932  0.33213212  -0.00038086  1
  Fe  Fe185  1  0.00046557  0.33447123  0.75115512  1
  Fe  Fe186  1  0.75026021  0.00008177  0.62466865  1
  Fe  Fe187  1  0.50035892  -0.00061042  0.25054372  1
  Fe  Fe188  1  0.74993855  0.16649978  0.12510223  1
  Fe  Fe189  1  0.75034320  0.66731770  0.37485715  1
  Fe  Fe190  1  0.25039482  0.16605080  0.87468727  1
  Fe  Fe191  1  -0.00055954  0.66762707  0.00015372  1
  P  P192  1  0.04098581  0.25017844  0.10091884  1
  P  P193  1  0.04313773  0.25036458  0.35302410  1
  P  P194  1  0.04242205  0.25082171  0.60447653  1
  P  P195  1  0.04204305  0.25220267  0.85357610  1
  P  P196  1  0.04122486  0.58405740  0.10094304  1
  P  P197  1  0.04280509  0.58430797  0.35311613  1
  P  P198  1  0.04195638  0.58465259  0.60312107  1
  P  P199  1  0.04188869  0.58245208  0.85382897  1
  P  P200  1  0.04197815  0.91593700  0.10315076  1
  P  P201  1  0.04128885  0.91651906  0.35117092  1
  P  P202  1  0.04282573  0.91731756  0.60401640  1
  P  P203  1  0.04155617  0.91837819  0.85349718  1
  P  P204  1  0.54211701  0.24993532  0.10241840  1
  P  P205  1  0.54281951  0.24758637  0.35221543  1
  P  P206  1  0.54280221  0.24836696  0.60345932  1
  P  P207  1  0.54247188  0.24805015  0.85224322  1
  P  P208  1  0.54328898  0.58318637  0.10349186  1
  P  P209  1  0.54216155  0.58485403  0.35264863  1
  P  P210  1  0.54268820  0.58465677  0.60217728  1
  P  P211  1  0.54296574  0.58402226  0.85171116  1
  P  P212  1  0.54294968  0.91643402  0.10401841  1
  P  P213  1  0.54197254  0.91740575  0.35357156  1
  P  P214  1  0.54112160  0.91668875  0.60160427  1
  P  P215  1  0.54290181  0.91722709  0.85174202  1
  P  P216  1  0.45881461  0.08278119  0.14868058  1
  P  P217  1  0.45775468  0.08128406  0.39693625  1
  P  P218  1  0.45846451  0.08214074  0.64842391  1
  P  P219  1  0.45754978  0.08244012  0.89583104  1
  P  P220  1  0.45749412  0.41566246  0.14604169  1
  P  P221  1  0.45695733  0.41604200  0.39629914  1
  P  P222  1  0.45717804  0.41656654  0.64628336  1
  P  P223  1  0.45806875  0.41449830  0.89734021  1
  P  P224  1  0.45752890  0.74841195  0.14790772  1
  P  P225  1  0.45885326  0.74952751  0.39837672  1
  P  P226  1  0.45794705  0.74837591  0.64661481  1
  P  P227  1  0.45735816  0.74960386  0.89617377  1
  P  P228  1  0.95794273  0.08276389  0.14718282  1
  P  P229  1  0.95688219  0.08321657  0.39656830  1
  P  P230  1  0.95771620  0.08253059  0.64819482  1
  P  P231  1  0.95755301  0.08530720  0.89752349  1
  P  P232  1  0.95736489  0.41739451  0.14542263  1
  P  P233  1  0.95645132  0.41728212  0.39696105  1
  P  P234  1  0.95863234  0.41758439  0.64934895  1
  P  P235  1  0.95884545  0.41752366  0.89799886  1
  P  P236  1  0.95755315  0.75204066  0.14671341  1
  P  P237  1  0.95797173  0.74946967  0.39751715  1
  P  P238  1  0.95699064  0.75001884  0.64701362  1
  P  P239  1  0.95806903  0.75119808  0.89899011  1
  P  P240  1  0.20742971  0.08460159  0.22669664  1
  P  P241  1  0.20704835  0.08332512  0.47872794  1
  P  P242  1  0.20819394  0.08169202  0.72887158  1
  P  P243  1  0.20878690  0.08357100  0.97670376  1
  P  P244  1  0.20777904  0.41740358  0.22554921  1
  P  P245  1  0.20716660  0.41658816  0.47876918  1
  P  P246  1  0.20886937  0.41608685  0.72692436  1
  P  P247  1  0.20824432  0.41765109  0.97807651  1
  P  P248  1  0.20766926  0.75127496  0.22738497  1
  P  P249  1  0.20773021  0.74853983  0.47773893  1
  P  P250  1  0.20690424  0.74980433  0.72938586  1
  P  P251  1  0.20783516  0.75120907  0.97781336  1
  P  P252  1  0.70912440  0.08290590  0.22707339  1
  P  P253  1  0.70805519  0.08169820  0.47806468  1
  P  P254  1  0.70922952  0.08346532  0.72646063  1
  P  P255  1  0.70803739  0.08234765  0.97803911  1
  P  P256  1  0.70760926  0.41520336  0.22805417  1
  P  P257  1  0.70762967  0.41472963  0.47782809  1
  P  P258  1  0.70812243  0.41528784  0.72767205  1
  P  P259  1  0.70801802  0.41515444  0.97784193  1
  P  P260  1  0.70825676  0.74921458  0.22850191  1
  P  P261  1  0.70913328  0.75041932  0.47702958  1
  P  P262  1  0.70863717  0.75105192  0.72553205  1
  P  P263  1  0.70728596  0.75059812  0.97840514  1
  P  P264  1  0.29091861  0.24920287  0.02262340  1
  P  P265  1  0.29211791  0.25006764  0.27019630  1
  P  P266  1  0.29270496  0.25100132  0.52286653  1
  P  P267  1  0.29228441  0.24850584  0.77235809  1
  P  P268  1  0.29222496  0.58165641  0.02193928  1
  P  P269  1  0.29176752  0.58453082  0.27190099  1
  P  P270  1  0.29186527  0.58223862  0.52242894  1
  P  P271  1  0.29212894  0.58063334  0.77226537  1
  P  P272  1  0.29234575  0.91509072  0.02184688  1
  P  P273  1  0.29286916  0.91653119  0.27144481  1
  P  P274  1  0.29222151  0.91756185  0.52323267  1
  P  P275  1  0.29109711  0.91617757  0.77365759  1
  P  P276  1  0.79101884  0.25032920  0.02358544  1
  P  P277  1  0.79209762  0.25116046  0.27209191  1
  P  P278  1  0.79173092  0.25011713  0.52358776  1
  P  P279  1  0.79257340  0.25152315  0.77241130  1
  P  P280  1  0.79187544  0.58467064  0.02275846  1
  P  P281  1  0.79201173  0.58489068  0.27230576  1
  P  P282  1  0.79190818  0.58490608  0.52185778  1
  P  P283  1  0.79279686  0.58400226  0.77111839  1
  P  P284  1  0.79235096  0.91870677  0.02256386  1
  P  P285  1  0.79113563  0.91730542  0.27343506  1
  P  P286  1  0.79123074  0.91712842  0.52248473  1
  P  P287  1  0.79207410  0.91896097  0.77167424  1
  O  O288  1  0.03655768  0.25005857  0.18093988  1
  O  O289  1  0.03802534  0.25037344  0.43303490  1
  O  O290  1  0.03714532  0.25141105  0.68446726  1
  O  O291  1  0.03655845  0.25179491  0.93345144  1
  O  O292  1  0.03673693  0.58436560  0.18096373  1
  O  O293  1  0.03766085  0.58476057  0.43307375  1
  O  O294  1  0.03682006  0.58381937  0.68307086  1
  O  O295  1  0.03636745  0.58252773  0.93367217  1
  O  O296  1  0.03648417  0.91608197  0.18302342  1
  O  O297  1  0.03682556  0.91661971  0.43122521  1
  O  O298  1  0.03765223  0.91796668  0.68397614  1
  O  O299  1  0.03628529  0.91767579  0.93343804  1
  O  O300  1  0.53711926  0.24925751  0.18234774  1
  O  O301  1  0.53769866  0.24764290  0.43220533  1
  O  O302  1  0.53756487  0.24792464  0.68338477  1
  O  O303  1  0.53704913  0.24889350  0.93220103  1
  O  O304  1  0.53785681  0.58372883  0.18343820  1
  O  O305  1  0.53695115  0.58498583  0.43261978  1
  O  O306  1  0.53761538  0.58473886  0.68215150  1
  O  O307  1  0.53794328  0.58330758  0.93171374  1
  O  O308  1  0.53760791  0.91677223  0.18397517  1
  O  O309  1  0.53642733  0.91739724  0.43342029  1
  O  O310  1  0.53652205  0.91662606  0.68160619  1
  O  O311  1  0.53823439  0.91688648  0.93175541  1
  O  O312  1  0.46352087  0.08293303  0.06865914  1
  O  O313  1  0.46331221  0.08163464  0.31708701  1
  O  O314  1  0.46321954  0.08154089  0.56841885  1
  O  O315  1  0.46280368  0.08241246  0.81595186  1
  O  O316  1  0.46310400  0.41516752  0.06611369  1
  O  O317  1  0.46215186  0.41607541  0.31630138  1
  O  O318  1  0.46215867  0.41654709  0.56633559  1
  O  O319  1  0.46306155  0.41489853  0.81735209  1
  O  O320  1  0.46251795  0.74890303  0.06793486  1
  O  O321  1  0.46362496  0.74944666  0.31838939  1
  O  O322  1  0.46336148  0.74882019  0.56671904  1
  O  O323  1  0.46246606  0.74926782  0.81619755  1
  O  O324  1  0.96286834  0.08350056  0.06724219  1
  O  O325  1  0.96214787  0.08271243  0.31657379  1
  O  O326  1  0.96272178  0.08273682  0.56821742  1
  O  O327  1  0.96288731  0.08457414  0.81762485  1
  O  O328  1  0.96271880  0.41769982  0.06550342  1
  O  O329  1  0.96141871  0.41711115  0.31696340  1
  O  O330  1  0.96317855  0.41756495  0.56933932  1
  O  O331  1  0.96400058  0.41710248  0.81808122  1
  O  O332  1  0.96266081  0.75221047  0.06683895  1
  O  O333  1  0.96295996  0.75032383  0.31754617  1
  O  O334  1  0.96257412  0.74962276  0.56711188  1
  O  O335  1  0.96269321  0.75078490  0.81899943  1
  O  O336  1  0.21362733  0.08390407  0.05667779  1
  O  O337  1  0.21216722  0.08449946  0.30668712  1
  O  O338  1  0.21224497  0.08257748  0.55869531  1
  O  O339  1  0.21381082  0.08202243  0.80872824  1
  O  O340  1  0.21340437  0.41777803  0.05791347  1
  O  O341  1  0.21229210  0.41707811  0.30558602  1
  O  O342  1  0.21267450  0.41635450  0.55865416  1
  O  O343  1  0.21399122  0.41634465  0.80692277  1
  O  O344  1  0.21322282  0.75139281  0.05774165  1
  O  O345  1  0.21295513  0.75034008  0.30733633  1
  O  O346  1  0.21236715  0.74868915  0.55774849  1
  O  O347  1  0.21244968  0.75008953  0.80927824  1
  O  O348  1  0.71344620  0.08250686  0.05788890  1
  O  O349  1  0.71406620  0.08310073  0.30700685  1
  O  O350  1  0.71346584  0.08182758  0.55785903  1
  O  O351  1  0.71398108  0.08359355  0.80643120  1
  O  O352  1  0.71316396  0.41525746  0.05780950  1
  O  O353  1  0.71296557  0.41522308  0.30797927  1
  O  O354  1  0.71330442  0.41492079  0.55775862  1
  O  O355  1  0.71329575  0.41534498  0.80763721  1
  O  O356  1  0.71251399  0.75009815  0.05835534  1
  O  O357  1  0.71375013  0.74926973  0.30835737  1
  O  O358  1  0.71413603  0.75047170  0.55691559  1
  O  O359  1  0.71297058  0.75151863  0.80557375  1
  O  O360  1  0.28665017  0.24974296  0.19029180  1
  O  O361  1  0.28762168  0.25090656  0.44288434  1
  O  O362  1  0.28697744  0.24929413  0.69247196  1
  O  O363  1  0.28628281  0.24884942  0.94259877  1
  O  O364  1  0.28658249  0.58407621  0.19196410  1
  O  O365  1  0.28663008  0.58331721  0.44248511  1
  O  O366  1  0.28649978  0.58034744  0.69235401  1
  O  O367  1  0.28708095  0.58146968  0.94199530  1
  O  O368  1  0.28788825  0.91599386  0.19148366  1
  O  O369  1  0.28726427  0.91732922  0.44326143  1
  O  O370  1  0.28610938  0.91694062  0.69369883  1
  O  O371  1  0.28676558  0.91513420  0.94199994  1
  O  O372  1  0.78640684  0.25078954  0.19225316  1
  O  O373  1  0.78678753  0.25010546  0.44362458  1
  O  O374  1  0.78757208  0.25151131  0.69258227  1
  O  O375  1  0.78632036  0.25011548  0.94360701  1
  O  O376  1  0.78648402  0.58486733  0.19236001  1
  O  O377  1  0.78638998  0.58484226  0.44193845  1
  O  O378  1  0.78765377  0.58412936  0.69114803  1
  O  O379  1  0.78692448  0.58426825  0.94277309  1
  O  O380  1  0.78626754  0.91723668  0.19349261  1
  O  O381  1  0.78633151  0.91700974  0.44260362  1
  O  O382  1  0.78679335  0.91856061  0.69181625  1
  O  O383  1  0.78718135  0.91887972  0.94262808  1
  O  O384  1  0.22668288  0.24894126  0.05837375  1
  O  O385  1  0.22789248  0.25037550  0.30607872  1
  O  O386  1  0.22837672  0.25088239  0.55845881  1
  O  O387  1  0.22810366  0.24833613  0.80834974  1
  O  O388  1  0.22788976  0.58216071  0.05758519  1
  O  O389  1  0.22749223  0.58531820  0.30770673  1
  O  O390  1  0.22763848  0.58135434  0.55831247  1
  O  O391  1  0.22797384  0.58087674  0.80839005  1
  O  O392  1  0.22824014  0.91530413  0.05820342  1
  O  O393  1  0.22846425  0.91636416  0.30665995  1
  O  O394  1  0.22780814  0.91816182  0.55866655  1
  O  O395  1  0.22701255  0.91572495  0.80979979  1
  O  O396  1  0.72688241  0.25036114  0.05953831  1
  O  O397  1  0.72801586  0.25117570  0.30858037  1
  O  O398  1  0.72759433  0.25018912  0.55961069  1
  O  O399  1  0.72832144  0.25143935  0.80839961  1
  O  O400  1  0.72760153  0.58474698  0.05836980  1
  O  O401  1  0.72789877  0.58472003  0.30844048  1
  O  O402  1  0.72778998  0.58450956  0.55793187  1
  O  O403  1  0.72840733  0.58366227  0.80640426  1
  O  O404  1  0.72809471  0.91864815  0.05838877  1
  O  O405  1  0.72704350  0.91745866  0.30958923  1
  O  O406  1  0.72715241  0.91761685  0.55875350  1
  O  O407  1  0.72786626  0.91923522  0.80782083  1
  O  O408  1  0.27190134  0.08480568  0.19147871  1
  O  O409  1  0.27145794  0.08353308  0.44341340  1
  O  O410  1  0.27224541  0.08143459  0.69237491  1
  O  O411  1  0.27294157  0.08355039  0.94083245  1
  O  O412  1  0.27209242  0.41743335  0.19005938  1
  O  O413  1  0.27132733  0.41708674  0.44278720  1
  O  O414  1  0.27293614  0.41588955  0.69066501  1
  O  O415  1  0.27240110  0.41743052  0.94191704  1
  O  O416  1  0.27197692  0.75143793  0.19164762  1
  O  O417  1  0.27218364  0.74836548  0.44243891  1
  O  O418  1  0.27110674  0.74945678  0.69366900  1
  O  O419  1  0.27200956  0.75085395  0.94182970  1
  O  O420  1  0.77317566  0.08272675  0.19081480  1
  O  O421  1  0.77218018  0.08184409  0.44179044  1
  O  O422  1  0.77334897  0.08283098  0.69044380  1
  O  O423  1  0.77217825  0.08227534  0.94171532  1
  O  O424  1  0.77174669  0.41529103  0.19196645  1
  O  O425  1  0.77179853  0.41492922  0.44172715  1
  O  O426  1  0.77241676  0.41549711  0.69197911  1
  O  O427  1  0.77230622  0.41513673  0.94201355  1
  O  O428  1  0.77227799  0.74929759  0.19199972  1
  O  O429  1  0.77310496  0.75033266  0.44057175  1
  O  O430  1  0.77294305  0.75094778  0.69016169  1
  O  O431  1  0.77161695  0.75107346  0.94296168  1
  O  O432  1  0.02226795  0.08210687  0.18259297  1
  O  O433  1  0.02130543  0.08356262  0.43168668  1
  O  O434  1  0.02200686  0.08252110  0.68375077  1
  O  O435  1  0.02185445  0.08554914  0.93310542  1
  O  O436  1  0.02165734  0.41727428  0.18102092  1
  O  O437  1  0.02093207  0.41752424  0.43179853  1
  O  O438  1  0.02291028  0.41800808  0.68500848  1
  O  O439  1  0.02283403  0.41802963  0.93427810  1
  O  O440  1  0.02179870  0.75265809  0.18257944  1
  O  O441  1  0.02230357  0.74862581  0.43312442  1
  O  O442  1  0.02115499  0.75037617  0.68268026  1
  O  O443  1  0.02232140  0.75137263  0.93451922  1
  O  O444  1  0.52307626  0.08274925  0.18434019  1
  O  O445  1  0.52196213  0.08054342  0.43294655  1
  O  O446  1  0.52278062  0.08246310  0.68410738  1
  O  O447  1  0.52182596  0.08288223  0.93133586  1
  O  O448  1  0.52168080  0.41590290  0.18167758  1
  O  O449  1  0.52141648  0.41626871  0.43127490  1
  O  O450  1  0.52161170  0.41626869  0.68122714  1
  O  O451  1  0.52246261  0.41384025  0.93269648  1
  O  O452  1  0.52193026  0.74820680  0.18324204  1
  O  O453  1  0.52305087  0.74950782  0.43411536  1
  O  O454  1  0.52215902  0.74823261  0.68261397  1
  O  O455  1  0.52178930  0.74963752  0.93126855  1
  O  O456  1  0.47778439  0.25080347  0.06681696  1
  O  O457  1  0.47844138  0.24710336  0.31688695  1
  O  O458  1  0.47848531  0.24862357  0.56812523  1
  O  O459  1  0.47822651  0.24714568  0.81651865  1
  O  O460  1  0.47898433  0.58238808  0.06813342  1
  O  O461  1  0.47788762  0.58491944  0.31696405  1
  O  O462  1  0.47834433  0.58494050  0.56669616  1
  O  O463  1  0.47848683  0.58465408  0.81652835  1
  O  O464  1  0.47862037  0.91616559  0.06862552  1
  O  O465  1  0.47796533  0.91748862  0.31721196  1
  O  O466  1  0.47688630  0.91686634  0.56597327  1
  O  O467  1  0.47838434  0.91738665  0.81673301  1
  O  O468  1  0.97670009  0.24990954  0.06552257  1
  O  O469  1  0.97863984  0.25010006  0.31812998  1
  O  O470  1  0.97809496  0.25045895  0.56908576  1
  O  O471  1  0.97794842  0.25239845  0.81750514  1
  O  O472  1  0.97692496  0.58368007  0.06561640  1
  O  O473  1  0.97842746  0.58437355  0.31789376  1
  O  O474  1  0.97768430  0.58577763  0.56732069  1
  O  O475  1  0.97777490  0.58185982  0.81765508  1
  O  O476  1  0.97780398  0.91619741  0.06716422  1
  O  O477  1  0.97694656  0.91634025  0.31574768  1
  O  O478  1  0.97845642  0.91656314  0.56881011  1
  O  O479  1  0.97734695  0.91915756  0.81767693  1
  O  O480  1  0.07129828  0.31414495  0.07273355  1
  O  O481  1  0.07383133  0.31391831  0.32456319  1
  O  O482  1  0.07347021  0.31408578  0.57590738  1
  O  O483  1  0.07309467  0.31559322  0.82501637  1
  O  O484  1  0.07126457  0.64818829  0.07260658  1
  O  O485  1  0.07412556  0.64731686  0.32425388  1
  O  O486  1  0.07302245  0.64811444  0.57491907  1
  O  O487  1  0.07264628  0.64631614  0.82600012  1
  O  O488  1  0.07344038  0.97936849  0.07515345  1
  O  O489  1  0.07164305  0.98037835  0.32269469  1
  O  O490  1  0.07375478  0.98046918  0.57504779  1
  O  O491  1  0.07238699  0.98209119  0.82554841  1
  O  O492  1  0.57304622  0.31335504  0.07389930  1
  O  O493  1  0.57346447  0.31142059  0.32448503  1
  O  O494  1  0.57376402  0.31197138  0.57543420  1
  O  O495  1  0.57336969  0.31158662  0.82401324  1
  O  O496  1  0.57416524  0.64651028  0.07486199  1
  O  O497  1  0.57306135  0.64818787  0.32401784  1
  O  O498  1  0.57374889  0.64781873  0.57330430  1
  O  O499  1  0.57380975  0.64753070  0.82347091  1
  O  O500  1  0.57400579  0.97974222  0.07552652  1
  O  O501  1  0.57299757  0.98061265  0.32457262  1
  O  O502  1  0.57233102  0.97997183  0.57331626  1
  O  O503  1  0.57346007  0.98077224  0.82309606  1
  O  O504  1  0.42807537  0.01904762  0.17665861  1
  O  O505  1  0.42641081  0.01822801  0.42580642  1
  O  O506  1  0.42783256  0.01856820  0.67712099  1
  O  O507  1  0.42670221  0.01902880  0.92461362  1
  O  O508  1  0.42608183  0.35253945  0.17435778  1
  O  O509  1  0.42626018  0.35233266  0.42426580  1
  O  O510  1  0.42598492  0.35325372  0.67450251  1
  O  O511  1  0.42712192  0.35098997  0.92556072  1
  O  O512  1  0.42687050  0.68481967  0.17621149  1
  O  O513  1  0.42761497  0.68628946  0.42676612  1
  O  O514  1  0.42702061  0.68502737  0.67533475  1
  O  O515  1  0.42601673  0.68643581  0.92462712  1
  O  O516  1  0.92726530  0.01908826  0.17555938  1
  O  O517  1  0.92587603  0.01987576  0.42508888  1
  O  O518  1  0.92718443  0.01894859  0.67664759  1
  O  O519  1  0.92623250  0.02215989  0.92597120  1
  O  O520  1  0.92626267  0.35389323  0.17361287  1
  O  O521  1  0.92565002  0.35387723  0.42558938  1
  O  O522  1  0.92832250  0.35366213  0.67762275  1
  O  O523  1  0.92848140  0.35366686  0.92683692  1
  O  O524  1  0.92700560  0.68805923  0.17460098  1
  O  O525  1  0.92706021  0.68600375  0.42583105  1
  O  O526  1  0.92578856  0.68688734  0.67561359  1
  O  O527  1  0.92782111  0.68720220  0.92740716  1
  O  O528  1  0.17675846  0.02080063  0.19880918  1
  O  O529  1  0.17585785  0.02025172  0.44976605  1
  O  O530  1  0.17729856  0.01826996  0.70033183  1
  O  O531  1  0.17837507  0.01940856  0.94896170  1
  O  O532  1  0.17746945  0.35361744  0.19678822  1
  O  O533  1  0.17625672  0.35319787  0.45007316  1
  O  O534  1  0.17822738  0.35209554  0.69923724  1
  O  O535  1  0.17707391  0.35403358  0.95017190  1
  O  O536  1  0.17632069  0.68806027  0.19886799  1
  O  O537  1  0.17722182  0.68509303  0.44894992  1
  O  O538  1  0.17569107  0.68621626  0.70171796  1
  O  O539  1  0.17677754  0.68736254  0.95052735  1
  O  O540  1  0.67782438  0.01957271  0.19903097  1
  O  O541  1  0.67719186  0.01838429  0.44914354  1
  O  O542  1  0.67759952  0.02042324  0.69820982  1
  O  O543  1  0.67710467  0.01910197  0.94909960  1
  O  O544  1  0.67665426  0.35196483  0.19932166  1
  O  O545  1  0.67681383  0.35128671  0.44943162  1
  O  O546  1  0.67727203  0.35195105  0.69901810  1
  O  O547  1  0.67723714  0.35176578  0.94918104  1
  O  O548  1  0.67748257  0.68581117  0.19963003  1
  O  O549  1  0.67791666  0.68707149  0.44867389  1
  O  O550  1  0.67814949  0.68716099  0.69750839  1
  O  O551  1  0.67620535  0.68741996  0.94967222  1
  O  O552  1  0.32085369  0.31349772  0.05071696  1
  O  O553  1  0.32337551  0.31353929  0.29824764  1
  O  O554  1  0.32322888  0.31454947  0.55138082  1
  O  O555  1  0.32359880  0.31176860  0.80067221  1
  O  O556  1  0.32335199  0.64542831  0.04940846  1
  O  O557  1  0.32260983  0.64800858  0.30042076  1
  O  O558  1  0.32275395  0.64562830  0.55107742  1
  O  O559  1  0.32313725  0.64450998  0.79956950  1
  O  O560  1  0.32364404  0.97873907  0.04959108  1
  O  O561  1  0.32344361  0.98042787  0.29922315  1
  O  O562  1  0.32320869  0.98078758  0.55188136  1
  O  O563  1  0.32170093  0.97970165  0.80258575  1
  O  O564  1  0.82220610  0.31371290  0.05161751  1
  O  O565  1  0.82300533  0.31457439  0.30063612  1
  O  O566  1  0.82299526  0.31339931  0.55187105  1
  O  O567  1  0.82326901  0.31481940  0.80168658  1
  O  O568  1  0.82246446  0.64834229  0.05101775  1
  O  O569  1  0.82301876  0.64819871  0.30081977  1
  O  O570  1  0.82249738  0.64841341  0.55046807  1
  O  O571  1  0.82379713  0.64739959  0.79949627  1
  O  O572  1  0.82337076  0.98184823  0.05143460  1
  O  O573  1  0.82238253  0.98062841  0.30159931  1
  O  O574  1  0.82279707  0.98020872  0.55095073  1
  O  O575  1  0.82299084  0.98226868  0.80046708  1
  O  O576  1  0.42815568  0.14666343  0.17669333  1
  O  O577  1  0.42689367  0.14503713  0.42527583  1
  O  O578  1  0.42771291  0.14603367  0.67627368  1
  O  O579  1  0.42601305  0.14562665  0.92447035  1
  O  O580  1  0.42636025  0.47935932  0.17384075  1
  O  O581  1  0.42582136  0.47960923  0.42418737  1
  O  O582  1  0.42646153  0.48026019  0.67450579  1
  O  O583  1  0.42743354  0.47838608  0.92526809  1
  O  O584  1  0.42657272  0.81200017  0.17611697  1
  O  O585  1  0.42844410  0.81360686  0.42671811  1
  O  O586  1  0.42667773  0.81198260  0.67470385  1
  O  O587  1  0.42665616  0.81337830  0.92445732  1
  O  O588  1  0.92683960  0.14622500  0.17544469  1
  O  O589  1  0.92579991  0.14675628  0.42487965  1
  O  O590  1  0.92659242  0.14623284  0.67586383  1
  O  O591  1  0.92690988  0.14917423  0.92568643  1
  O  O592  1  0.92616474  0.48074629  0.17406784  1
  O  O593  1  0.92534203  0.48079721  0.42511063  1
  O  O594  1  0.92761085  0.48123122  0.67736276  1
  O  O595  1  0.92714286  0.48080732  0.92602404  1
  O  O596  1  0.92618814  0.81500116  0.17606538  1
  O  O597  1  0.92718925  0.81316017  0.42587213  1
  O  O598  1  0.92575305  0.81367296  0.67485469  1
  O  O599  1  0.92704573  0.81488551  0.92678279  1
  O  O600  1  0.07201351  0.18660680  0.07267055  1
  O  O601  1  0.07436614  0.18696263  0.32480472  1
  O  O602  1  0.07349694  0.18703691  0.57687920  1
  O  O603  1  0.07331516  0.18866409  0.82542638  1
  O  O604  1  0.07254184  0.52067352  0.07292274  1
  O  O605  1  0.07360643  0.52050005  0.32504642  1
  O  O606  1  0.07261201  0.52093770  0.57473296  1
  O  O607  1  0.07322337  0.51931447  0.82486175  1
  O  O608  1  0.07273927  0.85253721  0.07409679  1
  O  O609  1  0.07221724  0.85280960  0.32326037  1
  O  O610  1  0.07411583  0.85370048  0.57607710  1
  O  O611  1  0.07248167  0.85478310  0.82531377  1
  O  O612  1  0.57292561  0.18624266  0.07418465  1
  O  O613  1  0.57382286  0.18413901  0.32374232  1
  O  O614  1  0.57397113  0.18500239  0.57506207  1
  O  O615  1  0.57360816  0.18449543  0.82411531  1
  O  O616  1  0.57474379  0.51968896  0.07558365  1
  O  O617  1  0.57311408  0.52092210  0.32510286  1
  O  O618  1  0.57344804  0.52071084  0.57433559  1
  O  O619  1  0.57368634  0.52017941  0.82368310  1
  O  O620  1  0.57400301  0.85277484  0.07604710  1
  O  O621  1  0.57324018  0.85371388  0.32580722  1
  O  O622  1  0.57134848  0.85260615  0.57306741  1
  O  O623  1  0.57389682  0.85368998  0.82344374  1
  O  O624  1  0.32244972  0.18604511  0.05108414  1
  O  O625  1  0.32326110  0.18680430  0.29914431  1
  O  O626  1  0.32393958  0.18736873  0.55060417  1
  O  O627  1  0.32299755  0.18472748  0.80041918  1
  O  O628  1  0.32297744  0.51836152  0.05097967  1
  O  O629  1  0.32267828  0.52085976  0.29997425  1
  O  O630  1  0.32298595  0.51857535  0.55023211  1
  O  O631  1  0.32322815  0.51737057  0.80091739  1
  O  O632  1  0.32325166  0.85171761  0.05065967  1
  O  O633  1  0.32437734  0.85352956  0.30031451  1
  O  O634  1  0.32274782  0.85349561  0.55096082  1
  O  O635  1  0.32224657  0.85231759  0.80105362  1
  O  O636  1  0.82139576  0.18629410  0.05202234  1
  O  O637  1  0.82336491  0.18759720  0.30021714  1
  O  O638  1  0.82209090  0.18600891  0.55186315  1
  O  O639  1  0.82369409  0.18787936  0.80053329  1
  O  O640  1  0.82295291  0.52101414  0.05059397  1
  O  O641  1  0.82316588  0.52106429  0.29983377  1
  O  O642  1  0.82335600  0.52124404  0.54937049  1
  O  O643  1  0.82386253  0.52049223  0.79941320  1
  O  O644  1  0.82321610  0.85485511  0.05037321  1
  O  O645  1  0.82150645  0.85329353  0.30184074  1
  O  O646  1  0.82153707  0.85310950  0.55116537  1
  O  O647  1  0.82312176  0.85532772  0.80001613  1
  O  O648  1  0.17644390  0.14787781  0.19790833  1
  O  O649  1  0.17614223  0.14718096  0.45104745  1
  O  O650  1  0.17691430  0.14529866  0.70096228  1
  O  O651  1  0.17754101  0.14680109  0.94803795  1
  O  O652  1  0.17686399  0.48121695  0.19782001  1
  O  O653  1  0.17558201  0.47986850  0.45049860  1
  O  O654  1  0.17781903  0.47957632  0.69859917  1
  O  O655  1  0.17740892  0.48098425  0.94898018  1
  O  O656  1  0.17708061  0.81507170  0.19924558  1
  O  O657  1  0.17679965  0.81238396  0.45000290  1
  O  O658  1  0.17567794  0.81310496  0.70095004  1
  O  O659  1  0.17688704  0.81452874  0.94915653  1
  O  O660  1  0.67877611  0.14691479  0.19858707  1
  O  O661  1  0.67680752  0.14529739  0.45003286  1
  O  O662  1  0.67927597  0.14772428  0.69807578  1
  O  O663  1  0.67691166  0.14596896  0.94985199  1
  O  O664  1  0.67653264  0.47908623  0.20056724  1
  O  O665  1  0.67636536  0.47846332  0.45022085  1
  O  O666  1  0.67690829  0.47895106  0.69977261  1
  O  O667  1  0.67700467  0.47894708  0.95001118  1
  O  O668  1  0.67685070  0.81285590  0.20083184  1
  O  O669  1  0.67853556  0.81435195  0.44861621  1
  O  O670  1  0.67789969  0.81470383  0.69690846  1
  O  O671  1  0.67617003  0.81427967  0.95050657  1
