# generated using pymatgen
data_Na2MnFe(PO4)2
_symmetry_space_group_name_H-M   'P 1'
_cell_length_a   22.34305531
_cell_length_b   20.09315551
_cell_length_c   19.45005809
_cell_angle_alpha   90.05469699
_cell_angle_beta   90.01341201
_cell_angle_gamma   90.01328781
_symmetry_Int_Tables_number   1
_chemical_formula_structural   Na2MnFe(PO4)2
_chemical_formula_sum   'Na96 Mn48 Fe48 P96 O384'
_cell_volume   8731.95295845
_cell_formula_units_Z   48
loop_
 _symmetry_equiv_pos_site_id
 _symmetry_equiv_pos_as_xyz
  1  'x, y, z'
loop_
 _atom_site_type_symbol
 _atom_site_label
 _atom_site_symmetry_multiplicity
 _atom_site_fract_x
 _atom_site_fract_y
 _atom_site_fract_z
 _atom_site_occupancy
  Na  Na0  1  0.14101942  0.24877905  0.24303366  1
  Na  Na1  1  0.14052477  0.25076592  0.49422633  1
  Na  Na2  1  0.14006010  0.25102058  0.74406914  1
  Na  Na3  1  0.14004444  0.25019821  0.99326723  1
  Na  Na4  1  0.14040458  0.58161999  0.24416048  1
  Na  Na5  1  0.14029494  0.58439043  0.49317052  1
  Na  Na6  1  0.14062192  0.58240794  0.74373272  1
  Na  Na7  1  0.14064718  0.58301605  0.99335759  1
  Na  Na8  1  0.14006730  0.91650209  0.24411617  1
  Na  Na9  1  0.13972249  0.91760752  0.49260505  1
  Na  Na10  1  0.13992076  0.91818074  0.74313291  1
  Na  Na11  1  0.13988102  0.91713061  0.99385247  1
  Na  Na12  1  0.64090039  0.24947512  0.24421465  1
  Na  Na13  1  0.63994785  0.24887832  0.49335588  1
  Na  Na14  1  0.63982522  0.25055033  0.74441093  1
  Na  Na15  1  0.64039677  0.24961450  0.99370285  1
  Na  Na16  1  0.64047511  0.58237582  0.24441147  1
  Na  Na17  1  0.64064516  0.58237581  0.49263451  1
  Na  Na18  1  0.64086335  0.58345202  0.74421209  1
  Na  Na19  1  0.64046019  0.58205724  0.99416532  1
  Na  Na20  1  0.64011388  0.91697478  0.24424151  1
  Na  Na21  1  0.64004425  0.91504160  0.49241235  1
  Na  Na22  1  0.63970588  0.91665556  0.74361674  1
  Na  Na23  1  0.63988477  0.91761053  0.99427087  1
  Na  Na24  1  0.35933352  0.08394200  0.00680980  1
  Na  Na25  1  0.35944581  0.08258597  0.25554534  1
  Na  Na26  1  0.35985031  0.08517976  0.50672500  1
  Na  Na27  1  0.35926619  0.08500850  0.75592005  1
  Na  Na28  1  0.35979080  0.41617586  0.00619244  1
  Na  Na29  1  0.35997987  0.41496069  0.25678350  1
  Na  Na30  1  0.36019833  0.41697446  0.50731094  1
  Na  Na31  1  0.35985552  0.41598077  0.75589707  1
  Na  Na32  1  0.35920889  0.75054181  0.00570368  1
  Na  Na33  1  0.35958074  0.74966883  0.25677853  1
  Na  Na34  1  0.35994541  0.75118542  0.50592225  1
  Na  Na35  1  0.35944702  0.75019128  0.75558685  1
  Na  Na36  1  0.85897979  0.08433412  0.00640549  1
  Na  Na37  1  0.85962779  0.08333072  0.25603494  1
  Na  Na38  1  0.86009727  0.08156305  0.50658962  1
  Na  Na39  1  0.85951894  0.08352584  0.75606927  1
  Na  Na40  1  0.85993566  0.41561795  0.00629884  1
  Na  Na41  1  0.86020006  0.41709759  0.25602459  1
  Na  Na42  1  0.86010003  0.41621017  0.50561302  1
  Na  Na43  1  0.86002975  0.41617402  0.75673925  1
  Na  Na44  1  0.85991317  0.75115390  0.00676857  1
  Na  Na45  1  0.85967178  0.75137333  0.25731496  1
  Na  Na46  1  0.86001605  0.74986833  0.50600346  1
  Na  Na47  1  0.85943857  0.75105766  0.75600840  1
  Na  Na48  1  0.11004720  0.08357213  0.11743402  1
  Na  Na49  1  0.10994923  0.08296322  0.36896500  1
  Na  Na50  1  0.10914638  0.08292631  0.61814271  1
  Na  Na51  1  0.10927268  0.08461709  0.86897017  1
  Na  Na52  1  0.10983658  0.41708536  0.11784528  1
  Na  Na53  1  0.11024388  0.41740873  0.36895200  1
  Na  Na54  1  0.10962988  0.41583928  0.61871617  1
  Na  Na55  1  0.11045039  0.41641096  0.86840998  1
  Na  Na56  1  0.10899862  0.75093349  0.11937384  1
  Na  Na57  1  0.10972307  0.74963295  0.36906427  1
  Na  Na58  1  0.10941169  0.74955021  0.61727880  1
  Na  Na59  1  0.10898477  0.75117035  0.86914447  1
  Na  Na60  1  0.61029613  0.08313286  0.11786016  1
  Na  Na61  1  0.60959833  0.08181332  0.36908315  1
  Na  Na62  1  0.60871087  0.08250617  0.61785594  1
  Na  Na63  1  0.60929291  0.08293081  0.86974833  1
  Na  Na64  1  0.60993256  0.41598549  0.11869046  1
  Na  Na65  1  0.60964615  0.41542525  0.36916851  1
  Na  Na66  1  0.60957786  0.41516784  0.61905657  1
  Na  Na67  1  0.61010154  0.41672484  0.86898984  1
  Na  Na68  1  0.60909348  0.75042454  0.12009117  1
  Na  Na69  1  0.61003894  0.74958233  0.36834036  1
  Na  Na70  1  0.60975139  0.75037087  0.61767186  1
  Na  Na71  1  0.60923200  0.75033632  0.86892152  1
  Na  Na72  1  0.38971986  0.24999065  0.13168226  1
  Na  Na73  1  0.39030672  0.24943802  0.38269252  1
  Na  Na74  1  0.39002993  0.24997911  0.63099178  1
  Na  Na75  1  0.39008626  0.25107673  0.88212176  1
  Na  Na76  1  0.39068635  0.58315685  0.13112130  1
  Na  Na77  1  0.39075160  0.58217660  0.38210618  1
  Na  Na78  1  0.39067903  0.58298553  0.63132631  1
  Na  Na79  1  0.39036546  0.58285219  0.88070155  1
  Na  Na80  1  0.38990413  0.91758253  0.13067289  1
  Na  Na81  1  0.39055774  0.91653137  0.38151699  1
  Na  Na82  1  0.39022796  0.91680013  0.63002013  1
  Na  Na83  1  0.38994455  0.91777439  0.88108190  1
  Na  Na84  1  0.88988569  0.25113246  0.13125464  1
  Na  Na85  1  0.89072242  0.25022706  0.38112087  1
  Na  Na86  1  0.89068625  0.24873363  0.63077081  1
  Na  Na87  1  0.89026517  0.25102638  0.88221615  1
  Na  Na88  1  0.89084530  0.58495213  0.13093053  1
  Na  Na89  1  0.89095860  0.58395616  0.38174049  1
  Na  Na90  1  0.89067811  0.58238718  0.63034125  1
  Na  Na91  1  0.89058172  0.58330984  0.88204335  1
  Na  Na92  1  0.88994937  0.91709320  0.13151819  1
  Na  Na93  1  0.89029377  0.91609004  0.38270895  1
  Na  Na94  1  0.88975876  0.91602415  0.63030159  1
  Na  Na95  1  0.89010396  0.91809597  0.88160132  1
  Mn  Mn96  1  0.75103443  0.49906760  0.12488967  1
  Mn  Mn97  1  0.00000429  0.66729893  0.25044125  1
  Mn  Mn98  1  0.24921927  0.83446969  0.87505270  1
  Mn  Mn99  1  0.25090922  0.49816609  0.12443300  1
  Mn  Mn100  1  0.00057029  0.49916619  0.75076333  1
  Mn  Mn101  1  0.00015850  0.33306818  0.49966140  1
  Mn  Mn102  1  0.24955062  0.66603094  0.87511777  1
  Mn  Mn103  1  0.50005015  0.66602595  0.25021360  1
  Mn  Mn104  1  0.50003005  0.16605412  0.25059605  1
  Mn  Mn105  1  0.49943366  0.66646940  0.00019439  1
  Mn  Mn106  1  0.49993072  0.33384580  0.00098860  1
  Mn  Mn107  1  -0.00022285  0.00064882  0.00010425  1
  Mn  Mn108  1  0.74973461  0.16615532  0.62494970  1
  Mn  Mn109  1  0.75037224  0.33282843  0.62524845  1
  Mn  Mn110  1  0.74987395  0.49955855  0.62476171  1
  Mn  Mn111  1  0.24992609  0.50061499  0.62520735  1
  Mn  Mn112  1  0.75054248  0.66707752  0.62485582  1
  Mn  Mn113  1  0.24999911  0.66585030  0.12532412  1
  Mn  Mn114  1  0.74962364  0.16646849  0.87550642  1
  Mn  Mn115  1  0.24999844  0.00094163  0.37485272  1
  Mn  Mn116  1  0.50071195  0.49906897  0.75020166  1
  Mn  Mn117  1  0.74932555  0.83449999  0.12604641  1
  Mn  Mn118  1  0.24956393  0.83391634  0.12498493  1
  Mn  Mn119  1  -0.00031206  -0.00067432  0.24941723  1
  Mn  Mn120  1  0.49932140  -0.00057964  0.24989347  1
  Mn  Mn121  1  0.25038944  0.33283066  0.37521300  1
  Mn  Mn122  1  0.49954704  0.16716669  0.74944967  1
  Mn  Mn123  1  -0.00012550  0.66678854  0.74965758  1
  Mn  Mn124  1  0.25038510  0.66665528  0.37478332  1
  Mn  Mn125  1  0.25010646  0.00198953  0.62380931  1
  Mn  Mn126  1  0.75035926  0.49910471  0.37438380  1
  Mn  Mn127  1  -0.00024664  0.16654084  0.74992017  1
  Mn  Mn128  1  0.50050332  0.66693457  0.74985206  1
  Mn  Mn129  1  0.50080476  0.33345007  0.25068724  1
  Mn  Mn130  1  0.00119604  0.33455132  0.25061717  1
  Mn  Mn131  1  -0.00046805  0.83424353  0.74913857  1
  Mn  Mn132  1  0.74989031  0.66678214  0.12503426  1
  Mn  Mn133  1  0.74937863  0.83473584  0.87598657  1
  Mn  Mn134  1  0.24981962  0.83392241  0.62504537  1
  Mn  Mn135  1  0.49903704  0.83408749  -0.00051706  1
  Mn  Mn136  1  0.75059211  0.16603043  0.37442599  1
  Mn  Mn137  1  0.24983161  0.16701350  0.87530522  1
  Mn  Mn138  1  0.74970943  0.66672014  0.87518512  1
  Mn  Mn139  1  0.49878790  -0.00048426  0.74917396  1
  Mn  Mn140  1  0.50020831  0.66632831  0.49977785  1
  Mn  Mn141  1  0.00029780  0.16690099  0.24979888  1
  Mn  Mn142  1  0.00058974  0.50065382  -0.00034894  1
  Mn  Mn143  1  0.74904206  -0.00124398  0.62534443  1
  Fe  Fe144  1  0.24994467  0.66714531  0.62468131  1
  Fe  Fe145  1  0.25048765  0.49980799  0.37554738  1
  Fe  Fe146  1  0.74997071  0.83319350  0.37475170  1
  Fe  Fe147  1  0.24991223  0.83364464  0.37493232  1
  Fe  Fe148  1  0.75023599  0.00037746  0.12559495  1
  Fe  Fe149  1  0.00017275  0.83306056  0.50022351  1
  Fe  Fe150  1  -0.00022310  0.83418534  -0.00007915  1
  Fe  Fe151  1  0.74997071  0.16680446  0.12534507  1
  Fe  Fe152  1  0.24955150  0.00110354  0.87466486  1
  Fe  Fe153  1  0.25025836  0.33300960  0.87491786  1
  Fe  Fe154  1  0.24982855  0.16622492  0.12447772  1
  Fe  Fe155  1  -0.00070590  0.16767048  -0.00062585  1
  Fe  Fe156  1  0.24949608  0.33275147  0.12483595  1
  Fe  Fe157  1  0.25070616  0.49915153  0.87437741  1
  Fe  Fe158  1  0.25004200  0.16684067  0.37435022  1
  Fe  Fe159  1  0.24941285  0.16832197  0.62592292  1
  Fe  Fe160  1  0.74976623  0.83289633  0.62422979  1
  Fe  Fe161  1  -0.00001174  -0.00054949  0.49954788  1
  Fe  Fe162  1  0.50002856  0.00021067  -0.00018962  1
  Fe  Fe163  1  0.49987697  -0.00075661  0.49962559  1
  Fe  Fe164  1  0.75012597  0.33284384  0.87530852  1
  Fe  Fe165  1  0.49992613  0.16703602  0.00003160  1
  Fe  Fe166  1  -0.00015734  0.33275754  0.74955085  1
  Fe  Fe167  1  0.75050602  0.66655079  0.37501872  1
  Fe  Fe168  1  0.75081761  0.49945047  0.87502298  1
  Fe  Fe169  1  0.24974395  0.33410413  0.62506384  1
  Fe  Fe170  1  -0.00042475  0.00014673  0.74958690  1
  Fe  Fe171  1  0.50044373  0.49907381  0.50065611  1
  Fe  Fe172  1  0.74988419  -0.00024530  0.37508173  1
  Fe  Fe173  1  -0.00004576  0.33408913  0.00014607  1
  Fe  Fe174  1  0.00024257  0.66609288  0.49945922  1
  Fe  Fe175  1  0.50003638  0.33266571  0.50032878  1
  Fe  Fe176  1  0.00023519  0.50101072  0.24955614  1
  Fe  Fe177  1  0.50002206  0.16636326  0.50034507  1
  Fe  Fe178  1  0.00020372  0.49958443  0.49994313  1
  Fe  Fe179  1  -0.00030079  0.83322886  0.25070188  1
  Fe  Fe180  1  0.75065219  0.33254356  0.37450436  1
  Fe  Fe181  1  0.74950507  0.00047911  0.87512256  1
  Fe  Fe182  1  0.74976388  0.33318681  0.12475425  1
  Fe  Fe183  1  0.49993960  0.33287600  0.75009925  1
  Fe  Fe184  1  0.00018378  0.66784801  0.00080310  1
  Fe  Fe185  1  0.50039444  0.49993980  0.00017429  1
  Fe  Fe186  1  0.49990312  0.83291052  0.49952512  1
  Fe  Fe187  1  0.49982748  0.83333275  0.24988068  1
  Fe  Fe188  1  0.24988921  -0.00003507  0.12523628  1
  Fe  Fe189  1  0.49995179  0.49954272  0.25080630  1
  Fe  Fe190  1  0.49976834  0.83356547  0.74948540  1
  Fe  Fe191  1  0.00039029  0.16593478  0.50050390  1
  P  P192  1  0.04121663  0.25053503  0.10123608  1
  P  P193  1  0.04338326  0.24969437  0.35354701  1
  P  P194  1  0.04210591  0.24855804  0.60269730  1
  P  P195  1  0.04181402  0.25150171  0.85300353  1
  P  P196  1  0.04249658  0.58521399  0.10275074  1
  P  P197  1  0.04218041  0.58233479  0.35321411  1
  P  P198  1  0.04161055  0.58266157  0.60134477  1
  P  P199  1  0.04293092  0.58417209  0.85362109  1
  P  P200  1  0.04194272  0.91560966  0.10272477  1
  P  P201  1  0.04182237  0.91538085  0.35324726  1
  P  P202  1  0.04128356  0.91674934  0.60150240  1
  P  P203  1  0.04178838  0.91840767  0.85235016  1
  P  P204  1  0.54241019  0.24888760  0.10271668  1
  P  P205  1  0.54261505  0.24942035  0.35451300  1
  P  P206  1  0.54167876  0.24982362  0.60197254  1
  P  P207  1  0.54167054  0.25085800  0.85306207  1
  P  P208  1  0.54228996  0.58187457  0.10318232  1
  P  P209  1  0.54231592  0.58134849  0.35334891  1
  P  P210  1  0.54260911  0.58187528  0.60226556  1
  P  P211  1  0.54308981  0.58302595  0.85361063  1
  P  P212  1  0.54185270  0.91768697  0.10253286  1
  P  P213  1  0.54172844  0.91509027  0.35300557  1
  P  P214  1  0.54108954  0.91583105  0.60125807  1
  P  P215  1  0.54161544  0.91615683  0.85227482  1
  P  P216  1  0.45775597  0.08344798  0.14591661  1
  P  P217  1  0.45850163  0.08297073  0.39875117  1
  P  P218  1  0.45695326  0.08338413  0.64560683  1
  P  P219  1  0.45819873  0.08380065  0.89837180  1
  P  P220  1  0.45802812  0.41793228  0.14789189  1
  P  P221  1  0.45871534  0.41616981  0.39883049  1
  P  P222  1  0.45822131  0.41463745  0.64700176  1
  P  P223  1  0.45795898  0.41756689  0.89765888  1
  P  P224  1  0.45721148  0.75109330  0.14776869  1
  P  P225  1  0.45810084  0.75083178  0.39695455  1
  P  P226  1  0.45797461  0.75137433  0.64680998  1
  P  P227  1  0.45671552  0.75026421  0.89614126  1
  P  P228  1  0.95745143  0.08397869  0.14616311  1
  P  P229  1  0.95884796  0.08321177  0.39841392  1
  P  P230  1  0.95766195  0.08171158  0.64668386  1
  P  P231  1  0.95734239  0.08501411  0.89730474  1
  P  P232  1  0.95848510  0.41834251  0.14721565  1
  P  P233  1  0.95821902  0.41824420  0.39702943  1
  P  P234  1  0.95795463  0.41532433  0.64723937  1
  P  P235  1  0.95836444  0.41547213  0.89726954  1
  P  P236  1  0.95752211  0.75185433  0.14732184  1
  P  P237  1  0.95900957  0.75028985  0.39835850  1
  P  P238  1  0.95747605  0.74981984  0.64562252  1
  P  P239  1  0.95829886  0.75080788  0.89853460  1
  P  P240  1  0.20841486  0.08322935  0.22661311  1
  P  P241  1  0.20797196  0.08623333  0.47761054  1
  P  P242  1  0.20734020  0.08525842  0.72754623  1
  P  P243  1  0.20766649  0.08245441  0.97822732  1
  P  P244  1  0.20778558  0.41451536  0.22756873  1
  P  P245  1  0.20827740  0.41785015  0.47785952  1
  P  P246  1  0.20792014  0.41567226  0.72807207  1
  P  P247  1  0.20895953  0.41585659  0.97649212  1
  P  P248  1  0.20745553  0.74995112  0.22871660  1
  P  P249  1  0.20810977  0.75128834  0.47752623  1
  P  P250  1  0.20724303  0.74897326  0.72717386  1
  P  P251  1  0.20678099  0.75027036  0.97812962  1
  P  P252  1  0.70868474  0.08301198  0.22709459  1
  P  P253  1  0.70772834  0.08155623  0.47727572  1
  P  P254  1  0.70638288  0.08313017  0.72854318  1
  P  P255  1  0.70771970  0.08221065  0.97864492  1
  P  P256  1  0.70824013  0.41488183  0.22764780  1
  P  P257  1  0.70794020  0.41454670  0.47694492  1
  P  P258  1  0.70770857  0.41649475  0.72919830  1
  P  P259  1  0.70898620  0.41580565  0.97691828  1
  P  P260  1  0.70734770  0.75005493  0.22939866  1
  P  P261  1  0.70884415  0.74979640  0.47649037  1
  P  P262  1  0.70753028  0.75155555  0.72720970  1
  P  P263  1  0.70670970  0.75049474  0.97861571  1
  P  P264  1  0.29117587  0.25021123  0.02313296  1
  P  P265  1  0.29258104  0.24822885  0.27186182  1
  P  P266  1  0.29126675  0.25068490  0.52353195  1
  P  P267  1  0.29201778  0.25124019  0.77213415  1
  P  P268  1  0.29297663  0.58233230  0.02134296  1
  P  P269  1  0.29270011  0.58102692  0.27280323  1
  P  P270  1  0.29246595  0.58494809  0.52246030  1
  P  P271  1  0.29228734  0.58205869  0.77207980  1
  P  P272  1  0.29168289  0.91870208  0.02196718  1
  P  P273  1  0.29198428  0.91609862  0.27245418  1
  P  P274  1  0.29219037  0.91725565  0.52096234  1
  P  P275  1  0.29174882  0.91887049  0.77230641  1
  P  P276  1  0.79096451  0.25022493  0.02331222  1
  P  P277  1  0.79272490  0.25089455  0.27147033  1
  P  P278  1  0.79298300  0.24936407  0.52120169  1
  P  P279  1  0.79247371  0.25061772  0.77312351  1
  P  P280  1  0.79296118  0.58275995  0.02136110  1
  P  P281  1  0.79286140  0.58437168  0.27267744  1
  P  P282  1  0.79257936  0.58331612  0.52113136  1
  P  P283  1  0.79259456  0.58243047  0.77280226  1
  P  P284  1  0.79192521  0.91881524  0.02287575  1
  P  P285  1  0.79147895  0.91743046  0.27355106  1
  P  P286  1  0.79156460  0.91489167  0.52157162  1
  P  P287  1  0.79202982  0.91804401  0.77260584  1
  O  O288  1  0.03674655  0.25073998  0.18124650  1
  O  O289  1  0.03805598  0.24906001  0.43345888  1
  O  O290  1  0.03642673  0.24918418  0.68257245  1
  O  O291  1  0.03639113  0.25136880  0.93288489  1
  O  O292  1  0.03705724  0.58454544  0.18269022  1
  O  O293  1  0.03662332  0.58214485  0.43307295  1
  O  O294  1  0.03689647  0.58300226  0.68134452  1
  O  O295  1  0.03786099  0.58487991  0.93357154  1
  O  O296  1  0.03669316  0.91533771  0.18267358  1
  O  O297  1  0.03646831  0.91564273  0.43313334  1
  O  O298  1  0.03639065  0.91768026  0.68145436  1
  O  O299  1  0.03661102  0.91781064  0.93227732  1
  O  O300  1  0.53776026  0.24927843  0.18271537  1
  O  O301  1  0.53713701  0.24943487  0.43441158  1
  O  O302  1  0.53654544  0.25026857  0.68196978  1
  O  O303  1  0.53640877  0.25025614  0.93300128  1
  O  O304  1  0.53670179  0.58164719  0.18315092  1
  O  O305  1  0.53693919  0.58138653  0.43328115  1
  O  O306  1  0.53761551  0.58237569  0.68223123  1
  O  O307  1  0.53775496  0.58273718  0.93356131  1
  O  O308  1  0.53683891  0.91701711  0.18248250  1
  O  O309  1  0.53642844  0.91528784  0.43287684  1
  O  O310  1  0.53611793  0.91589868  0.68121816  1
  O  O311  1  0.53622175  0.91723272  0.93218785  1
  O  O312  1  0.46319262  0.08362899  0.06603240  1
  O  O313  1  0.46316083  0.08262425  0.31873472  1
  O  O314  1  0.46249427  0.08340373  0.56576572  1
  O  O315  1  0.46278886  0.08367266  0.81831765  1
  O  O316  1  0.46336772  0.41805387  0.06796421  1
  O  O317  1  0.46370575  0.41664356  0.31884450  1
  O  O318  1  0.46368276  0.41478563  0.56712955  1
  O  O319  1  0.46311857  0.41645713  0.81776024  1
  O  O320  1  0.46229530  0.75061836  0.06778935  1
  O  O321  1  0.46334734  0.75070522  0.31704059  1
  O  O322  1  0.46341163  0.75120578  0.56683424  1
  O  O323  1  0.46210389  0.75061977  0.81618195  1
  O  O324  1  0.96260016  0.08453979  0.06625076  1
  O  O325  1  0.96359055  0.08280190  0.31841432  1
  O  O326  1  0.96317482  0.08208738  0.56682859  1
  O  O327  1  0.96248947  0.08452529  0.81739722  1
  O  O328  1  0.96384659  0.41751286  0.06726874  1
  O  O329  1  0.96378232  0.41858023  0.31713475  1
  O  O330  1  0.96328990  0.41605394  0.56729961  1
  O  O331  1  0.96341715  0.41495166  0.81732449  1
  O  O332  1  0.96306818  0.75164915  0.06746429  1
  O  O333  1  0.96373925  0.75057014  0.31837454  1
  O  O334  1  0.96299032  0.74977984  0.56576254  1
  O  O335  1  0.96335200  0.75053368  0.81853156  1
  O  O336  1  0.21310935  0.08236193  0.05809500  1
  O  O337  1  0.21328617  0.08401750  0.30658602  1
  O  O338  1  0.21306831  0.08661059  0.55753612  1
  O  O339  1  0.21248514  0.08437100  0.80751289  1
  O  O340  1  0.21402740  0.41513078  0.05646559  1
  O  O341  1  0.21284088  0.41513111  0.30745911  1
  O  O342  1  0.21334191  0.41750689  0.55776872  1
  O  O343  1  0.21343546  0.41589403  0.80792598  1
  O  O344  1  0.21198678  0.75027838  0.05808731  1
  O  O345  1  0.21304311  0.75052858  0.30865609  1
  O  O346  1  0.21311398  0.75074810  0.55748488  1
  O  O347  1  0.21218820  0.74918343  0.80715008  1
  O  O348  1  0.71328923  0.08244512  0.05849365  1
  O  O349  1  0.71372329  0.08281764  0.30705732  1
  O  O350  1  0.71246827  0.08178202  0.55725185  1
  O  O351  1  0.71148799  0.08304629  0.80852607  1
  O  O352  1  0.71397381  0.41557980  0.05693867  1
  O  O353  1  0.71356659  0.41477459  0.30754363  1
  O  O354  1  0.71300579  0.41512656  0.55691446  1
  O  O355  1  0.71319850  0.41666110  0.80910851  1
  O  O356  1  0.71172417  0.75057028  0.05859891  1
  O  O357  1  0.71294241  0.74978425  0.30930413  1
  O  O358  1  0.71361500  0.75052775  0.55649052  1
  O  O359  1  0.71240746  0.75145773  0.80717076  1
  O  O360  1  0.28733060  0.24848988  0.19202275  1
  O  O361  1  0.28644627  0.25019746  0.44357348  1
  O  O362  1  0.28650664  0.25107980  0.69230841  1
  O  O363  1  0.28648708  0.25036946  0.94315566  1
  O  O364  1  0.28768049  0.58102731  0.19283811  1
  O  O365  1  0.28739914  0.58425265  0.44252878  1
  O  O366  1  0.28692279  0.58288526  0.69215678  1
  O  O367  1  0.28764605  0.58193439  0.94142325  1
  O  O368  1  0.28694288  0.91648467  0.19248495  1
  O  O369  1  0.28682097  0.91650628  0.44104699  1
  O  O370  1  0.28666078  0.91859531  0.69232718  1
  O  O371  1  0.28628331  0.91905058  0.94203983  1
  O  O372  1  0.78698612  0.25079222  0.19162395  1
  O  O373  1  0.78809415  0.24955629  0.44120573  1
  O  O374  1  0.78758341  0.25008251  0.69314728  1
  O  O375  1  0.78601226  0.25029417  0.94336097  1
  O  O376  1  0.78774152  0.58409612  0.19270632  1
  O  O377  1  0.78725354  0.58353237  0.44120121  1
  O  O378  1  0.78756297  0.58267298  0.69276014  1
  O  O379  1  0.78767526  0.58230360  0.94140985  1
  O  O380  1  0.78656289  0.91769834  0.19359554  1
  O  O381  1  0.78630546  0.91533959  0.44171260  1
  O  O382  1  0.78695261  0.91700625  0.69267998  1
  O  O383  1  0.78665897  0.91892621  0.94295891  1
  O  O384  1  0.22701691  0.25057699  0.05903865  1
  O  O385  1  0.22832982  0.24846224  0.30778426  1
  O  O386  1  0.22712301  0.25106022  0.55960309  1
  O  O387  1  0.22790361  0.25126146  0.80834289  1
  O  O388  1  0.22867925  0.58226661  0.05682395  1
  O  O389  1  0.22833475  0.58127732  0.30817230  1
  O  O390  1  0.22809164  0.58518956  0.55796653  1
  O  O391  1  0.22810923  0.58110661  0.80797756  1
  O  O392  1  0.22750872  0.91867774  0.05794544  1
  O  O393  1  0.22770650  0.91649408  0.30799160  1
  O  O394  1  0.22796016  0.91760966  0.55648680  1
  O  O395  1  0.22739301  0.91926357  0.80777773  1
  O  O396  1  0.72688720  0.25044241  0.05935858  1
  O  O397  1  0.72864918  0.25093000  0.30786126  1
  O  O398  1  0.72853928  0.24945740  0.55631149  1
  O  O399  1  0.72805993  0.25099631  0.80839997  1
  O  O400  1  0.72869257  0.58250399  0.05685610  1
  O  O401  1  0.72854191  0.58439369  0.30814321  1
  O  O402  1  0.72830930  0.58346123  0.55662319  1
  O  O403  1  0.72826829  0.58205325  0.80815643  1
  O  O404  1  0.72766726  0.91909421  0.05865959  1
  O  O405  1  0.72725997  0.91768748  0.30933430  1
  O  O406  1  0.72737720  0.91446845  0.55765261  1
  O  O407  1  0.72764196  0.91871132  0.80815586  1
  O  O408  1  0.27255358  0.08267855  0.19071639  1
  O  O409  1  0.27223713  0.08570624  0.44189480  1
  O  O410  1  0.27165055  0.08587262  0.69193382  1
  O  O411  1  0.27177057  0.08227826  0.94192220  1
  O  O412  1  0.27219159  0.41364045  0.19210520  1
  O  O413  1  0.27253545  0.41781347  0.44209167  1
  O  O414  1  0.27201204  0.41566914  0.69185365  1
  O  O415  1  0.27307101  0.41630570  0.94035798  1
  O  O416  1  0.27167050  0.74991173  0.19306972  1
  O  O417  1  0.27234041  0.75129188  0.44186480  1
  O  O418  1  0.27168003  0.74896130  0.69188640  1
  O  O419  1  0.27111674  0.75041582  0.94292692  1
  O  O420  1  0.77279889  0.08292683  0.19107606  1
  O  O421  1  0.77215190  0.08120048  0.44203094  1
  O  O422  1  0.77082420  0.08282977  0.69345691  1
  O  O423  1  0.77174276  0.08185735  0.94215983  1
  O  O424  1  0.77252928  0.41447001  0.19195449  1
  O  O425  1  0.77230113  0.41446292  0.44150830  1
  O  O426  1  0.77196559  0.41653922  0.69349825  1
  O  O427  1  0.77313196  0.41537538  0.94090571  1
  O  O428  1  0.77152120  0.75050777  0.19358135  1
  O  O429  1  0.77300724  0.74934095  0.44058470  1
  O  O430  1  0.77198038  0.75182460  0.69190822  1
  O  O431  1  0.77114529  0.75064182  0.94364736  1
  O  O432  1  0.02181771  0.08326646  0.18145284  1
  O  O433  1  0.02304510  0.08387948  0.43413252  1
  O  O434  1  0.02176905  0.08172176  0.68295729  1
  O  O435  1  0.02158662  0.08547217  0.93310378  1
  O  O436  1  0.02272786  0.41911582  0.18309846  1
  O  O437  1  0.02238620  0.41803419  0.43305927  1
  O  O438  1  0.02219137  0.41469205  0.68318017  1
  O  O439  1  0.02263099  0.41577001  0.93290011  1
  O  O440  1  0.02163604  0.75193869  0.18369179  1
  O  O441  1  0.02309359  0.75077137  0.43435480  1
  O  O442  1  0.02168704  0.75028266  0.68140970  1
  O  O443  1  0.02244704  0.75113657  0.93454265  1
  O  O444  1  0.52191197  0.08285808  0.18181452  1
  O  O445  1  0.52272118  0.08358053  0.43433137  1
  O  O446  1  0.52105795  0.08305529  0.68159133  1
  O  O447  1  0.52242714  0.08402133  0.93410697  1
  O  O448  1  0.52233991  0.41825725  0.18362599  1
  O  O449  1  0.52286729  0.41551159  0.43480081  1
  O  O450  1  0.52232016  0.41431088  0.68327124  1
  O  O451  1  0.52221945  0.41795919  0.93350897  1
  O  O452  1  0.52152455  0.75117443  0.18336462  1
  O  O453  1  0.52232804  0.75073948  0.43278374  1
  O  O454  1  0.52219693  0.75186675  0.68276813  1
  O  O455  1  0.52096569  0.75021036  0.93166175  1
  O  O456  1  0.47796991  0.24885788  0.06754218  1
  O  O457  1  0.47841263  0.24981660  0.31876681  1
  O  O458  1  0.47750541  0.24960969  0.56590232  1
  O  O459  1  0.47746207  0.25136165  0.81713924  1
  O  O460  1  0.47810634  0.58144404  0.06712035  1
  O  O461  1  0.47809803  0.58141864  0.31742518  1
  O  O462  1  0.47824777  0.58186343  0.56691606  1
  O  O463  1  0.47885849  0.58312111  0.81801838  1
  O  O464  1  0.47756312  0.91844001  0.06690542  1
  O  O465  1  0.47755639  0.91470289  0.31687600  1
  O  O466  1  0.47694693  0.91559046  0.56536265  1
  O  O467  1  0.47736170  0.91508483  0.81633919  1
  O  O468  1  0.97691397  0.25028467  0.06568523  1
  O  O469  1  0.97903672  0.25045153  0.31823304  1
  O  O470  1  0.97804230  0.24817624  0.56644414  1
  O  O471  1  0.97770219  0.25164524  0.81673717  1
  O  O472  1  0.97835149  0.58518651  0.06673007  1
  O  O473  1  0.97813288  0.58220440  0.31674215  1
  O  O474  1  0.97742019  0.58230273  0.56560162  1
  O  O475  1  0.97855446  0.58332857  0.81836513  1
  O  O476  1  0.97769856  0.91585755  0.06693622  1
  O  O477  1  0.97764078  0.91518092  0.31709995  1
  O  O478  1  0.97713726  0.91575439  0.56560576  1
  O  O479  1  0.97748492  0.91860922  0.81661146  1
  O  O480  1  0.07168035  0.31447445  0.07313631  1
  O  O481  1  0.07467066  0.31326587  0.32582510  1
  O  O482  1  0.07336669  0.31201687  0.57479846  1
  O  O483  1  0.07287557  0.31473174  0.82412018  1
  O  O484  1  0.07288511  0.64914685  0.07476015  1
  O  O485  1  0.07323222  0.64616865  0.32567881  1
  O  O486  1  0.07190398  0.64654347  0.57269855  1
  O  O487  1  0.07380081  0.64739723  0.82469359  1
  O  O488  1  0.07305737  0.97937934  0.07520898  1
  O  O489  1  0.07291598  0.97903264  0.32516103  1
  O  O490  1  0.07161129  0.98046142  0.57243198  1
  O  O491  1  0.07232788  0.98214565  0.82400202  1
  O  O492  1  0.57336006  0.31256763  0.07485092  1
  O  O493  1  0.57404242  0.31260519  0.32597429  1
  O  O494  1  0.57277649  0.31317497  0.57357008  1
  O  O495  1  0.57246032  0.31446382  0.82478244  1
  O  O496  1  0.57286586  0.64607781  0.07595539  1
  O  O497  1  0.57329380  0.64511886  0.32565884  1
  O  O498  1  0.57378226  0.64538708  0.57430345  1
  O  O499  1  0.57411173  0.64664806  0.82559352  1
  O  O500  1  0.57267896  0.98122869  0.07404353  1
  O  O501  1  0.57262999  0.97886604  0.32504055  1
  O  O502  1  0.57134730  0.97991535  0.57287173  1
  O  O503  1  0.57232349  0.97975478  0.82385794  1
  O  O504  1  0.42611492  0.02031462  0.17430375  1
  O  O505  1  0.42835715  0.01884243  0.42685924  1
  O  O506  1  0.42542709  0.02012792  0.67382706  1
  O  O507  1  0.42784157  0.01985610  0.92650548  1
  O  O508  1  0.42751108  0.35377300  0.17545037  1
  O  O509  1  0.42741254  0.35258439  0.42656645  1
  O  O510  1  0.42727053  0.35130924  0.67582799  1
  O  O511  1  0.42675235  0.35428144  0.92625461  1
  O  O512  1  0.42616044  0.68749099  0.17569817  1
  O  O513  1  0.42704838  0.68706952  0.42468981  1
  O  O514  1  0.42734733  0.68732262  0.67437548  1
  O  O515  1  0.42576478  0.68666102  0.92426106  1
  O  O516  1  0.92623502  0.02044949  0.17405021  1
  O  O517  1  0.92868593  0.01912051  0.42675410  1
  O  O518  1  0.92691293  0.01816507  0.67531790  1
  O  O519  1  0.92625457  0.02155870  0.92539815  1
  O  O520  1  0.92763991  0.35478518  0.17554528  1
  O  O521  1  0.92719796  0.35432267  0.42433401  1
  O  O522  1  0.92704931  0.35163362  0.67513577  1
  O  O523  1  0.92750725  0.35232118  0.92655268  1
  O  O524  1  0.92630850  0.68832399  0.17544369  1
  O  O525  1  0.92912555  0.68584624  0.42625857  1
  O  O526  1  0.92646558  0.68635236  0.67408071  1
  O  O527  1  0.92777805  0.68705817  0.92697063  1
  O  O528  1  0.17729527  0.01940819  0.19909511  1
  O  O529  1  0.17685936  0.02235793  0.45009468  1
  O  O530  1  0.17633184  0.02187245  0.69884520  1
  O  O531  1  0.17645497  0.01937853  0.94911811  1
  O  O532  1  0.17667854  0.35112239  0.19899166  1
  O  O533  1  0.17682352  0.35452673  0.44983114  1
  O  O534  1  0.17707507  0.35223398  0.69917081  1
  O  O535  1  0.17816562  0.35223570  0.94797739  1
  O  O536  1  0.17665683  0.68593763  0.20123065  1
  O  O537  1  0.17666750  0.68793789  0.44942847  1
  O  O538  1  0.17680585  0.68528521  0.69846798  1
  O  O539  1  0.17578346  0.68675235  0.95008880  1
  O  O540  1  0.67729373  0.01969403  0.19889052  1
  O  O541  1  0.67686272  0.01802420  0.44891636  1
  O  O542  1  0.67492023  0.02000247  0.70000262  1
  O  O543  1  0.67657437  0.01901811  0.94969298  1
  O  O544  1  0.67680642  0.35188927  0.19880166  1
  O  O545  1  0.67733597  0.35091163  0.44862938  1
  O  O546  1  0.67660813  0.35297278  0.70084353  1
  O  O547  1  0.67745951  0.35248677  0.94876295  1
  O  O548  1  0.67620476  0.68663910  0.20091859  1
  O  O549  1  0.67780963  0.68597105  0.44884125  1
  O  O550  1  0.67681307  0.68763968  0.69934347  1
  O  O551  1  0.67580280  0.68694531  0.95040295  1
  O  O552  1  0.32263114  0.31341069  0.05154273  1
  O  O553  1  0.32400853  0.31150215  0.30047588  1
  O  O554  1  0.32192360  0.31467945  0.55142911  1
  O  O555  1  0.32296730  0.31461284  0.80098871  1
  O  O556  1  0.32377156  0.64612292  0.04945047  1
  O  O557  1  0.32397280  0.64466912  0.30035643  1
  O  O558  1  0.32294195  0.64875704  0.55091591  1
  O  O559  1  0.32320768  0.64570440  0.80019660  1
  O  O560  1  0.32269079  0.98181467  0.05113154  1
  O  O561  1  0.32363052  0.97944691  0.30038486  1
  O  O562  1  0.32320973  0.98113833  0.54832741  1
  O  O563  1  0.32269024  0.98240092  0.80055070  1
  O  O564  1  0.82246369  0.31349040  0.05154005  1
  O  O565  1  0.82375627  0.31423613  0.30025708  1
  O  O566  1  0.82434317  0.31254492  0.54972828  1
  O  O567  1  0.82332990  0.31410123  0.80154023  1
  O  O568  1  0.82367355  0.64659953  0.04933313  1
  O  O569  1  0.82360053  0.64791942  0.30119851  1
  O  O570  1  0.82398772  0.64649849  0.54958914  1
  O  O571  1  0.82349333  0.64632732  0.80044754  1
  O  O572  1  0.82324434  0.98188076  0.05167496  1
  O  O573  1  0.82294230  0.98065423  0.30196890  1
  O  O574  1  0.82264883  0.97840832  0.54992899  1
  O  O575  1  0.82274902  0.98175944  0.80082529  1
  O  O576  1  0.42686826  0.14694265  0.17457949  1
  O  O577  1  0.42718926  0.14640204  0.42669578  1
  O  O578  1  0.42596650  0.14683028  0.67423840  1
  O  O579  1  0.42731301  0.14754018  0.92638562  1
  O  O580  1  0.42666525  0.48086911  0.17683898  1
  O  O581  1  0.42832628  0.47993801  0.42760782  1
  O  O582  1  0.42713634  0.47836035  0.67488801  1
  O  O583  1  0.42733938  0.48134498  0.92568282  1
  O  O584  1  0.42660462  0.81486161  0.17579684  1
  O  O585  1  0.42713828  0.81413017  0.42565145  1
  O  O586  1  0.42665323  0.81455778  0.67530682  1
  O  O587  1  0.42529108  0.81348600  0.92451121  1
  O  O588  1  0.92656588  0.14731151  0.17492636  1
  O  O589  1  0.92752744  0.14664099  0.42630560  1
  O  O590  1  0.92626725  0.14511887  0.67492643  1
  O  O591  1  0.92655076  0.14867480  0.92565976  1
  O  O592  1  0.92744531  0.48198739  0.17512159  1
  O  O593  1  0.92712280  0.48135276  0.42596803  1
  O  O594  1  0.92702729  0.47885275  0.67567373  1
  O  O595  1  0.92728431  0.47928739  0.92469635  1
  O  O596  1  0.92658282  0.81521383  0.17620495  1
  O  O597  1  0.92729064  0.81327951  0.42674478  1
  O  O598  1  0.92604145  0.81307387  0.67415023  1
  O  O599  1  0.92733576  0.81465292  0.92617938  1
  O  O600  1  0.07205485  0.18688932  0.07305390  1
  O  O601  1  0.07421826  0.18638987  0.32455125  1
  O  O602  1  0.07292228  0.18486036  0.57470530  1
  O  O603  1  0.07294868  0.18783324  0.82498767  1
  O  O604  1  0.07412101  0.52196107  0.07468519  1
  O  O605  1  0.07328272  0.51918401  0.32411827  1
  O  O606  1  0.07278086  0.51902060  0.57362650  1
  O  O607  1  0.07410431  0.52048428  0.82584732  1
  O  O608  1  0.07279909  0.85239885  0.07364695  1
  O  O609  1  0.07278800  0.85200737  0.32457031  1
  O  O610  1  0.07276184  0.85320342  0.57394264  1
  O  O611  1  0.07299940  0.85499959  0.82402917  1
  O  O612  1  0.57299171  0.18537377  0.07406201  1
  O  O613  1  0.57365803  0.18590035  0.32614278  1
  O  O614  1  0.57242131  0.18587447  0.57415267  1
  O  O615  1  0.57276845  0.18734871  0.82483294  1
  O  O616  1  0.57365750  0.51879499  0.07443681  1
  O  O617  1  0.57328515  0.51800195  0.32475886  1
  O  O618  1  0.57320986  0.51807530  0.57418877  1
  O  O619  1  0.57437364  0.51979117  0.82519895  1
  O  O620  1  0.57283423  0.85411076  0.07439512  1
  O  O621  1  0.57275062  0.85183738  0.32407666  1
  O  O622  1  0.57250393  0.85260300  0.57289645  1
  O  O623  1  0.57276865  0.85262125  0.82430379  1
  O  O624  1  0.32123938  0.18600325  0.05126365  1
  O  O625  1  0.32313720  0.18467206  0.30079824  1
  O  O626  1  0.32212346  0.18728057  0.55216348  1
  O  O627  1  0.32326022  0.18777572  0.80035613  1
  O  O628  1  0.32435984  0.51918801  0.04977748  1
  O  O629  1  0.32307161  0.51741330  0.30160955  1
  O  O630  1  0.32371355  0.52161246  0.55067061  1
  O  O631  1  0.32336782  0.51845731  0.79998071  1
  O  O632  1  0.32267736  0.85474057  0.04922355  1
  O  O633  1  0.32221996  0.85227053  0.30104230  1
  O  O634  1  0.32351766  0.85425430  0.54976588  1
  O  O635  1  0.32245047  0.85501722  0.80007817  1
  O  O636  1  0.82117768  0.18615436  0.05159959  1
  O  O637  1  0.82398350  0.18726096  0.29929066  1
  O  O638  1  0.82356163  0.18558982  0.54945426  1
  O  O639  1  0.82326450  0.18692842  0.80116041  1
  O  O640  1  0.82446802  0.51963901  0.04976147  1
  O  O641  1  0.82391594  0.52062087  0.30012648  1
  O  O642  1  0.82342733  0.51960326  0.54907230  1
  O  O643  1  0.82347191  0.51897491  0.80123591  1
  O  O644  1  0.82253677  0.85481973  0.05063234  1
  O  O645  1  0.82161490  0.85328135  0.30175398  1
  O  O646  1  0.82243304  0.85145235  0.55025929  1
  O  O647  1  0.82305808  0.85463195  0.80111382  1
  O  O648  1  0.17792298  0.14678089  0.19748653  1
  O  O649  1  0.17728612  0.14941424  0.44844495  1
  O  O650  1  0.17655757  0.14901599  0.69969934  1
  O  O651  1  0.17675123  0.14632333  0.95053269  1
  O  O652  1  0.17712312  0.47811717  0.19905237  1
  O  O653  1  0.17797121  0.48170128  0.44937079  1
  O  O654  1  0.17647693  0.47905168  0.69997392  1
  O  O655  1  0.17814386  0.47969623  0.94875394  1
  O  O656  1  0.17592763  0.81299026  0.20029768  1
  O  O657  1  0.17766976  0.81509303  0.44913044  1
  O  O658  1  0.17618267  0.81268311  0.69956080  1
  O  O659  1  0.17576029  0.81378125  0.95002799  1
  O  O660  1  0.67841051  0.14708794  0.19883419  1
  O  O661  1  0.67701286  0.14520208  0.44918564  1
  O  O662  1  0.67576460  0.14686397  0.70025687  1
  O  O663  1  0.67667587  0.14593410  0.95077991  1
  O  O664  1  0.67773329  0.47896955  0.20000412  1
  O  O665  1  0.67690383  0.47817269  0.44910447  1
  O  O666  1  0.67644332  0.47972886  0.70050412  1
  O  O667  1  0.67886470  0.47993684  0.94878859  1
  O  O668  1  0.67592846  0.81346162  0.20132818  1
  O  O669  1  0.67828645  0.81338058  0.44758736  1
  O  O670  1  0.67675027  0.81488353  0.69844925  1
  O  O671  1  0.67562332  0.81399377  0.95064827  1
