# generated using pymatgen
data_Na2MnFe(PO4)2
_symmetry_space_group_name_H-M   'P 1'
_cell_length_a   22.34628501
_cell_length_b   20.09782378
_cell_length_c   19.44664907
_cell_angle_alpha   89.94956693
_cell_angle_beta   90.01392001
_cell_angle_gamma   89.98533979
_symmetry_Int_Tables_number   1
_chemical_formula_structural   Na2MnFe(PO4)2
_chemical_formula_sum   'Na96 Mn48 Fe48 P96 O384'
_cell_volume   8733.71366199
_cell_formula_units_Z   48
loop_
 _symmetry_equiv_pos_site_id
 _symmetry_equiv_pos_as_xyz
  1  'x, y, z'
loop_
 _atom_site_type_symbol
 _atom_site_label
 _atom_site_symmetry_multiplicity
 _atom_site_fract_x
 _atom_site_fract_y
 _atom_site_fract_z
 _atom_site_occupancy
  Na  Na0  1  0.14045979  0.25116852  0.24390323  1
  Na  Na1  1  0.14009589  0.24976808  0.49454673  1
  Na  Na2  1  0.14062523  0.25027747  0.74329240  1
  Na  Na3  1  0.14085860  0.25057064  0.99340898  1
  Na  Na4  1  0.13927383  0.58534605  0.24252705  1
  Na  Na5  1  0.13972488  0.58434068  0.49424885  1
  Na  Na6  1  0.14029436  0.58384393  0.74381262  1
  Na  Na7  1  0.13988072  0.58399945  0.99214308  1
  Na  Na8  1  0.14041226  0.91810167  0.24276660  1
  Na  Na9  1  0.14047932  0.91599863  0.49437045  1
  Na  Na10  1  0.14045703  0.91587622  0.74320148  1
  Na  Na11  1  0.14021608  0.91624564  0.99176991  1
  Na  Na12  1  0.64048219  0.24970878  0.24434763  1
  Na  Na13  1  0.64029732  0.24984302  0.49327978  1
  Na  Na14  1  0.64064572  0.25014427  0.74337663  1
  Na  Na15  1  0.64016601  0.25048330  0.99350243  1
  Na  Na16  1  0.63952430  0.58282860  0.24483385  1
  Na  Na17  1  0.64063058  0.58244853  0.49342542  1
  Na  Na18  1  0.64062366  0.58349414  0.74370417  1
  Na  Na19  1  0.63979319  0.58390052  0.99464279  1
  Na  Na20  1  0.64001784  0.91624822  0.24389012  1
  Na  Na21  1  0.64086991  0.91540016  0.49413770  1
  Na  Na22  1  0.64099764  0.91639120  0.74298759  1
  Na  Na23  1  0.64025143  0.91671104  0.99507436  1
  Na  Na24  1  0.35946059  0.08328006  0.00640815  1
  Na  Na25  1  0.35969838  0.08374718  0.25557660  1
  Na  Na26  1  0.35941975  0.08315935  0.50645311  1
  Na  Na27  1  0.35967584  0.08319172  0.75585482  1
  Na  Na28  1  0.35928613  0.41637090  0.00643879  1
  Na  Na29  1  0.35920079  0.41872162  0.25600504  1
  Na  Na30  1  0.35908684  0.41632227  0.50684254  1
  Na  Na31  1  0.35944970  0.41567341  0.75659190  1
  Na  Na32  1  0.35986592  0.74906084  0.00685498  1
  Na  Na33  1  0.35955621  0.75131385  0.25613251  1
  Na  Na34  1  0.35965223  0.74936226  0.50540752  1
  Na  Na35  1  0.35935130  0.74885157  0.75667865  1
  Na  Na36  1  0.86027206  0.08308978  0.00576614  1
  Na  Na37  1  0.85965355  0.08326528  0.25571219  1
  Na  Na38  1  0.85963089  0.08216840  0.50750065  1
  Na  Na39  1  0.86000515  0.08265062  0.75500667  1
  Na  Na40  1  0.86004202  0.41796073  0.00533630  1
  Na  Na41  1  0.85947533  0.41777688  0.25744453  1
  Na  Na42  1  0.85965053  0.41625681  0.50699316  1
  Na  Na43  1  0.86013868  0.41742016  0.75616039  1
  Na  Na44  1  0.86084627  0.75038930  0.00646150  1
  Na  Na45  1  0.86026445  0.74863872  0.25693301  1
  Na  Na46  1  0.85962887  0.74844255  0.50777036  1
  Na  Na47  1  0.86029511  0.74920742  0.75610865  1
  Na  Na48  1  0.10964988  0.08332879  0.11776259  1
  Na  Na49  1  0.10967736  0.08243666  0.36921477  1
  Na  Na50  1  0.10983917  0.08382515  0.61841133  1
  Na  Na51  1  0.10957183  0.08330158  0.86783190  1
  Na  Na52  1  0.10944027  0.41910445  0.11834135  1
  Na  Na53  1  0.10914537  0.41707054  0.36903234  1
  Na  Na54  1  0.10967088  0.41766454  0.61949098  1
  Na  Na55  1  0.10927349  0.41880663  0.86818557  1
  Na  Na56  1  0.10920596  0.74999058  0.11702430  1
  Na  Na57  1  0.10965854  0.74842924  0.36860377  1
  Na  Na58  1  0.11036257  0.75083069  0.61890874  1
  Na  Na59  1  0.10995901  0.75030507  0.86713587  1
  Na  Na60  1  0.60941907  0.08215726  0.11849599  1
  Na  Na61  1  0.60935792  0.08274553  0.36922648  1
  Na  Na62  1  0.61005035  0.08420010  0.61731914  1
  Na  Na63  1  0.60976085  0.08357071  0.86910845  1
  Na  Na64  1  0.60929305  0.41732339  0.11965628  1
  Na  Na65  1  0.60960280  0.41644078  0.36896059  1
  Na  Na66  1  0.60967332  0.41694503  0.61768900  1
  Na  Na67  1  0.60947755  0.41681554  0.86932760  1
  Na  Na68  1  0.60926541  0.74960441  0.12062810  1
  Na  Na69  1  0.60929270  0.74880279  0.36879069  1
  Na  Na70  1  0.61038018  0.74949528  0.61801135  1
  Na  Na71  1  0.60946728  0.74979720  0.87022472  1
  Na  Na72  1  0.39057757  0.24977510  0.13048432  1
  Na  Na73  1  0.39023189  0.24987120  0.38152234  1
  Na  Na74  1  0.38973634  0.25017366  0.63071138  1
  Na  Na75  1  0.39022167  0.24934377  0.88141758  1
  Na  Na76  1  0.38996822  0.58415420  0.13133891  1
  Na  Na77  1  0.38969978  0.58324788  0.38083772  1
  Na  Na78  1  0.38991899  0.58415851  0.63108210  1
  Na  Na79  1  0.38966623  0.58338828  0.88279236  1
  Na  Na80  1  0.39031612  0.91519492  0.13137874  1
  Na  Na81  1  0.39027613  0.91684171  0.38051823  1
  Na  Na82  1  0.39038551  0.91636460  0.63098262  1
  Na  Na83  1  0.39055409  0.91599412  0.88189901  1
  Na  Na84  1  0.89079572  0.25084018  0.13117309  1
  Na  Na85  1  0.89045109  0.24959233  0.38200219  1
  Na  Na86  1  0.89066272  0.25051672  0.63169837  1
  Na  Na87  1  0.89104427  0.25105059  0.88037677  1
  Na  Na88  1  0.89089769  0.58364567  0.13060653  1
  Na  Na89  1  0.88985490  0.58226516  0.38241066  1
  Na  Na90  1  0.89024895  0.58382722  0.63244253  1
  Na  Na91  1  0.89065177  0.58425878  0.88033833  1
  Na  Na92  1  0.89079478  0.91603046  0.13050019  1
  Na  Na93  1  0.89070711  0.91536052  0.38180415  1
  Na  Na94  1  0.89080582  0.91620631  0.63238426  1
  Na  Na95  1  0.89087260  0.91618664  0.88039414  1
  Mn  Mn96  1  0.74973475  0.66619291  0.87502963  1
  Mn  Mn97  1  0.50064064  0.16602784  0.25001816  1
  Mn  Mn98  1  0.74982425  0.83369080  0.12617798  1
  Mn  Mn99  1  0.50021493  0.00008213  0.49992172  1
  Mn  Mn100  1  0.50025397  0.83290075  0.75046181  1
  Mn  Mn101  1  0.75018759  -0.00068780  0.37596008  1
  Mn  Mn102  1  0.25006164  -0.00027504  0.87444555  1
  Mn  Mn103  1  0.75073939  0.83217366  0.37556256  1
  Mn  Mn104  1  0.50013777  0.83251611  0.49971705  1
  Mn  Mn105  1  0.74963347  0.33381177  0.12493896  1
  Mn  Mn106  1  0.49959152  0.50015300  0.75017942  1
  Mn  Mn107  1  0.75076933  0.33457611  0.87380871  1
  Mn  Mn108  1  0.00010096  0.50039059  0.50063157  1
  Mn  Mn109  1  0.75067579  0.16642445  0.12481770  1
  Mn  Mn110  1  0.24997166  0.33281954  0.87548152  1
  Mn  Mn111  1  0.75037091  0.66645079  0.12560178  1
  Mn  Mn112  1  0.50059867  0.16720809  0.74965612  1
  Mn  Mn113  1  0.74993233  0.50025123  0.12609078  1
  Mn  Mn114  1  -0.00002220  -0.00106503  0.24943638  1
  Mn  Mn115  1  0.75005408  0.00008897  0.87405103  1
  Mn  Mn116  1  -0.00000325  0.83282823  0.50016400  1
  Mn  Mn117  1  0.24983735  0.33428451  0.12460895  1
  Mn  Mn118  1  0.49998389  0.33344884  0.25006155  1
  Mn  Mn119  1  0.49924441  0.50016964  0.49947294  1
  Mn  Mn120  1  0.24860747  0.50198124  0.37613670  1
  Mn  Mn121  1  0.00062808  0.16670342  -0.00036853  1
  Mn  Mn122  1  0.74981649  0.33339512  0.62495887  1
  Mn  Mn123  1  0.49995939  0.66687962  0.75069301  1
  Mn  Mn124  1  0.00030306  0.33433235  0.25029332  1
  Mn  Mn125  1  0.25012186  0.16629209  0.37469258  1
  Mn  Mn126  1  0.24988516  0.33411619  0.37471073  1
  Mn  Mn127  1  0.50012623  -0.00091163  0.00012460  1
  Mn  Mn128  1  0.75045596  0.83322716  0.87494609  1
  Mn  Mn129  1  -0.00002533  0.16666961  0.50062049  1
  Mn  Mn130  1  0.75023909  0.16670315  0.87471885  1
  Mn  Mn131  1  0.50041323  0.00024315  0.75056661  1
  Mn  Mn132  1  0.24981573  0.00055307  0.12368605  1
  Mn  Mn133  1  0.00049900  0.33537614  0.00084029  1
  Mn  Mn134  1  0.25013535  0.50027729  0.62534317  1
  Mn  Mn135  1  0.74932567  0.16659019  0.37504083  1
  Mn  Mn136  1  0.49995616  0.50013827  0.00050931  1
  Mn  Mn137  1  0.50031097  0.33314196  0.74979135  1
  Mn  Mn138  1  0.00020462  0.16703658  0.75005273  1
  Mn  Mn139  1  0.25013518  -0.00083012  0.62553702  1
  Mn  Mn140  1  0.00080871  0.83166807  0.24980554  1
  Mn  Mn141  1  0.24964227  0.66753231  0.12402979  1
  Mn  Mn142  1  0.24927213  0.83383021  0.37478603  1
  Mn  Mn143  1  0.00014320  0.16615668  0.25045870  1
  Fe  Fe144  1  0.49895210  0.49999659  0.24991595  1
  Fe  Fe145  1  0.75008786  -0.00057960  0.62493933  1
  Fe  Fe146  1  0.50047077  0.83254862  0.00163466  1
  Fe  Fe147  1  0.00013595  0.50129765  0.74977511  1
  Fe  Fe148  1  0.24917167  0.33280099  0.62583858  1
  Fe  Fe149  1  0.74980858  0.49960245  0.62475567  1
  Fe  Fe150  1  0.74983457  0.49991129  0.37620553  1
  Fe  Fe151  1  0.24981511  0.49988505  0.87452661  1
  Fe  Fe152  1  0.25024002  0.66660053  0.62547412  1
  Fe  Fe153  1  0.24971624  0.50112771  0.12477959  1
  Fe  Fe154  1  0.00026408  0.66769831  0.75041116  1
  Fe  Fe155  1  0.00004300  0.66642512  0.50021334  1
  Fe  Fe156  1  0.24969487  0.16616476  0.62504844  1
  Fe  Fe157  1  0.74966354  0.66576241  0.37673859  1
  Fe  Fe158  1  0.25003840  0.16655393  0.87459731  1
  Fe  Fe159  1  0.24956870  0.83385321  0.12448355  1
  Fe  Fe160  1  0.50032074  0.66689100  0.00173597  1
  Fe  Fe161  1  -0.00066302  0.66577806  0.24905874  1
  Fe  Fe162  1  0.25079034  0.83253989  0.62442173  1
  Fe  Fe163  1  0.49908326  0.16670094  0.49929297  1
  Fe  Fe164  1  0.75033171  -0.00003717  0.12524695  1
  Fe  Fe165  1  -0.00005061  -0.00069958  -0.00132372  1
  Fe  Fe166  1  0.49925021  0.33361664  0.49931719  1
  Fe  Fe167  1  0.75016414  0.66558359  0.62530130  1
  Fe  Fe168  1  0.25061264  0.83263701  0.87391260  1
  Fe  Fe169  1  0.24994278  0.00015290  0.37489957  1
  Fe  Fe170  1  0.00049791  -0.00041081  0.50032993  1
  Fe  Fe171  1  0.00054735  0.33462977  0.75057963  1
  Fe  Fe172  1  -0.00000037  0.66685587  -0.00093576  1
  Fe  Fe173  1  0.75011790  0.50032492  0.87471053  1
  Fe  Fe174  1  0.49986386  0.33334118  0.00019289  1
  Fe  Fe175  1  0.49957593  0.66608854  0.49918611  1
  Fe  Fe176  1  -0.00045231  0.50080304  0.24986182  1
  Fe  Fe177  1  0.25017787  0.66680832  0.87470057  1
  Fe  Fe178  1  0.49985057  0.83248642  0.25041138  1
  Fe  Fe179  1  0.49953499  -0.00071689  0.24957339  1
  Fe  Fe180  1  0.75054810  0.33319968  0.37558157  1
  Fe  Fe181  1  0.49993749  0.16630054  0.00048858  1
  Fe  Fe182  1  0.00037358  -0.00024838  0.74973253  1
  Fe  Fe183  1  0.75040802  0.83216519  0.62505489  1
  Fe  Fe184  1  0.24950973  0.66780813  0.37455140  1
  Fe  Fe185  1  0.00052581  0.83343615  0.74979217  1
  Fe  Fe186  1  0.75039139  0.16658816  0.62439078  1
  Fe  Fe187  1  0.49939554  0.66623021  0.25008001  1
  Fe  Fe188  1  0.00001917  0.33402507  0.50065149  1
  Fe  Fe189  1  -0.00041985  0.50142900  -0.00080589  1
  Fe  Fe190  1  0.00032367  0.83309900  -0.00124307  1
  Fe  Fe191  1  0.24983065  0.16699586  0.12496976  1
  P  P192  1  0.04330732  0.25071410  0.10316538  1
  P  P193  1  0.04277351  0.25015652  0.35387851  1
  P  P194  1  0.04184657  0.25209163  0.60332299  1
  P  P195  1  0.04268226  0.25186429  0.85241233  1
  P  P196  1  0.04154296  0.58409171  0.10124319  1
  P  P197  1  0.04113914  0.58335434  0.35166670  1
  P  P198  1  0.04189261  0.58533368  0.60355539  1
  P  P199  1  0.04114821  0.58445072  0.85188152  1
  P  P200  1  0.04160373  0.91612996  0.10033438  1
  P  P201  1  0.04301842  0.91566836  0.35324733  1
  P  P202  1  0.04221184  0.91761879  0.60314194  1
  P  P203  1  0.04155176  0.91652498  0.85162721  1
  P  P204  1  0.54163745  0.25005440  0.10162922  1
  P  P205  1  0.54235098  0.24992466  0.35389071  1
  P  P206  1  0.54119475  0.25037127  0.60057983  1
  P  P207  1  0.54293975  0.25009286  0.85411223  1
  P  P208  1  0.54184552  0.58446772  0.10410771  1
  P  P209  1  0.54063996  0.58296523  0.35184014  1
  P  P210  1  0.54212547  0.58440778  0.60202545  1
  P  P211  1  0.54260296  0.58343819  0.85415413  1
  P  P212  1  0.54192477  0.91483119  0.10398997  1
  P  P213  1  0.54124745  0.91627940  0.35145311  1
  P  P214  1  0.54309645  0.91631625  0.60298650  1
  P  P215  1  0.54327284  0.91603463  0.85402981  1
  P  P216  1  0.45797521  0.08203346  0.14695611  1
  P  P217  1  0.45742439  0.08380067  0.39698775  1
  P  P218  1  0.45748093  0.08388685  0.64639900  1
  P  P219  1  0.45787135  0.08426135  0.89801416  1
  P  P220  1  0.45754743  0.41761375  0.14709948  1
  P  P221  1  0.45685082  0.41594525  0.39688941  1
  P  P222  1  0.45704192  0.41653585  0.64623190  1
  P  P223  1  0.45730844  0.41554787  0.89788762  1
  P  P224  1  0.45843066  0.74968659  0.14840458  1
  P  P225  1  0.45791760  0.74836345  0.39632637  1
  P  P226  1  0.45710788  0.74964059  0.64665924  1
  P  P227  1  0.45865043  0.74987382  0.89980602  1
  P  P228  1  0.95757065  0.08280057  0.14611152  1
  P  P229  1  0.95758615  0.08151054  0.39818845  1
  P  P230  1  0.95850953  0.08207414  0.64729084  1
  P  P231  1  0.95828591  0.08188729  0.89657634  1
  P  P232  1  0.95760437  0.41918091  0.14742011  1
  P  P233  1  0.95785998  0.41610974  0.39797888  1
  P  P234  1  0.95902111  0.41724264  0.64856228  1
  P  P235  1  0.95818680  0.41888142  0.89655859  1
  P  P236  1  0.95790586  0.74835444  0.14639268  1
  P  P237  1  0.95773888  0.74759955  0.39746076  1
  P  P238  1  0.95920724  0.75002467  0.64831753  1
  P  P239  1  0.95909890  0.74995614  0.89709574  1
  P  P240  1  0.20754311  0.08458188  0.22719216  1
  P  P241  1  0.20795520  0.08199931  0.47786466  1
  P  P242  1  0.20779832  0.08425392  0.72769094  1
  P  P243  1  0.20783226  0.08471157  0.97706908  1
  P  P244  1  0.20740669  0.41922225  0.22724548  1
  P  P245  1  0.20692291  0.41663651  0.47910023  1
  P  P246  1  0.20826990  0.41607457  0.72812711  1
  P  P247  1  0.20765338  0.41842268  0.97745829  1
  P  P248  1  0.20731169  0.75193518  0.22686010  1
  P  P249  1  0.20773966  0.74896461  0.47806499  1
  P  P250  1  0.20915758  0.74995213  0.72699845  1
  P  P251  1  0.20878431  0.75037694  0.97595421  1
  P  P252  1  0.70737228  0.08215860  0.22739771  1
  P  P253  1  0.70736491  0.08295794  0.47928465  1
  P  P254  1  0.70864190  0.08351409  0.72582473  1
  P  P255  1  0.70746089  0.08290455  0.97841689  1
  P  P256  1  0.70718624  0.41650336  0.22983252  1
  P  P257  1  0.70867138  0.41632855  0.47722824  1
  P  P258  1  0.70753538  0.41828577  0.72736318  1
  P  P259  1  0.70768388  0.41825550  0.97717560  1
  P  P260  1  0.70749610  0.74906105  0.22963992  1
  P  P261  1  0.70807223  0.74816149  0.47895844  1
  P  P262  1  0.70884814  0.74930055  0.72651674  1
  P  P263  1  0.70751491  0.75018750  0.97853335  1
  P  P264  1  0.29198896  0.24875796  0.02231739  1
  P  P265  1  0.29279862  0.25035019  0.27134601  1
  P  P266  1  0.29069802  0.24978288  0.52369184  1
  P  P267  1  0.29195284  0.24852759  0.77185461  1
  P  P268  1  0.29173230  0.58232168  0.02151075  1
  P  P269  1  0.29123915  0.58556066  0.27222489  1
  P  P270  1  0.29177426  0.58521704  0.52251507  1
  P  P271  1  0.29138101  0.58342626  0.77327743  1
  P  P272  1  0.29204118  0.91491460  0.02154739  1
  P  P273  1  0.29172156  0.91841679  0.27193726  1
  P  P274  1  0.29236729  0.91534842  0.52220260  1
  P  P275  1  0.29271098  0.91485350  0.77191074  1
  P  P276  1  0.79329604  0.25067145  0.02154267  1
  P  P277  1  0.79267886  0.25106569  0.27290574  1
  P  P278  1  0.79229718  0.24926947  0.52220972  1
  P  P279  1  0.79317116  0.24977570  0.77082428  1
  P  P280  1  0.79276586  0.58304689  0.02171003  1
  P  P281  1  0.79100856  0.58337102  0.27472252  1
  P  P282  1  0.79131669  0.58241927  0.52321608  1
  P  P283  1  0.79211239  0.58203911  0.77160286  1
  P  P284  1  0.79251329  0.91783569  0.02281370  1
  P  P285  1  0.79301904  0.91662334  0.27214641  1
  P  P286  1  0.79197275  0.91550972  0.52403684  1
  P  P287  1  0.79286383  0.91618905  0.77044464  1
  O  O288  1  0.03811033  0.25045267  0.18315008  1
  O  O289  1  0.03748479  0.25043136  0.43387406  1
  O  O290  1  0.03635622  0.25219385  0.68325685  1
  O  O291  1  0.03765458  0.25144917  0.93237447  1
  O  O292  1  0.03614905  0.58412409  0.18111970  1
  O  O293  1  0.03650774  0.58353518  0.43167439  1
  O  O294  1  0.03669799  0.58530105  0.68340181  1
  O  O295  1  0.03596584  0.58407435  0.93173891  1
  O  O296  1  0.03711753  0.91542769  0.18036073  1
  O  O297  1  0.03792465  0.91610090  0.43320403  1
  O  O298  1  0.03692432  0.91754528  0.68303165  1
  O  O299  1  0.03650608  0.91626479  0.93152015  1
  O  O300  1  0.53663224  0.24996405  0.18163549  1
  O  O301  1  0.53666310  0.24993126  0.43374265  1
  O  O302  1  0.53679541  0.25026007  0.68067034  1
  O  O303  1  0.53765974  0.25002056  0.93401812  1
  O  O304  1  0.53599184  0.58390851  0.18395501  1
  O  O305  1  0.53543799  0.58328441  0.43180921  1
  O  O306  1  0.53726928  0.58406227  0.68203559  1
  O  O307  1  0.53775195  0.58380792  0.93415360  1
  O  O308  1  0.53610703  0.91524051  0.18384122  1
  O  O309  1  0.53632074  0.91616900  0.43144965  1
  O  O310  1  0.53828774  0.91636064  0.68299254  1
  O  O311  1  0.53807160  0.91555060  0.93402171  1
  O  O312  1  0.46359572  0.08275115  0.06702765  1
  O  O313  1  0.46266307  0.08310229  0.31703062  1
  O  O314  1  0.46237548  0.08419246  0.56638494  1
  O  O315  1  0.46298398  0.08418177  0.81801269  1
  O  O316  1  0.46317748  0.41692513  0.06717072  1
  O  O317  1  0.46201664  0.41662474  0.31692686  1
  O  O318  1  0.46196915  0.41609154  0.56620706  1
  O  O319  1  0.46243618  0.41597893  0.81786950  1
  O  O320  1  0.46387201  0.74983772  0.06852340  1
  O  O321  1  0.46344011  0.74863911  0.31643533  1
  O  O322  1  0.46172274  0.74909576  0.56666314  1
  O  O323  1  0.46359992  0.74996576  0.81980721  1
  O  O324  1  0.96281527  0.08281063  0.06613835  1
  O  O325  1  0.96264994  0.08177981  0.31817338  1
  O  O326  1  0.96380976  0.08200384  0.56736459  1
  O  O327  1  0.96395393  0.08187891  0.81664157  1
  O  O328  1  0.96285181  0.41962892  0.06745176  1
  O  O329  1  0.96280137  0.41678669  0.31808010  1
  O  O330  1  0.96375097  0.41698794  0.56856529  1
  O  O331  1  0.96383337  0.41833124  0.81669844  1
  O  O332  1  0.96303815  0.74855128  0.06651428  1
  O  O333  1  0.96276726  0.74739896  0.31748158  1
  O  O334  1  0.96370829  0.74996573  0.56836770  1
  O  O335  1  0.96414284  0.75031291  0.81721382  1
  O  O336  1  0.21315943  0.08470779  0.05703245  1
  O  O337  1  0.21293744  0.08340844  0.30714105  1
  O  O338  1  0.21325715  0.08237188  0.55782639  1
  O  O339  1  0.21322308  0.08427261  0.80761776  1
  O  O340  1  0.21297276  0.41881351  0.05741282  1
  O  O341  1  0.21250462  0.41888971  0.30724784  1
  O  O342  1  0.21233520  0.41592500  0.55906782  1
  O  O343  1  0.21333770  0.41637940  0.80807053  1
  O  O344  1  0.21310831  0.75063042  0.05596163  1
  O  O345  1  0.21225038  0.75134061  0.30680239  1
  O  O346  1  0.21340185  0.74885288  0.55790772  1
  O  O347  1  0.21439100  0.75013929  0.80690651  1
  O  O348  1  0.71273214  0.08246166  0.05837777  1
  O  O349  1  0.71223332  0.08257320  0.30743082  1
  O  O350  1  0.71272034  0.08309697  0.55917900  1
  O  O351  1  0.71338865  0.08337277  0.80586858  1
  O  O352  1  0.71261133  0.41784208  0.05721604  1
  O  O353  1  0.71257327  0.41605874  0.30974790  1
  O  O354  1  0.71342434  0.41690498  0.55723192  1
  O  O355  1  0.71290929  0.41844416  0.80728075  1
  O  O356  1  0.71246135  0.75028085  0.05851328  1
  O  O357  1  0.71268022  0.74841364  0.30961299  1
  O  O358  1  0.71358322  0.74856034  0.55885496  1
  O  O359  1  0.71353348  0.74928351  0.80653774  1
  O  O360  1  0.28754413  0.25012323  0.19140791  1
  O  O361  1  0.28602160  0.25022718  0.44369498  1
  O  O362  1  0.28609752  0.24885163  0.69199293  1
  O  O363  1  0.28659367  0.24863128  0.94235801  1
  O  O364  1  0.28629716  0.58495605  0.19224210  1
  O  O365  1  0.28629427  0.58561044  0.44260238  1
  O  O366  1  0.28654152  0.58430845  0.69328859  1
  O  O367  1  0.28660620  0.58222323  0.94162204  1
  O  O368  1  0.28652206  0.91796860  0.19199008  1
  O  O369  1  0.28684527  0.91635474  0.44229593  1
  O  O370  1  0.28743157  0.91479192  0.69196066  1
  O  O371  1  0.28690875  0.91474363  0.94158559  1
  O  O372  1  0.78773059  0.25078917  0.19287585  1
  O  O373  1  0.78680051  0.25007136  0.44228106  1
  O  O374  1  0.78782315  0.24933281  0.69083883  1
  O  O375  1  0.78837288  0.25081761  0.94150113  1
  O  O376  1  0.78653517  0.58317934  0.19471689  1
  O  O377  1  0.78624960  0.58292566  0.44330118  1
  O  O378  1  0.78673674  0.58203602  0.69170837  1
  O  O379  1  0.78773651  0.58270831  0.94173937  1
  O  O380  1  0.78766717  0.91728255  0.19219990  1
  O  O381  1  0.78740097  0.91551708  0.44399845  1
  O  O382  1  0.78754813  0.91576810  0.69055023  1
  O  O383  1  0.78746025  0.91746421  0.94278002  1
  O  O384  1  0.22782114  0.24902863  0.05824950  1
  O  O385  1  0.22847347  0.25024085  0.30669875  1
  O  O386  1  0.22657816  0.24912394  0.55957459  1
  O  O387  1  0.22789809  0.24832890  0.80826421  1
  O  O388  1  0.22753872  0.58255170  0.05748870  1
  O  O389  1  0.22692286  0.58614326  0.30787547  1
  O  O390  1  0.22765404  0.58487052  0.55853341  1
  O  O391  1  0.22720697  0.58303770  0.80911447  1
  O  O392  1  0.22771131  0.91540311  0.05714021  1
  O  O393  1  0.22751605  0.91875944  0.30780311  1
  O  O394  1  0.22825364  0.91478496  0.55831002  1
  O  O395  1  0.22839708  0.91493289  0.80750793  1
  O  O396  1  0.72879230  0.25014633  0.05640939  1
  O  O397  1  0.72825825  0.25160046  0.30814911  1
  O  O398  1  0.72806720  0.24866002  0.55803078  1
  O  O399  1  0.72885862  0.25030170  0.80615925  1
  O  O400  1  0.72838447  0.58333089  0.05692189  1
  O  O401  1  0.72675624  0.58366948  0.31026639  1
  O  O402  1  0.72721936  0.58191443  0.55927225  1
  O  O403  1  0.72800967  0.58163916  0.80787386  1
  O  O404  1  0.72822079  0.91818115  0.05843926  1
  O  O405  1  0.72867440  0.91596084  0.30744988  1
  O  O406  1  0.72767695  0.91492034  0.55940294  1
  O  O407  1  0.72859786  0.91613631  0.80608379  1
  O  O408  1  0.27177449  0.08483729  0.19127100  1
  O  O409  1  0.27215656  0.08177373  0.44196933  1
  O  O410  1  0.27198177  0.08427784  0.69182221  1
  O  O411  1  0.27208597  0.08461443  0.94131347  1
  O  O412  1  0.27171062  0.41907604  0.19167091  1
  O  O413  1  0.27112415  0.41770269  0.44348358  1
  O  O414  1  0.27234411  0.41610779  0.69222139  1
  O  O415  1  0.27187937  0.41815327  0.94167556  1
  O  O416  1  0.27165494  0.75211288  0.19131378  1
  O  O417  1  0.27172061  0.74898323  0.44152067  1
  O  O418  1  0.27314741  0.75000039  0.69056157  1
  O  O419  1  0.27312948  0.75052295  0.94057336  1
  O  O420  1  0.77185143  0.08174757  0.19221208  1
  O  O421  1  0.77159402  0.08324074  0.44362634  1
  O  O422  1  0.77287615  0.08388454  0.69021136  1
  O  O423  1  0.77181341  0.08312898  0.94304115  1
  O  O424  1  0.77145860  0.41648294  0.19415173  1
  O  O425  1  0.77284006  0.41627098  0.44148392  1
  O  O426  1  0.77184609  0.41804544  0.69172516  1
  O  O427  1  0.77209296  0.41888676  0.94175043  1
  O  O428  1  0.77182089  0.74968808  0.19429405  1
  O  O429  1  0.77227402  0.74771586  0.44300491  1
  O  O430  1  0.77311001  0.74973783  0.69098756  1
  O  O431  1  0.77194268  0.74971764  0.94347811  1
  O  O432  1  0.02191626  0.08288670  0.18153457  1
  O  O433  1  0.02198448  0.08171367  0.43359480  1
  O  O434  1  0.02265382  0.08230535  0.68321983  1
  O  O435  1  0.02241849  0.08146085  0.93266676  1
  O  O436  1  0.02188695  0.41936326  0.18312530  1
  O  O437  1  0.02214848  0.41583480  0.43369547  1
  O  O438  1  0.02313550  0.41718100  0.68451216  1
  O  O439  1  0.02220769  0.41947277  0.93305935  1
  O  O440  1  0.02215357  0.74758011  0.18231999  1
  O  O441  1  0.02203566  0.74800250  0.43312021  1
  O  O442  1  0.02339864  0.74963763  0.68415712  1
  O  O443  1  0.02311780  0.74924640  0.93343832  1
  O  O444  1  0.52206637  0.08105830  0.18316796  1
  O  O445  1  0.52168209  0.08447815  0.43267156  1
  O  O446  1  0.52196483  0.08336193  0.68143043  1
  O  O447  1  0.52216966  0.08393032  0.93342319  1
  O  O448  1  0.52163952  0.41837792  0.18324334  1
  O  O449  1  0.52114725  0.41556734  0.43254103  1
  O  O450  1  0.52148009  0.41694773  0.68133980  1
  O  O451  1  0.52161616  0.41519568  0.93344191  1
  O  O452  1  0.52229939  0.74924611  0.18508170  1
  O  O453  1  0.52197483  0.74787905  0.43272370  1
  O  O454  1  0.52168179  0.74972078  0.68145864  1
  O  O455  1  0.52285829  0.74966942  0.93569973  1
  O  O456  1  0.47744970  0.25046625  0.06574788  1
  O  O457  1  0.47823693  0.24956490  0.31795899  1
  O  O458  1  0.47684332  0.25074568  0.56513026  1
  O  O459  1  0.47862473  0.25003851  0.81853290  1
  O  O460  1  0.47786067  0.58473318  0.06757807  1
  O  O461  1  0.47656310  0.58295452  0.31559499  1
  O  O462  1  0.47769765  0.58468983  0.56672714  1
  O  O463  1  0.47810284  0.58348664  0.81914503  1
  O  O464  1  0.47795122  0.91448266  0.06742178  1
  O  O465  1  0.47709218  0.91663555  0.31556220  1
  O  O466  1  0.47861401  0.91627147  0.56811313  1
  O  O467  1  0.47882805  0.91644403  0.81886457  1
  O  O468  1  0.97895088  0.25080134  0.06795443  1
  O  O469  1  0.97848419  0.25023273  0.31839129  1
  O  O470  1  0.97776031  0.25176615  0.56713680  1
  O  O471  1  0.97839913  0.25200301  0.81687107  1
  O  O472  1  0.97747611  0.58429141  0.06474170  1
  O  O473  1  0.97685704  0.58308907  0.31587337  1
  O  O474  1  0.97775215  0.58515869  0.56742393  1
  O  O475  1  0.97722356  0.58513313  0.81538093  1
  O  O476  1  0.97735618  0.91689336  0.06475056  1
  O  O477  1  0.97867006  0.91520127  0.31792574  1
  O  O478  1  0.97809644  0.91786463  0.56692348  1
  O  O479  1  0.97758265  0.91686050  0.81526806  1
  O  O480  1  0.07422043  0.31448974  0.07552277  1
  O  O481  1  0.07415904  0.31334464  0.32541383  1
  O  O482  1  0.07256803  0.31554018  0.57466431  1
  O  O483  1  0.07342619  0.31553987  0.82433737  1
  O  O484  1  0.07274870  0.64743638  0.07255467  1
  O  O485  1  0.07190060  0.64681106  0.32288620  1
  O  O486  1  0.07263061  0.64867303  0.57440744  1
  O  O487  1  0.07281904  0.64772966  0.82389176  1
  O  O488  1  0.07287690  0.97961161  0.07247890  1
  O  O489  1  0.07399715  0.97895689  0.32446581  1
  O  O490  1  0.07330527  0.98089729  0.57433076  1
  O  O491  1  0.07299698  0.97985379  0.82338349  1
  O  O492  1  0.57265329  0.31372787  0.07383194  1
  O  O493  1  0.57334834  0.31340936  0.32544780  1
  O  O494  1  0.57216944  0.31404522  0.57264215  1
  O  O495  1  0.57400044  0.31346008  0.82532143  1
  O  O496  1  0.57283362  0.64802473  0.07583135  1
  O  O497  1  0.57188570  0.64631596  0.32365994  1
  O  O498  1  0.57277273  0.64786851  0.57339119  1
  O  O499  1  0.57390863  0.64663198  0.82557047  1
  O  O500  1  0.57310375  0.97827764  0.07570752  1
  O  O501  1  0.57227108  0.97987252  0.32350012  1
  O  O502  1  0.57403800  0.97974744  0.57470388  1
  O  O503  1  0.57422093  0.97971163  0.82597942  1
  O  O504  1  0.42676442  0.01850419  0.17487967  1
  O  O505  1  0.42644404  0.02027051  0.42520178  1
  O  O506  1  0.42639699  0.02039432  0.67472679  1
  O  O507  1  0.42640375  0.02072688  0.92551226  1
  O  O508  1  0.42651669  0.35404268  0.17507383  1
  O  O509  1  0.42611004  0.35234594  0.42535923  1
  O  O510  1  0.42604793  0.35326822  0.67495594  1
  O  O511  1  0.42644896  0.35202131  0.92611175  1
  O  O512  1  0.42694534  0.68627121  0.17638843  1
  O  O513  1  0.42687030  0.68502531  0.42497052  1
  O  O514  1  0.42603779  0.68651059  0.67580462  1
  O  O515  1  0.42784214  0.68611171  0.92778794  1
  O  O516  1  0.92652946  0.01934759  0.17438478  1
  O  O517  1  0.92715086  0.01778005  0.42663104  1
  O  O518  1  0.92757168  0.01877390  0.67598012  1
  O  O519  1  0.92703689  0.01864912  0.92503307  1
  O  O520  1  0.92687106  0.35516252  0.17487886  1
  O  O521  1  0.92722801  0.35248810  0.42652160  1
  O  O522  1  0.92770980  0.35401364  0.67698692  1
  O  O523  1  0.92722706  0.35526310  0.92488385  1
  O  O524  1  0.92653456  0.68526654  0.17535998  1
  O  O525  1  0.92713532  0.68425264  0.42661585  1
  O  O526  1  0.92773054  0.68689498  0.67674997  1
  O  O527  1  0.92742939  0.68676058  0.92521832  1
  O  O528  1  0.17616274  0.02146458  0.19851800  1
  O  O529  1  0.17739520  0.01832497  0.44945249  1
  O  O530  1  0.17685272  0.02036431  0.70030248  1
  O  O531  1  0.17702747  0.02080059  0.94937102  1
  O  O532  1  0.17622834  0.35569643  0.19944017  1
  O  O533  1  0.17616412  0.35337136  0.45018325  1
  O  O534  1  0.17790790  0.35223569  0.69967822  1
  O  O535  1  0.17661883  0.35449340  0.95028928  1
  O  O536  1  0.17616658  0.68865029  0.19837778  1
  O  O537  1  0.17679095  0.68570500  0.44905229  1
  O  O538  1  0.17823331  0.68617616  0.69908554  1
  O  O539  1  0.17870719  0.68621520  0.94760935  1
  O  O540  1  0.67669974  0.01860533  0.19912374  1
  O  O541  1  0.67644920  0.01929588  0.45112367  1
  O  O542  1  0.67838027  0.01942956  0.69778772  1
  O  O543  1  0.67627615  0.01971204  0.94980679  1
  O  O544  1  0.67578555  0.35351592  0.20080290  1
  O  O545  1  0.67797022  0.35251258  0.44940581  1
  O  O546  1  0.67645410  0.35450590  0.69975261  1
  O  O547  1  0.67721327  0.35442083  0.94910556  1
  O  O548  1  0.67648203  0.68586381  0.20091847  1
  O  O549  1  0.67695839  0.68481750  0.45044902  1
  O  O550  1  0.67871246  0.68518918  0.69835739  1
  O  O551  1  0.67626457  0.68686657  0.95042571  1
  O  O552  1  0.32304348  0.31263427  0.04961342  1
  O  O553  1  0.32352022  0.31410601  0.29943699  1
  O  O554  1  0.32078886  0.31375467  0.55227477  1
  O  O555  1  0.32309478  0.31208780  0.79998037  1
  O  O556  1  0.32290731  0.64594662  0.04945985  1
  O  O557  1  0.32194240  0.64926563  0.30035020  1
  O  O558  1  0.32280120  0.64830764  0.55145944  1
  O  O559  1  0.32195885  0.64698400  0.80229487  1
  O  O560  1  0.32328546  0.97860123  0.04901057  1
  O  O561  1  0.32248166  0.98192301  0.30042923  1
  O  O562  1  0.32362141  0.97858644  0.55066260  1
  O  O563  1  0.32356786  0.97871204  0.79961392  1
  O  O564  1  0.82393090  0.31429062  0.04980066  1
  O  O565  1  0.82368791  0.31434929  0.30147462  1
  O  O566  1  0.82330891  0.31274816  0.55045391  1
  O  O567  1  0.82427899  0.31345023  0.79853235  1
  O  O568  1  0.82375833  0.64665570  0.04975016  1
  O  O569  1  0.82215694  0.64675582  0.30280853  1
  O  O570  1  0.82176883  0.64611136  0.55223661  1
  O  O571  1  0.82298712  0.64587392  0.79941187  1
  O  O572  1  0.82332770  0.98132158  0.05104103  1
  O  O573  1  0.82403933  0.97984063  0.30090137  1
  O  O574  1  0.82189646  0.97971873  0.55219378  1
  O  O575  1  0.82381080  0.97976583  0.79857719  1
  O  O576  1  0.42718176  0.14572474  0.17491170  1
  O  O577  1  0.42649112  0.14737703  0.42529800  1
  O  O578  1  0.42660493  0.14730839  0.67484649  1
  O  O579  1  0.42739166  0.14785743  0.92668779  1
  O  O580  1  0.42646263  0.48119559  0.17506723  1
  O  O581  1  0.42563414  0.47935930  0.42499166  1
  O  O582  1  0.42605497  0.48018482  0.67424176  1
  O  O583  1  0.42637512  0.47919982  0.92572858  1
  O  O584  1  0.42770850  0.81342753  0.17681414  1
  O  O585  1  0.42694445  0.81213594  0.42412337  1
  O  O586  1  0.42640552  0.81328889  0.67495796  1
  O  O587  1  0.42799198  0.81361309  0.92790430  1
  O  O588  1  0.92653562  0.14628240  0.17449690  1
  O  O589  1  0.92636854  0.14504465  0.42596945  1
  O  O590  1  0.92740960  0.14589447  0.67472466  1
  O  O591  1  0.92754630  0.14593598  0.92391575  1
  O  O592  1  0.92652332  0.48226355  0.17652134  1
  O  O593  1  0.92686034  0.47955426  0.42642182  1
  O  O594  1  0.92880634  0.48147608  0.67654450  1
  O  O595  1  0.92702002  0.48229575  0.92479178  1
  O  O596  1  0.92729576  0.81213343  0.17477788  1
  O  O597  1  0.92657374  0.81124681  0.42524646  1
  O  O598  1  0.92916048  0.81411674  0.67677872  1
  O  O599  1  0.92882768  0.81389804  0.92584452  1
  O  O600  1  0.07440839  0.18743995  0.07475802  1
  O  O601  1  0.07362202  0.18637248  0.32604658  1
  O  O602  1  0.07309335  0.18831953  0.57603463  1
  O  O603  1  0.07361758  0.18820554  0.82446454  1
  O  O604  1  0.07225624  0.52042677  0.07279389  1
  O  O605  1  0.07180751  0.51953413  0.32350193  1
  O  O606  1  0.07316511  0.52179008  0.57554634  1
  O  O607  1  0.07149566  0.52064077  0.82303590  1
  O  O608  1  0.07165944  0.85215558  0.07157416  1
  O  O609  1  0.07407145  0.85207607  0.32520408  1
  O  O610  1  0.07316711  0.85388517  0.57523467  1
  O  O611  1  0.07203937  0.85265727  0.82295415  1
  O  O612  1  0.57198174  0.18597212  0.07379467  1
  O  O613  1  0.57398942  0.18676702  0.32552199  1
  O  O614  1  0.57143789  0.18641477  0.57235645  1
  O  O615  1  0.57420728  0.18684839  0.82538707  1
  O  O616  1  0.57324096  0.52110355  0.07599762  1
  O  O617  1  0.57112856  0.51888690  0.32414802  1
  O  O618  1  0.57296651  0.52071282  0.57404317  1
  O  O619  1  0.57320391  0.51976026  0.82577552  1
  O  O620  1  0.57310147  0.85137303  0.07581598  1
  O  O621  1  0.57174092  0.85225876  0.32367084  1
  O  O622  1  0.57398545  0.85286401  0.57462511  1
  O  O623  1  0.57432561  0.85276535  0.82544317  1
  O  O624  1  0.32282942  0.18543916  0.05112402  1
  O  O625  1  0.32418304  0.18718980  0.29993664  1
  O  O626  1  0.32198590  0.18614800  0.55127361  1
  O  O627  1  0.32311021  0.18518128  0.80041608  1
  O  O628  1  0.32255532  0.51904825  0.05076645  1
  O  O629  1  0.32219387  0.52211672  0.30076429  1
  O  O630  1  0.32294498  0.52135404  0.54990162  1
  O  O631  1  0.32239324  0.51958021  0.80077142  1
  O  O632  1  0.32256393  0.85155377  0.05085096  1
  O  O633  1  0.32279040  0.85486435  0.30007459  1
  O  O634  1  0.32324095  0.85151911  0.54990855  1
  O  O635  1  0.32378942  0.85165205  0.80068516  1
  O  O636  1  0.82456894  0.18727765  0.04963499  1
  O  O637  1  0.82331255  0.18709915  0.30068486  1
  O  O638  1  0.82333820  0.18568854  0.55023762  1
  O  O639  1  0.82436484  0.18654959  0.79938316  1
  O  O640  1  0.82380638  0.51985420  0.05062918  1
  O  O641  1  0.82128011  0.51938666  0.30320073  1
  O  O642  1  0.82269531  0.51895485  0.55129031  1
  O  O643  1  0.82327237  0.51887908  0.80051647  1
  O  O644  1  0.82334300  0.85402688  0.05065690  1
  O  O645  1  0.82427890  0.85300520  0.29996005  1
  O  O646  1  0.82339813  0.85212915  0.55201888  1
  O  O647  1  0.82413054  0.85298330  0.79935934  1
  O  O648  1  0.17694649  0.14852473  0.19942425  1
  O  O649  1  0.17665667  0.14548348  0.44990903  1
  O  O650  1  0.17673916  0.14746399  0.69885322  1
  O  O651  1  0.17675464  0.14793523  0.94844583  1
  O  O652  1  0.17691552  0.48295588  0.19890583  1
  O  O653  1  0.17539930  0.48028622  0.45171200  1
  O  O654  1  0.17662088  0.47936558  0.70028595  1
  O  O655  1  0.17673275  0.48153996  0.94813140  1
  O  O656  1  0.17680317  0.81569810  0.19838950  1
  O  O657  1  0.17642477  0.81257774  0.45023992  1
  O  O658  1  0.17818911  0.81344063  0.69831510  1
  O  O659  1  0.17751624  0.81348223  0.94708437  1
  O  O660  1  0.67664236  0.14599017  0.19940739  1
  O  O661  1  0.67588441  0.14605664  0.45057665  1
  O  O662  1  0.67747960  0.14706184  0.69785431  1
  O  O663  1  0.67652111  0.14658020  0.95033100  1
  O  O664  1  0.67624952  0.48020059  0.20168540  1
  O  O665  1  0.67776658  0.47991765  0.44863481  1
  O  O666  1  0.67658565  0.48146340  0.69836559  1
  O  O667  1  0.67668519  0.48170891  0.94895931  1
  O  O668  1  0.67635792  0.81272473  0.20189120  1
  O  O669  1  0.67705787  0.81176554  0.45065423  1
  O  O670  1  0.67748046  0.81261715  0.69838303  1
  O  O671  1  0.67683978  0.81380105  0.95018304  1
