# generated using pymatgen
data_Na2MnFe(PO4)2
_symmetry_space_group_name_H-M   'P 1'
_cell_length_a   22.34158379
_cell_length_b   20.09449740
_cell_length_c   19.45042866
_cell_angle_alpha   90.01651825
_cell_angle_beta   89.99875105
_cell_angle_gamma   89.95601539
_symmetry_Int_Tables_number   1
_chemical_formula_structural   Na2MnFe(PO4)2
_chemical_formula_sum   'Na96 Mn48 Fe48 P96 O384'
_cell_volume   8732.12886307
_cell_formula_units_Z   48
loop_
 _symmetry_equiv_pos_site_id
 _symmetry_equiv_pos_as_xyz
  1  'x, y, z'
loop_
 _atom_site_type_symbol
 _atom_site_label
 _atom_site_symmetry_multiplicity
 _atom_site_fract_x
 _atom_site_fract_y
 _atom_site_fract_z
 _atom_site_occupancy
  Na  Na0  1  0.14054584  0.24876238  0.24406329  1
  Na  Na1  1  0.14046213  0.24984525  0.49428553  1
  Na  Na2  1  0.14005664  0.24824356  0.74372854  1
  Na  Na3  1  0.13991323  0.24831043  0.99347709  1
  Na  Na4  1  0.14118860  0.58430084  0.24525314  1
  Na  Na5  1  0.14059567  0.58419337  0.49383071  1
  Na  Na6  1  0.14004654  0.58245776  0.74363930  1
  Na  Na7  1  0.14087678  0.58333402  0.99419254  1
  Na  Na8  1  0.13983051  0.91677757  0.24422690  1
  Na  Na9  1  0.14033850  0.91705722  0.49397154  1
  Na  Na10  1  0.13996599  0.91779204  0.74519573  1
  Na  Na11  1  0.13978908  0.91640591  0.99457559  1
  Na  Na12  1  0.64080231  0.25001210  0.24195538  1
  Na  Na13  1  0.64058698  0.24985569  0.49397157  1
  Na  Na14  1  0.64013640  0.25061339  0.74320204  1
  Na  Na15  1  0.64013411  0.25011404  0.99151958  1
  Na  Na16  1  0.64056534  0.58314959  0.24334106  1
  Na  Na17  1  0.64023767  0.58189554  0.49361824  1
  Na  Na18  1  0.64025135  0.58458176  0.74369756  1
  Na  Na19  1  0.64054746  0.58380249  0.99291128  1
  Na  Na20  1  0.64007579  0.91652947  0.24160658  1
  Na  Na21  1  0.63990304  0.91615404  0.49405366  1
  Na  Na22  1  0.64062020  0.91785638  0.74290624  1
  Na  Na23  1  0.64036544  0.91680808  0.99382300  1
  Na  Na24  1  0.36030988  0.08195996  0.00616757  1
  Na  Na25  1  0.35983100  0.08155705  0.25565612  1
  Na  Na26  1  0.35994669  0.08349543  0.50572185  1
  Na  Na27  1  0.36025530  0.08352891  0.75557106  1
  Na  Na28  1  0.36016946  0.41570951  0.00583917  1
  Na  Na29  1  0.36029509  0.41691888  0.25681420  1
  Na  Na30  1  0.36040658  0.41755244  0.50592602  1
  Na  Na31  1  0.36008272  0.41553538  0.75520122  1
  Na  Na32  1  0.36012975  0.75048452  0.00664757  1
  Na  Na33  1  0.35944931  0.75099252  0.25783629  1
  Na  Na34  1  0.36027813  0.75104263  0.50630212  1
  Na  Na35  1  0.36028700  0.75047692  0.75650658  1
  Na  Na36  1  0.85921053  0.08345964  0.00664256  1
  Na  Na37  1  0.85948260  0.08340532  0.25569240  1
  Na  Na38  1  0.85952733  0.08262311  0.50828928  1
  Na  Na39  1  0.85977088  0.08431075  0.75735437  1
  Na  Na40  1  0.85911153  0.41603697  0.00572508  1
  Na  Na41  1  0.85937333  0.41572224  0.25493597  1
  Na  Na42  1  0.85927890  0.41523701  0.50675512  1
  Na  Na43  1  0.85910523  0.41721889  0.75809076  1
  Na  Na44  1  0.85906090  0.75095107  0.00646984  1
  Na  Na45  1  0.85931676  0.75012283  0.25455527  1
  Na  Na46  1  0.85911766  0.74998844  0.50687361  1
  Na  Na47  1  0.85867728  0.75120556  0.75675208  1
  Na  Na48  1  0.10922772  0.08189034  0.11845140  1
  Na  Na49  1  0.10954284  0.08288705  0.37011749  1
  Na  Na50  1  0.10969146  0.08268160  0.61965645  1
  Na  Na51  1  0.10967796  0.08236270  0.86991670  1
  Na  Na52  1  0.10962009  0.41542643  0.11904142  1
  Na  Na53  1  0.10969067  0.41649960  0.36938574  1
  Na  Na54  1  0.10935399  0.41598106  0.61911050  1
  Na  Na55  1  0.10910147  0.41478547  0.86892138  1
  Na  Na56  1  0.11000570  0.75159282  0.11922750  1
  Na  Na57  1  0.10978070  0.75143869  0.36859686  1
  Na  Na58  1  0.10911692  0.75130219  0.61896960  1
  Na  Na59  1  0.10904384  0.75083324  0.86984907  1
  Na  Na60  1  0.60986285  0.08374102  0.11712216  1
  Na  Na61  1  0.60964093  0.08346507  0.36781584  1
  Na  Na62  1  0.61046971  0.08422813  0.61836708  1
  Na  Na63  1  0.61033795  0.08423993  0.86719642  1
  Na  Na64  1  0.60967215  0.41556032  0.11713154  1
  Na  Na65  1  0.61021813  0.41629285  0.36870380  1
  Na  Na66  1  0.60996424  0.41757036  0.61813693  1
  Na  Na67  1  0.60982069  0.41639284  0.86738548  1
  Na  Na68  1  0.60991625  0.75024038  0.11838832  1
  Na  Na69  1  0.60967944  0.75056211  0.36904674  1
  Na  Na70  1  0.60922949  0.74980093  0.61895421  1
  Na  Na71  1  0.60959984  0.74953659  0.86875486  1
  Na  Na72  1  0.39105244  0.24891364  0.13033638  1
  Na  Na73  1  0.39125790  0.25124558  0.38083698  1
  Na  Na74  1  0.39092626  0.25096889  0.63071538  1
  Na  Na75  1  0.39094089  0.24980651  0.87992999  1
  Na  Na76  1  0.39111814  0.58376689  0.13206472  1
  Na  Na77  1  0.39099036  0.58361174  0.38325682  1
  Na  Na78  1  0.39088406  0.58365071  0.63022293  1
  Na  Na79  1  0.39072788  0.58308686  0.88087963  1
  Na  Na80  1  0.39000222  0.91652915  0.13267311  1
  Na  Na81  1  0.39033219  0.91638495  0.38091357  1
  Na  Na82  1  0.39056927  0.91666408  0.63131331  1
  Na  Na83  1  0.39089760  0.91652468  0.88146204  1
  Na  Na84  1  0.88936409  0.24887288  0.13062152  1
  Na  Na85  1  0.88973520  0.24919383  0.38149248  1
  Na  Na86  1  0.89030412  0.24878335  0.63254033  1
  Na  Na87  1  0.88990014  0.24857010  0.88286693  1
  Na  Na88  1  0.89018564  0.58329991  0.13019715  1
  Na  Na89  1  0.89011128  0.58338122  0.38087764  1
  Na  Na90  1  0.88994871  0.58285513  0.63226759  1
  Na  Na91  1  0.88992214  0.58293791  0.88200147  1
  Na  Na92  1  0.88929882  0.91700831  0.13087956  1
  Na  Na93  1  0.88949110  0.91819315  0.38125092  1
  Na  Na94  1  0.88948760  0.91844873  0.63239094  1
  Na  Na95  1  0.88977692  0.91849863  0.88180398  1
  Mn  Mn96  1  0.00051881  0.49878281  0.00039485  1
  Mn  Mn97  1  0.24994364  0.33272457  0.12517187  1
  Mn  Mn98  1  0.25009480  0.66686406  0.87556034  1
  Mn  Mn99  1  0.74935829  -0.00002056  0.37485663  1
  Mn  Mn100  1  0.50067426  0.16701643  0.24908606  1
  Mn  Mn101  1  0.00012770  0.16527068  0.25063907  1
  Mn  Mn102  1  0.74971200  0.66613287  0.37487360  1
  Mn  Mn103  1  0.25099699  0.66761299  0.12576663  1
  Mn  Mn104  1  0.50022107  0.00022178  0.74965037  1
  Mn  Mn105  1  0.50012594  0.83273240  0.00043980  1
  Mn  Mn106  1  -0.00012867  0.33188109  0.75024833  1
  Mn  Mn107  1  0.25033047  0.16473178  0.12458152  1
  Mn  Mn108  1  -0.00011441  0.33202102  0.25026704  1
  Mn  Mn109  1  -0.00014155  0.49958535  0.24981878  1
  Mn  Mn110  1  -0.00099811  0.83539071  0.49948597  1
  Mn  Mn111  1  0.24999209  0.66730637  0.62478553  1
  Mn  Mn112  1  0.24986978  0.33227298  0.87504956  1
  Mn  Mn113  1  0.75069530  0.49819074  0.37352617  1
  Mn  Mn114  1  0.25043602  0.50044735  0.12571920  1
  Mn  Mn115  1  0.25072311  0.16473509  0.87412777  1
  Mn  Mn116  1  0.50087197  0.00035084  -0.00064038  1
  Mn  Mn117  1  -0.00095837  0.66649478  0.75007558  1
  Mn  Mn118  1  0.50007992  0.50021819  0.74972419  1
  Mn  Mn119  1  0.74988926  0.66653853  0.62523230  1
  Mn  Mn120  1  0.24987581  0.83435102  0.87595073  1
  Mn  Mn121  1  0.00041951  0.66708016  -0.00016387  1
  Mn  Mn122  1  0.25019827  0.16610048  0.62460245  1
  Mn  Mn123  1  -0.00013295  0.49972526  0.50028052  1
  Mn  Mn124  1  0.25081715  0.16566980  0.37471069  1
  Mn  Mn125  1  0.24994723  0.49922696  0.87451638  1
  Mn  Mn126  1  -0.00062247  0.33208808  0.50064944  1
  Mn  Mn127  1  0.50009424  0.16804268  0.49846585  1
  Mn  Mn128  1  0.24971747  0.83454337  0.62556762  1
  Mn  Mn129  1  -0.00100587  0.83484136  0.24970350  1
  Mn  Mn130  1  0.50027489  0.49972096  -0.00040823  1
  Mn  Mn131  1  0.74997999  0.83342134  0.37442576  1
  Mn  Mn132  1  0.50082448  0.66747507  0.25124884  1
  Mn  Mn133  1  0.75006384  0.33314484  0.62569957  1
  Mn  Mn134  1  0.25080708  0.49961089  0.62439112  1
  Mn  Mn135  1  -0.00004296  0.66735550  0.24973198  1
  Mn  Mn136  1  0.74951747  0.16673432  0.37501386  1
  Mn  Mn137  1  0.25072976  0.33383395  0.37448009  1
  Mn  Mn138  1  0.74979308  0.83435972  0.87528365  1
  Mn  Mn139  1  0.50079766  0.49953785  0.25009101  1
  Mn  Mn140  1  -0.00009367  0.66731743  0.50036533  1
  Mn  Mn141  1  -0.00063607  0.83486686  0.74969647  1
  Mn  Mn142  1  0.49993545  -0.00032406  0.49948150  1
  Mn  Mn143  1  0.74982387  0.49988481  0.12414530  1
  Fe  Fe144  1  0.74983612  0.83331546  0.12403328  1
  Fe  Fe145  1  0.74939308  0.83404951  0.62582223  1
  Fe  Fe146  1  -0.00059425  -0.00001558  -0.00001465  1
  Fe  Fe147  1  0.49992137  0.83338535  0.25026276  1
  Fe  Fe148  1  -0.00037639  0.00120700  0.50114242  1
  Fe  Fe149  1  0.50037070  0.49994474  0.50037356  1
  Fe  Fe150  1  0.50017919  0.33354911  0.74915505  1
  Fe  Fe151  1  -0.00073544  0.00030619  0.24995595  1
  Fe  Fe152  1  0.25014646  0.83409171  0.37555553  1
  Fe  Fe153  1  0.50043540  0.33349270  0.24925600  1
  Fe  Fe154  1  0.74962038  0.16687432  0.87522847  1
  Fe  Fe155  1  0.74992253  0.00085085  0.87476548  1
  Fe  Fe156  1  -0.00024408  0.49914111  0.75067625  1
  Fe  Fe157  1  0.24960449  -0.00126535  0.12589922  1
  Fe  Fe158  1  0.25073421  -0.00082195  0.87565502  1
  Fe  Fe159  1  0.25010406  0.33320863  0.62441733  1
  Fe  Fe160  1  0.50009913  0.16696504  -0.00120132  1
  Fe  Fe161  1  -0.00000998  0.16582074  0.50112112  1
  Fe  Fe162  1  0.50009578  -0.00005194  0.24948226  1
  Fe  Fe163  1  0.50008031  0.66670384  0.74954092  1
  Fe  Fe164  1  0.74938828  0.33325844  0.12384567  1
  Fe  Fe165  1  0.00016230  0.16573946  0.75141372  1
  Fe  Fe166  1  -0.00046652  0.33189676  -0.00016983  1
  Fe  Fe167  1  0.24963869  -0.00047860  0.37520549  1
  Fe  Fe168  1  0.74999697  0.33243364  0.37474997  1
  Fe  Fe169  1  0.50024566  0.83279645  0.75026994  1
  Fe  Fe170  1  0.50054430  0.16751185  0.74895466  1
  Fe  Fe171  1  0.75032237  0.16686409  0.62596069  1
  Fe  Fe172  1  0.74977145  0.50075164  0.87541916  1
  Fe  Fe173  1  -0.00036319  0.16574711  0.00050982  1
  Fe  Fe174  1  0.74951462  0.16685476  0.12406393  1
  Fe  Fe175  1  0.74959357  0.00069878  0.12405154  1
  Fe  Fe176  1  0.25073817  -0.00021304  0.62484088  1
  Fe  Fe177  1  0.75028376  0.66657298  0.12389874  1
  Fe  Fe178  1  -0.00112006  0.83434113  -0.00022015  1
  Fe  Fe179  1  0.74964554  0.33361123  0.87467251  1
  Fe  Fe180  1  0.50005898  0.33285140  -0.00132432  1
  Fe  Fe181  1  0.24995197  0.50047453  0.37549987  1
  Fe  Fe182  1  0.74972237  0.66742416  0.87479320  1
  Fe  Fe183  1  0.49963684  0.66674918  0.00006966  1
  Fe  Fe184  1  0.24975713  0.83376657  0.12611488  1
  Fe  Fe185  1  0.50024780  0.66722045  0.50044135  1
  Fe  Fe186  1  0.00005020  0.00084443  0.75108117  1
  Fe  Fe187  1  0.50101494  0.33398432  0.49981401  1
  Fe  Fe188  1  0.74963834  0.00070486  0.62527603  1
  Fe  Fe189  1  0.50062336  0.83350225  0.50043957  1
  Fe  Fe190  1  0.75024708  0.50020839  0.62591252  1
  Fe  Fe191  1  0.25023974  0.66766433  0.37518125  1
  P  P192  1  0.04122751  0.24886798  0.10171145  1
  P  P193  1  0.04283413  0.24856628  0.35416161  1
  P  P194  1  0.04217318  0.24765801  0.60357131  1
  P  P195  1  0.04190527  0.24775520  0.85383087  1
  P  P196  1  0.04320954  0.58337010  0.10309801  1
  P  P197  1  0.04277641  0.58361212  0.35317821  1
  P  P198  1  0.04253200  0.58300189  0.60390030  1
  P  P199  1  0.04193639  0.58184660  0.85254707  1
  P  P200  1  0.04073485  0.91718610  0.10173825  1
  P  P201  1  0.04127398  0.91926383  0.35295356  1
  P  P202  1  0.04184444  0.91903847  0.60313710  1
  P  P203  1  0.04143186  0.91843009  0.85362836  1
  P  P204  1  0.54176889  0.24988192  0.10043501  1
  P  P205  1  0.54281834  0.25198228  0.35166341  1
  P  P206  1  0.54248677  0.25165497  0.60250558  1
  P  P207  1  0.54143453  0.25033254  0.85125035  1
  P  P208  1  0.54244161  0.58447625  0.10220297  1
  P  P209  1  0.54312291  0.58312086  0.35427021  1
  P  P210  1  0.54138042  0.58395103  0.60185126  1
  P  P211  1  0.54192844  0.58471930  0.85255402  1
  P  P212  1  0.54242378  0.91672667  0.10375603  1
  P  P213  1  0.54174645  0.91642389  0.35153815  1
  P  P214  1  0.54204549  0.91545750  0.60300064  1
  P  P215  1  0.54257920  0.91542625  0.85212238  1
  P  P216  1  0.45839596  0.08246292  0.14677971  1
  P  P217  1  0.45766969  0.08323774  0.39562149  1
  P  P218  1  0.45840147  0.08494828  0.64694314  1
  P  P219  1  0.45855899  0.08496289  0.89635802  1
  P  P220  1  0.45827674  0.41502373  0.14680977  1
  P  P221  1  0.45933956  0.41662049  0.39813736  1
  P  P222  1  0.45857616  0.41608594  0.64649567  1
  P  P223  1  0.45821245  0.41513947  0.89658902  1
  P  P224  1  0.45764633  0.75091813  0.14818172  1
  P  P225  1  0.45924012  0.75095656  0.39879537  1
  P  P226  1  0.45868898  0.75015142  0.64784841  1
  P  P227  1  0.45801862  0.74873775  0.89698383  1
  P  P228  1  0.95761500  0.08179902  0.14683456  1
  P  P229  1  0.95754275  0.08339269  0.39908877  1
  P  P230  1  0.95853016  0.08350047  0.64893634  1
  P  P231  1  0.95828384  0.08319925  0.89837167  1
  P  P232  1  0.95725457  0.41517248  0.14624878  1
  P  P233  1  0.95662738  0.41591596  0.39720307  1
  P  P234  1  0.95717514  0.41684685  0.64841189  1
  P  P235  1  0.95759845  0.41460536  0.89750328  1
  P  P236  1  0.95712362  0.75109787  0.14586253  1
  P  P237  1  0.95657128  0.75106072  0.39682835  1
  P  P238  1  0.95634876  0.75089648  0.64698962  1
  P  P239  1  0.95718913  0.75174952  0.89748218  1
  P  P240  1  0.20748472  0.08094033  0.22806333  1
  P  P241  1  0.20826698  0.08180356  0.47790229  1
  P  P242  1  0.20828902  0.08117996  0.72765642  1
  P  P243  1  0.20824759  0.08070333  0.97798273  1
  P  P244  1  0.20744549  0.41707600  0.22886474  1
  P  P245  1  0.20807848  0.41762001  0.47778479  1
  P  P246  1  0.20765877  0.41499455  0.72701241  1
  P  P247  1  0.20695628  0.41625588  0.97826518  1
  P  P248  1  0.20812404  0.75167621  0.22906613  1
  P  P249  1  0.20844811  0.75094031  0.47670887  1
  P  P250  1  0.20692308  0.75067836  0.72850231  1
  P  P251  1  0.20721331  0.75080228  0.97928826  1
  P  P252  1  0.70829003  0.08387513  0.22563180  1
  P  P253  1  0.70696930  0.08316317  0.47891700  1
  P  P254  1  0.70882777  0.08404823  0.72758405  1
  P  P255  1  0.70842721  0.08354325  0.97684743  1
  P  P256  1  0.70762410  0.41497502  0.22653474  1
  P  P257  1  0.70830315  0.41473425  0.47747404  1
  P  P258  1  0.70800185  0.41839276  0.72839279  1
  P  P259  1  0.70832470  0.41679823  0.97626880  1
  P  P260  1  0.70863878  0.74959567  0.22562054  1
  P  P261  1  0.70755538  0.75025435  0.47856336  1
  P  P262  1  0.70772082  0.75141559  0.72796464  1
  P  P263  1  0.70790194  0.74935462  0.97779709  1
  P  P264  1  0.29292902  0.24870014  0.02164901  1
  P  P265  1  0.29347839  0.24918038  0.27159952  1
  P  P266  1  0.29280028  0.25113225  0.52221506  1
  P  P267  1  0.29269721  0.24947580  0.77082641  1
  P  P268  1  0.29369153  0.58356131  0.02237109  1
  P  P269  1  0.29240342  0.58390688  0.27440799  1
  P  P270  1  0.29282770  0.58408582  0.52069431  1
  P  P271  1  0.29312225  0.58320921  0.77177756  1
  P  P272  1  0.29183099  0.91652847  0.02400207  1
  P  P273  1  0.29115573  0.91664448  0.27326319  1
  P  P274  1  0.29250488  0.91794179  0.52190563  1
  P  P275  1  0.29297980  0.91817659  0.77263103  1
  P  P276  1  0.79043764  0.24976868  0.02219173  1
  P  P277  1  0.79184682  0.25074577  0.27145210  1
  P  P278  1  0.79233322  0.24842179  0.52311886  1
  P  P279  1  0.79101543  0.24972267  0.77370248  1
  P  P280  1  0.79190789  0.58448665  0.02110636  1
  P  P281  1  0.79283268  0.58329005  0.27068178  1
  P  P282  1  0.79213567  0.58142581  0.52279671  1
  P  P283  1  0.79112661  0.58370154  0.77354353  1
  P  P284  1  0.79055259  0.91760804  0.02274572  1
  P  P285  1  0.79194606  0.91696713  0.27041369  1
  P  P286  1  0.79084353  0.91665425  0.52402431  1
  P  P287  1  0.79163600  0.91878908  0.77212667  1
  O  O288  1  0.03672202  0.24858121  0.18175628  1
  O  O289  1  0.03771809  0.24820743  0.43412202  1
  O  O290  1  0.03701129  0.24761469  0.68355171  1
  O  O291  1  0.03646581  0.24836354  0.93369026  1
  O  O292  1  0.03794413  0.58341148  0.18303522  1
  O  O293  1  0.03770543  0.58371328  0.43317213  1
  O  O294  1  0.03704505  0.58240197  0.68385489  1
  O  O295  1  0.03692783  0.58213074  0.93252783  1
  O  O296  1  0.03561398  0.91752770  0.18167097  1
  O  O297  1  0.03611767  0.91947315  0.43288128  1
  O  O298  1  0.03688622  0.91905886  0.68310684  1
  O  O299  1  0.03565997  0.91805054  0.93345891  1
  O  O300  1  0.53712727  0.25009991  0.18037781  1
  O  O301  1  0.53764549  0.25209152  0.43158955  1
  O  O302  1  0.53690611  0.25126721  0.68236975  1
  O  O303  1  0.53621793  0.25018198  0.93113445  1
  O  O304  1  0.53761477  0.58411001  0.18221291  1
  O  O305  1  0.53783128  0.58299777  0.43413606  1
  O  O306  1  0.53642553  0.58399301  0.68183314  1
  O  O307  1  0.53653578  0.58463392  0.93247129  1
  O  O308  1  0.53708541  0.91693762  0.18366355  1
  O  O309  1  0.53663271  0.91625334  0.43155077  1
  O  O310  1  0.53655621  0.91547141  0.68289829  1
  O  O311  1  0.53749320  0.91588699  0.93209621  1
  O  O312  1  0.46342391  0.08290499  0.06683025  1
  O  O313  1  0.46318856  0.08268444  0.31570720  1
  O  O314  1  0.46337677  0.08466616  0.56696761  1
  O  O315  1  0.46394875  0.08505020  0.81642451  1
  O  O316  1  0.46353377  0.41508801  0.06685428  1
  O  O317  1  0.46394531  0.41663038  0.31815400  1
  O  O318  1  0.46413860  0.41640005  0.56665020  1
  O  O319  1  0.46343458  0.41523143  0.81665909  1
  O  O320  1  0.46237355  0.75013108  0.06823399  1
  O  O321  1  0.46427964  0.75119656  0.31889369  1
  O  O322  1  0.46419892  0.75049606  0.56798709  1
  O  O323  1  0.46357337  0.74904454  0.81713010  1
  O  O324  1  0.96282756  0.08194017  0.06698954  1
  O  O325  1  0.96225117  0.08294500  0.31908839  1
  O  O326  1  0.96368594  0.08358539  0.56905675  1
  O  O327  1  0.96314872  0.08362050  0.81848945  1
  O  O328  1  0.96261855  0.41449495  0.06630250  1
  O  O329  1  0.96172177  0.41577415  0.31721736  1
  O  O330  1  0.96219487  0.41649574  0.56845162  1
  O  O331  1  0.96286397  0.41511383  0.81756204  1
  O  O332  1  0.96236810  0.75159321  0.06591309  1
  O  O333  1  0.96172376  0.75116638  0.31680910  1
  O  O334  1  0.96140966  0.75091641  0.56702001  1
  O  O335  1  0.96228158  0.75139969  0.81749978  1
  O  O336  1  0.21323914  0.08060542  0.05794651  1
  O  O337  1  0.21264015  0.08115678  0.30801284  1
  O  O338  1  0.21375860  0.08195031  0.55779823  1
  O  O339  1  0.21370767  0.08099917  0.80759090  1
  O  O340  1  0.21195082  0.41635159  0.05824483  1
  O  O341  1  0.21281153  0.41763770  0.30882809  1
  O  O342  1  0.21359770  0.41667966  0.55772666  1
  O  O343  1  0.21249091  0.41514687  0.80702491  1
  O  O344  1  0.21247157  0.75123678  0.05925512  1
  O  O345  1  0.21367428  0.75149310  0.30896775  1
  O  O346  1  0.21309565  0.75097725  0.55673614  1
  O  O347  1  0.21192444  0.75073837  0.80849104  1
  O  O348  1  0.71349467  0.08394424  0.05672823  1
  O  O349  1  0.71276528  0.08368186  0.30565264  1
  O  O350  1  0.71204309  0.08336524  0.55881539  1
  O  O351  1  0.71381087  0.08361274  0.80748544  1
  O  O352  1  0.71312772  0.41612176  0.05621717  1
  O  O353  1  0.71288138  0.41461674  0.30645293  1
  O  O354  1  0.71332725  0.41536024  0.55737488  1
  O  O355  1  0.71323028  0.41836902  0.80825201  1
  O  O356  1  0.71346792  0.74929792  0.05763109  1
  O  O357  1  0.71339032  0.74990551  0.30564861  1
  O  O358  1  0.71277559  0.75087489  0.55851650  1
  O  O359  1  0.71319906  0.75085855  0.80787486  1
  O  O360  1  0.28814727  0.24899403  0.19166451  1
  O  O361  1  0.28776010  0.25078525  0.44225107  1
  O  O362  1  0.28727156  0.25015374  0.69089643  1
  O  O363  1  0.28786403  0.24848762  0.94165327  1
  O  O364  1  0.28761342  0.58413202  0.19436966  1
  O  O365  1  0.28737197  0.58415149  0.44080614  1
  O  O366  1  0.28815230  0.58326348  0.69177105  1
  O  O367  1  0.28856092  0.58358531  0.94241512  1
  O  O368  1  0.28586310  0.91631407  0.19337387  1
  O  O369  1  0.28705106  0.91740556  0.44205236  1
  O  O370  1  0.28800654  0.91814275  0.69267539  1
  O  O371  1  0.28711997  0.91717289  0.94399228  1
  O  O372  1  0.78638248  0.25038481  0.19160499  1
  O  O373  1  0.78719370  0.24875768  0.44320703  1
  O  O374  1  0.78660687  0.24925483  0.69372624  1
  O  O375  1  0.78545229  0.24995750  0.94233131  1
  O  O376  1  0.78749916  0.58379298  0.19072669  1
  O  O377  1  0.78715897  0.58143018  0.44282203  1
  O  O378  1  0.78616352  0.58297153  0.69355353  1
  O  O379  1  0.78622076  0.58433237  0.94124241  1
  O  O380  1  0.78671845  0.91706818  0.19053833  1
  O  O381  1  0.78623707  0.91687522  0.44397458  1
  O  O382  1  0.78607158  0.91823806  0.69229854  1
  O  O383  1  0.78590355  0.91801496  0.94278291  1
  O  O384  1  0.22846831  0.24865396  0.05665876  1
  O  O385  1  0.22908262  0.24946154  0.30669546  1
  O  O386  1  0.22846021  0.25094148  0.55772902  1
  O  O387  1  0.22844979  0.24869169  0.80640291  1
  O  O388  1  0.22922181  0.58400567  0.05734037  1
  O  O389  1  0.22810926  0.58378825  0.31001369  1
  O  O390  1  0.22866472  0.58358910  0.55657933  1
  O  O391  1  0.22860467  0.58317011  0.80669134  1
  O  O392  1  0.22748830  0.91610256  0.05972833  1
  O  O393  1  0.22713718  0.91665156  0.30977445  1
  O  O394  1  0.22827384  0.91877417  0.55797744  1
  O  O395  1  0.22854323  0.91856240  0.80807103  1
  O  O396  1  0.72641009  0.24926123  0.05852336  1
  O  O397  1  0.72768992  0.25108544  0.30773062  1
  O  O398  1  0.72806795  0.24822970  0.55891788  1
  O  O399  1  0.72673868  0.24976541  0.80916942  1
  O  O400  1  0.72784594  0.58468902  0.05744491  1
  O  O401  1  0.72854983  0.58262236  0.30622683  1
  O  O402  1  0.72779855  0.58165059  0.55835896  1
  O  O403  1  0.72694749  0.58406803  0.80947488  1
  O  O404  1  0.72651788  0.91750205  0.05867139  1
  O  O405  1  0.72766520  0.91681527  0.30613643  1
  O  O406  1  0.72662363  0.91647935  0.55964680  1
  O  O407  1  0.72755357  0.91887963  0.80839089  1
  O  O408  1  0.27182824  0.08074912  0.19249473  1
  O  O409  1  0.27243315  0.08119364  0.44188965  1
  O  O410  1  0.27248987  0.08145169  0.69170942  1
  O  O411  1  0.27260109  0.08066045  0.94238131  1
  O  O412  1  0.27186416  0.41648967  0.19366353  1
  O  O413  1  0.27230487  0.41851282  0.44190316  1
  O  O414  1  0.27212552  0.41455790  0.69178623  1
  O  O415  1  0.27149374  0.41607143  0.94342629  1
  O  O416  1  0.27225641  0.75246863  0.19282472  1
  O  O417  1  0.27274407  0.75108199  0.44112515  1
  O  O418  1  0.27142188  0.75086524  0.69359426  1
  O  O419  1  0.27158306  0.75067945  0.94399417  1
  O  O420  1  0.77254194  0.08436436  0.19009067  1
  O  O421  1  0.77128707  0.08311333  0.44340656  1
  O  O422  1  0.77287385  0.08439342  0.69130368  1
  O  O423  1  0.77254959  0.08316056  0.94065369  1
  O  O424  1  0.77183211  0.41527408  0.19072063  1
  O  O425  1  0.77251010  0.41408953  0.44153311  1
  O  O426  1  0.77218719  0.41822386  0.69237353  1
  O  O427  1  0.77245988  0.41735361  0.94040805  1
  O  O428  1  0.77275957  0.74919826  0.18970942  1
  O  O429  1  0.77181730  0.74998697  0.44300566  1
  O  O430  1  0.77181990  0.75158992  0.69188337  1
  O  O431  1  0.77196519  0.74938939  0.94149011  1
  O  O432  1  0.02179124  0.08129073  0.18295151  1
  O  O433  1  0.02190110  0.08347002  0.43480209  1
  O  O434  1  0.02262600  0.08334939  0.68536857  1
  O  O435  1  0.02236625  0.08244396  0.93446034  1
  O  O436  1  0.02155732  0.41546757  0.18171466  1
  O  O437  1  0.02110614  0.41563988  0.43218042  1
  O  O438  1  0.02158136  0.41685319  0.68371095  1
  O  O439  1  0.02183516  0.41379221  0.93324930  1
  O  O440  1  0.02138075  0.75141118  0.18140033  1
  O  O441  1  0.02105302  0.75143730  0.43180324  1
  O  O442  1  0.02079763  0.75060431  0.68194658  1
  O  O443  1  0.02148164  0.75245694  0.93302938  1
  O  O444  1  0.52264792  0.08212686  0.18245574  1
  O  O445  1  0.52187095  0.08354178  0.43128677  1
  O  O446  1  0.52265564  0.08477122  0.68255036  1
  O  O447  1  0.52279171  0.08522526  0.93216329  1
  O  O448  1  0.52261558  0.41504249  0.18246557  1
  O  O449  1  0.52350500  0.41626608  0.43404312  1
  O  O450  1  0.52259603  0.41603335  0.68289060  1
  O  O451  1  0.52245095  0.41528197  0.93238571  1
  O  O452  1  0.52212632  0.75178025  0.18344467  1
  O  O453  1  0.52335591  0.75104515  0.43487214  1
  O  O454  1  0.52267667  0.75007120  0.68452040  1
  O  O455  1  0.52210521  0.74831154  0.93332782  1
  O  O456  1  0.47752377  0.24971787  0.06465200  1
  O  O457  1  0.47851799  0.25169570  0.31601247  1
  O  O458  1  0.47842859  0.25242093  0.56611610  1
  O  O459  1  0.47749783  0.25023078  0.81469020  1
  O  O460  1  0.47808756  0.58424411  0.06681179  1
  O  O461  1  0.47891106  0.58329352  0.31848248  1
  O  O462  1  0.47741628  0.58419558  0.56566948  1
  O  O463  1  0.47782722  0.58483799  0.81645384  1
  O  O464  1  0.47827995  0.91692405  0.06791296  1
  O  O465  1  0.47754953  0.91616494  0.31551001  1
  O  O466  1  0.47792800  0.91521768  0.56686928  1
  O  O467  1  0.47827911  0.91542871  0.81662743  1
  O  O468  1  0.97691365  0.24937490  0.06624994  1
  O  O469  1  0.97842537  0.24860762  0.31896671  1
  O  O470  1  0.97785940  0.24751250  0.56792390  1
  O  O471  1  0.97773912  0.24768570  0.81772426  1
  O  O472  1  0.97880162  0.58325077  0.06796878  1
  O  O473  1  0.97831991  0.58362553  0.31812331  1
  O  O474  1  0.97816255  0.58345097  0.56859920  1
  O  O475  1  0.97752730  0.58151043  0.81721730  1
  O  O476  1  0.97656373  0.91713890  0.06563416  1
  O  O477  1  0.97698661  0.91918181  0.31723062  1
  O  O478  1  0.97742713  0.91918395  0.56775749  1
  O  O479  1  0.97737998  0.91906123  0.81726489  1
  O  O480  1  0.07234287  0.31226282  0.07357736  1
  O  O481  1  0.07380678  0.31208049  0.32593308  1
  O  O482  1  0.07288608  0.31158130  0.57585564  1
  O  O483  1  0.07327664  0.31095585  0.82522966  1
  O  O484  1  0.07413987  0.64693807  0.07506928  1
  O  O485  1  0.07375193  0.64715547  0.32511904  1
  O  O486  1  0.07369934  0.64667427  0.57619684  1
  O  O487  1  0.07279021  0.64567883  0.82498666  1
  O  O488  1  0.07183696  0.98056041  0.07342814  1
  O  O489  1  0.07204129  0.98250323  0.32397391  1
  O  O490  1  0.07277087  0.98223948  0.57431559  1
  O  O491  1  0.07264408  0.98172661  0.82515012  1
  O  O492  1  0.57259434  0.31332238  0.07171390  1
  O  O493  1  0.57345606  0.31526364  0.32262739  1
  O  O494  1  0.57393410  0.31486039  0.57417972  1
  O  O495  1  0.57229085  0.31402356  0.82300250  1
  O  O496  1  0.57269928  0.64825019  0.07382665  1
  O  O497  1  0.57436970  0.64658631  0.32605571  1
  O  O498  1  0.57265618  0.64732480  0.57373069  1
  O  O499  1  0.57307398  0.64780319  0.82373145  1
  O  O500  1  0.57390405  0.97981305  0.07507022  1
  O  O501  1  0.57205808  0.98044399  0.32330692  1
  O  O502  1  0.57280957  0.97934177  0.57527671  1
  O  O503  1  0.57366694  0.97901954  0.82427252  1
  O  O504  1  0.42763389  0.01893481  0.17539014  1
  O  O505  1  0.42646253  0.02009832  0.42426996  1
  O  O506  1  0.42720322  0.02137893  0.67465227  1
  O  O507  1  0.42784368  0.02099708  0.92401883  1
  O  O508  1  0.42746543  0.35165447  0.17550377  1
  O  O509  1  0.42802242  0.35332336  0.42634531  1
  O  O510  1  0.42768645  0.35264131  0.67504604  1
  O  O511  1  0.42734876  0.35175480  0.92518974  1
  O  O512  1  0.42703242  0.68739235  0.17693730  1
  O  O513  1  0.42891012  0.68691837  0.42698181  1
  O  O514  1  0.42773446  0.68640235  0.67581210  1
  O  O515  1  0.42698809  0.68547396  0.92579020  1
  O  O516  1  0.92654338  0.01861966  0.17575672  1
  O  O517  1  0.92660278  0.02002987  0.42784645  1
  O  O518  1  0.92755984  0.01996166  0.67730853  1
  O  O519  1  0.92660615  0.02005720  0.92655203  1
  O  O520  1  0.92604810  0.35201452  0.17488372  1
  O  O521  1  0.92560327  0.35252211  0.42558025  1
  O  O522  1  0.92606822  0.35318126  0.67608492  1
  O  O523  1  0.92655409  0.35109642  0.92570142  1
  O  O524  1  0.92650602  0.68718810  0.17362101  1
  O  O525  1  0.92582141  0.68744492  0.42488735  1
  O  O526  1  0.92510537  0.68757670  0.67517744  1
  O  O527  1  0.92666523  0.68777649  0.92511355  1
  O  O528  1  0.17656866  0.01763637  0.19936618  1
  O  O529  1  0.17683168  0.01875559  0.44940649  1
  O  O530  1  0.17745646  0.01793399  0.69881732  1
  O  O531  1  0.17737927  0.01740837  0.94924744  1
  O  O532  1  0.17627814  0.35340786  0.20112023  1
  O  O533  1  0.17712056  0.35403522  0.44969554  1
  O  O534  1  0.17682663  0.35150514  0.69856491  1
  O  O535  1  0.17592338  0.35275974  0.95016621  1
  O  O536  1  0.17750151  0.68779238  0.20105124  1
  O  O537  1  0.17789992  0.68715511  0.44847174  1
  O  O538  1  0.17603006  0.68723766  0.70020157  1
  O  O539  1  0.17623116  0.68719412  0.95128509  1
  O  O540  1  0.67802501  0.01999032  0.19713973  1
  O  O541  1  0.67583407  0.01978259  0.45025696  1
  O  O542  1  0.67821160  0.02041048  0.69864266  1
  O  O543  1  0.67719227  0.02015258  0.94850921  1
  O  O544  1  0.67689163  0.35173989  0.19727748  1
  O  O545  1  0.67760439  0.35106853  0.44911290  1
  O  O546  1  0.67681434  0.35482373  0.70039400  1
  O  O547  1  0.67795025  0.35308673  0.94732282  1
  O  O548  1  0.67746125  0.68604093  0.19784647  1
  O  O549  1  0.67669513  0.68645255  0.45078199  1
  O  O550  1  0.67647124  0.68799335  0.69991598  1
  O  O551  1  0.67698516  0.68607741  0.94880403  1
  O  O552  1  0.32384265  0.31226410  0.04962195  1
  O  O553  1  0.32479462  0.31252340  0.29958383  1
  O  O554  1  0.32318621  0.31489564  0.55050759  1
  O  O555  1  0.32370841  0.31272272  0.79950221  1
  O  O556  1  0.32489336  0.64682359  0.05084106  1
  O  O557  1  0.32298279  0.64778930  0.30248595  1
  O  O558  1  0.32364346  0.64770033  0.54907440  1
  O  O559  1  0.32398069  0.64670173  0.80003309  1
  O  O560  1  0.32256020  0.98001079  0.05276075  1
  O  O561  1  0.32207550  0.98034143  0.30129876  1
  O  O562  1  0.32390315  0.98110358  0.55040334  1
  O  O563  1  0.32416448  0.98124824  0.80148012  1
  O  O564  1  0.82073825  0.31370143  0.05079097  1
  O  O565  1  0.82273292  0.31407772  0.30037970  1
  O  O566  1  0.82344832  0.31186564  0.55132031  1
  O  O567  1  0.82128127  0.31384653  0.80178788  1
  O  O568  1  0.82302563  0.64779040  0.04966162  1
  O  O569  1  0.82369354  0.64660240  0.29948843  1
  O  O570  1  0.82326589  0.64504848  0.55055961  1
  O  O571  1  0.82192331  0.64772319  0.80095208  1
  O  O572  1  0.82161437  0.98100483  0.05124762  1
  O  O573  1  0.82287051  0.98036606  0.29932233  1
  O  O574  1  0.82115771  0.98061651  0.55245119  1
  O  O575  1  0.82250958  0.98228886  0.80066097  1
  O  O576  1  0.42722085  0.14599489  0.17481401  1
  O  O577  1  0.42656812  0.14701181  0.42322201  1
  O  O578  1  0.42781943  0.14866703  0.67519545  1
  O  O579  1  0.42731592  0.14807355  0.92515257  1
  O  O580  1  0.42734859  0.47879578  0.17486785  1
  O  O581  1  0.42916482  0.48066293  0.42680425  1
  O  O582  1  0.42716068  0.47959450  0.67450040  1
  O  O583  1  0.42707405  0.47881725  0.92444788  1
  O  O584  1  0.42671408  0.81445469  0.17658738  1
  O  O585  1  0.42787873  0.81425408  0.42709797  1
  O  O586  1  0.42766887  0.81366736  0.67653218  1
  O  O587  1  0.42695896  0.81247437  0.92507251  1
  O  O588  1  0.92680383  0.14555680  0.17504569  1
  O  O589  1  0.92703243  0.14724383  0.42742741  1
  O  O590  1  0.92762453  0.14704047  0.67760370  1
  O  O591  1  0.92806316  0.14706102  0.92752106  1
  O  O592  1  0.92622216  0.47902849  0.17376051  1
  O  O593  1  0.92574524  0.47955725  0.42521698  1
  O  O594  1  0.92662241  0.48045117  0.67705575  1
  O  O595  1  0.92669967  0.47830393  0.92548034  1
  O  O596  1  0.92546350  0.81410783  0.17436017  1
  O  O597  1  0.92528432  0.81451642  0.42483433  1
  O  O598  1  0.92554222  0.81455022  0.67507439  1
  O  O599  1  0.92598820  0.81520987  0.92557862  1
  O  O600  1  0.07152435  0.18475920  0.07353913  1
  O  O601  1  0.07403348  0.18531793  0.32544300  1
  O  O602  1  0.07325956  0.18441849  0.57489290  1
  O  O603  1  0.07281247  0.18411413  0.82554415  1
  O  O604  1  0.07436152  0.51986790  0.07511327  1
  O  O605  1  0.07368134  0.51996771  0.32520750  1
  O  O606  1  0.07369834  0.51970502  0.57532956  1
  O  O607  1  0.07266591  0.51815030  0.82431891  1
  O  O608  1  0.07139224  0.85332766  0.07360679  1
  O  O609  1  0.07228611  0.85545357  0.32523355  1
  O  O610  1  0.07269458  0.85522357  0.57508407  1
  O  O611  1  0.07258401  0.85485638  0.82547549  1
  O  O612  1  0.57239785  0.18602308  0.07210336  1
  O  O613  1  0.57394120  0.18818993  0.32395921  1
  O  O614  1  0.57319272  0.18784173  0.57424378  1
  O  O615  1  0.57260591  0.18681724  0.82273359  1
  O  O616  1  0.57372848  0.52092437  0.07432957  1
  O  O617  1  0.57434486  0.51987795  0.32541033  1
  O  O618  1  0.57179489  0.51986846  0.57368437  1
  O  O619  1  0.57281228  0.52076633  0.82496168  1
  O  O620  1  0.57350464  0.85316358  0.07553916  1
  O  O621  1  0.57303622  0.85302082  0.32331214  1
  O  O622  1  0.57328912  0.85222726  0.57449536  1
  O  O623  1  0.57323261  0.85171554  0.82406267  1
  O  O624  1  0.32398974  0.18519208  0.04972658  1
  O  O625  1  0.32432505  0.18552585  0.29963983  1
  O  O626  1  0.32411482  0.18753547  0.54981669  1
  O  O627  1  0.32403375  0.18585500  0.79840036  1
  O  O628  1  0.32446673  0.51986802  0.05046114  1
  O  O629  1  0.32320647  0.52012157  0.30230727  1
  O  O630  1  0.32446094  0.52088610  0.54894786  1
  O  O631  1  0.32407622  0.51952448  0.79967506  1
  O  O632  1  0.32259090  0.85272249  0.05200324  1
  O  O633  1  0.32232324  0.85323626  0.30188311  1
  O  O634  1  0.32313471  0.85418222  0.55040038  1
  O  O635  1  0.32350710  0.85424725  0.80075566  1
  O  O636  1  0.82199513  0.18646362  0.05045789  1
  O  O637  1  0.82294205  0.18713642  0.29976076  1
  O  O638  1  0.82306877  0.18490193  0.55180348  1
  O  O639  1  0.82215233  0.18649438  0.80258894  1
  O  O640  1  0.82304043  0.52077539  0.04896461  1
  O  O641  1  0.82409609  0.51962613  0.29829143  1
  O  O642  1  0.82266056  0.51784524  0.55153993  1
  O  O643  1  0.82201713  0.52031000  0.80240024  1
  O  O644  1  0.82106544  0.85354453  0.05068636  1
  O  O645  1  0.82322489  0.85361397  0.29886320  1
  O  O646  1  0.82197055  0.85315856  0.55206338  1
  O  O647  1  0.82302635  0.85541873  0.80042291  1
  O  O648  1  0.17655291  0.14467178  0.19998138  1
  O  O649  1  0.17770982  0.14589493  0.45026364  1
  O  O650  1  0.17710138  0.14496376  0.70016387  1
  O  O651  1  0.17739906  0.14449732  0.95005286  1
  O  O652  1  0.17646994  0.48048968  0.20044357  1
  O  O653  1  0.17698532  0.48123406  0.44988866  1
  O  O654  1  0.17699627  0.47886426  0.69920254  1
  O  O655  1  0.17615415  0.47983542  0.94992876  1
  O  O656  1  0.17658610  0.81478259  0.20045223  1
  O  O657  1  0.17739219  0.81460364  0.44883837  1
  O  O658  1  0.17584452  0.81422102  0.70035559  1
  O  O659  1  0.17598902  0.81405149  0.95072676  1
  O  O660  1  0.67708115  0.14733978  0.19753262  1
  O  O661  1  0.67576877  0.14640772  0.45005059  1
  O  O662  1  0.67763225  0.14760574  0.69946957  1
  O  O663  1  0.67787290  0.14728876  0.94802210  1
  O  O664  1  0.67638228  0.47876173  0.19912049  1
  O  O665  1  0.67733907  0.47824905  0.44909569  1
  O  O666  1  0.67724301  0.48184805  0.69937299  1
  O  O667  1  0.67704593  0.48047171  0.94870023  1
  O  O668  1  0.67835457  0.81361481  0.19723265  1
  O  O669  1  0.67632835  0.81340227  0.44972631  1
  O  O670  1  0.67700301  0.81519375  0.69999189  1
  O  O671  1  0.67659863  0.81305158  0.95015083  1
