# generated using pymatgen
data_Na2MnFe(PO4)2
_symmetry_space_group_name_H-M   'P 1'
_cell_length_a   22.34365079
_cell_length_b   20.09184290
_cell_length_c   19.44954322
_cell_angle_alpha   89.95880068
_cell_angle_beta   89.97042518
_cell_angle_gamma   89.98773404
_symmetry_Int_Tables_number   1
_chemical_formula_structural   Na2MnFe(PO4)2
_chemical_formula_sum   'Na96 Mn48 Fe48 P96 O384'
_cell_volume   8731.38493252
_cell_formula_units_Z   48
loop_
 _symmetry_equiv_pos_site_id
 _symmetry_equiv_pos_as_xyz
  1  'x, y, z'
loop_
 _atom_site_type_symbol
 _atom_site_label
 _atom_site_symmetry_multiplicity
 _atom_site_fract_x
 _atom_site_fract_y
 _atom_site_fract_z
 _atom_site_occupancy
  Na  Na0  1  0.14034336  0.25042760  0.24337612  1
  Na  Na1  1  0.14027777  0.25109064  0.49362461  1
  Na  Na2  1  0.14006451  0.25060822  0.74339076  1
  Na  Na3  1  0.14007072  0.24931014  0.99444256  1
  Na  Na4  1  0.14072458  0.58305320  0.24211370  1
  Na  Na5  1  0.14011679  0.58485024  0.49291126  1
  Na  Na6  1  0.13998458  0.58436381  0.74358844  1
  Na  Na7  1  0.13999751  0.58189505  0.99345542  1
  Na  Na8  1  0.14087447  0.91659797  0.24398480  1
  Na  Na9  1  0.14060060  0.91789614  0.49334606  1
  Na  Na10  1  0.13992638  0.91802608  0.74294777  1
  Na  Na11  1  0.14020279  0.91543915  0.99312895  1
  Na  Na12  1  0.64060126  0.24920197  0.24368088  1
  Na  Na13  1  0.64075347  0.25044561  0.49425613  1
  Na  Na14  1  0.64028330  0.24945396  0.74379840  1
  Na  Na15  1  0.64025959  0.24934128  0.99339104  1
  Na  Na16  1  0.64104413  0.58216655  0.24507521  1
  Na  Na17  1  0.64061513  0.58374912  0.49319422  1
  Na  Na18  1  0.64012203  0.58312926  0.74374281  1
  Na  Na19  1  0.64039795  0.58317675  0.99371512  1
  Na  Na20  1  0.64050672  0.91665402  0.24485588  1
  Na  Na21  1  0.64062421  0.91658490  0.49372203  1
  Na  Na22  1  0.64086679  0.91806392  0.74436990  1
  Na  Na23  1  0.64095426  0.91689028  0.99481638  1
  Na  Na24  1  0.35958945  0.08348846  0.00701464  1
  Na  Na25  1  0.35896288  0.08276210  0.25685819  1
  Na  Na26  1  0.35899652  0.08383061  0.50597857  1
  Na  Na27  1  0.35943098  0.08541115  0.75604022  1
  Na  Na28  1  0.35856504  0.41553479  0.00693593  1
  Na  Na29  1  0.35948814  0.41544390  0.25630975  1
  Na  Na30  1  0.35970208  0.41672931  0.50603728  1
  Na  Na31  1  0.35917376  0.41706621  0.75502200  1
  Na  Na32  1  0.35873191  0.74845125  0.00623182  1
  Na  Na33  1  0.35876466  0.74989973  0.25659207  1
  Na  Na34  1  0.36003094  0.75070481  0.50626425  1
  Na  Na35  1  0.35973896  0.75024860  0.75537218  1
  Na  Na36  1  0.86009004  0.08300856  0.00637119  1
  Na  Na37  1  0.85963289  0.08170049  0.25570137  1
  Na  Na38  1  0.85982356  0.08336814  0.50714572  1
  Na  Na39  1  0.86038223  0.08391804  0.75740876  1
  Na  Na40  1  0.85946408  0.41708193  0.00533256  1
  Na  Na41  1  0.86013793  0.41530688  0.25569942  1
  Na  Na42  1  0.86023412  0.41615589  0.50638262  1
  Na  Na43  1  0.85936503  0.41676672  0.75657609  1
  Na  Na44  1  0.85948811  0.74963625  0.00624868  1
  Na  Na45  1  0.85996885  0.74995971  0.25630403  1
  Na  Na46  1  0.86014026  0.75038871  0.50579282  1
  Na  Na47  1  0.85977444  0.75034494  0.75763805  1
  Na  Na48  1  0.10971167  0.08336539  0.11869859  1
  Na  Na49  1  0.11007934  0.08394061  0.36874184  1
  Na  Na50  1  0.10970828  0.08545431  0.61856969  1
  Na  Na51  1  0.10925852  0.08279925  0.86885306  1
  Na  Na52  1  0.10979109  0.41583639  0.11742158  1
  Na  Na53  1  0.10999608  0.41747844  0.36772390  1
  Na  Na54  1  0.10938329  0.41827559  0.61848171  1
  Na  Na55  1  0.10983533  0.41605695  0.86852079  1
  Na  Na56  1  0.11013935  0.74883449  0.11745263  1
  Na  Na57  1  0.11014020  0.75014690  0.36809148  1
  Na  Na58  1  0.10951335  0.75266604  0.61855107  1
  Na  Na59  1  0.10959884  0.74930699  0.86827670  1
  Na  Na60  1  0.60976322  0.08206339  0.11903821  1
  Na  Na61  1  0.60988931  0.08334736  0.36904522  1
  Na  Na62  1  0.61002182  0.08452263  0.61935654  1
  Na  Na63  1  0.61020273  0.08401144  0.86924763  1
  Na  Na64  1  0.60985972  0.41446868  0.11877461  1
  Na  Na65  1  0.61024908  0.41659099  0.36950246  1
  Na  Na66  1  0.60962167  0.41695415  0.61796260  1
  Na  Na67  1  0.60910565  0.41668991  0.86827286  1
  Na  Na68  1  0.60992008  0.75007857  0.11982770  1
  Na  Na69  1  0.60982496  0.75103870  0.36940981  1
  Na  Na70  1  0.60961775  0.74898195  0.61874035  1
  Na  Na71  1  0.60959968  0.74953041  0.86908166  1
  Na  Na72  1  0.38986665  0.24831716  0.13200358  1
  Na  Na73  1  0.39009838  0.25058423  0.38140093  1
  Na  Na74  1  0.38939504  0.25094891  0.63116909  1
  Na  Na75  1  0.38944862  0.25017115  0.88101339  1
  Na  Na76  1  0.38943026  0.58168707  0.13187816  1
  Na  Na77  1  0.39057228  0.58275279  0.38168425  1
  Na  Na78  1  0.39064633  0.58367605  0.62936570  1
  Na  Na79  1  0.38958087  0.58394698  0.88109667  1
  Na  Na80  1  0.38980229  0.91606018  0.13202514  1
  Na  Na81  1  0.38970368  0.91639984  0.38214632  1
  Na  Na82  1  0.39028327  0.91570642  0.63071488  1
  Na  Na83  1  0.39041566  0.91728620  0.88079749  1
  Na  Na84  1  0.89006893  0.24950612  0.13047924  1
  Na  Na85  1  0.89079127  0.24987818  0.38156441  1
  Na  Na86  1  0.89035380  0.25063179  0.63234621  1
  Na  Na87  1  0.89026591  0.24883763  0.88132858  1
  Na  Na88  1  0.89054894  0.58209701  0.13033107  1
  Na  Na89  1  0.89107296  0.58289029  0.38102031  1
  Na  Na90  1  0.89090205  0.58516827  0.63124758  1
  Na  Na91  1  0.89009655  0.58304530  0.88169277  1
  Na  Na92  1  0.88999504  0.91591997  0.13178834  1
  Na  Na93  1  0.89010364  0.91620828  0.38177224  1
  Na  Na94  1  0.89108869  0.91862861  0.63157789  1
  Na  Na95  1  0.89093895  0.91713604  0.88208625  1
  Mn  Mn96  1  0.49920634  0.50094975  0.74871122  1
  Mn  Mn97  1  0.24959189  0.33359579  0.37468064  1
  Mn  Mn98  1  0.49915812  0.83381863  0.25035257  1
  Mn  Mn99  1  0.00040509  0.50108189  0.49908508  1
  Mn  Mn100  1  0.24962770  0.49983003  0.87479081  1
  Mn  Mn101  1  0.75060157  0.83391060  0.62602040  1
  Mn  Mn102  1  -0.00020030  0.33409102  0.75039251  1
  Mn  Mn103  1  0.25001657  0.66828454  0.62352448  1
  Mn  Mn104  1  0.00073686  0.83209841  0.25014002  1
  Mn  Mn105  1  0.00002613  0.16767174  0.49999156  1
  Mn  Mn106  1  0.74999560  0.83376694  0.87569500  1
  Mn  Mn107  1  0.24966591  -0.00040060  0.12564332  1
  Mn  Mn108  1  0.74963323  0.33317224  0.87455333  1
  Mn  Mn109  1  0.75092510  0.49952522  0.62515755  1
  Mn  Mn110  1  -0.00040096  0.33243812  -0.00107718  1
  Mn  Mn111  1  0.50070072  0.49855587  0.25112385  1
  Mn  Mn112  1  0.49960344  0.66617871  0.00041429  1
  Mn  Mn113  1  -0.00086304  0.16698372  0.25005194  1
  Mn  Mn114  1  0.49966904  0.49923117  0.00033617  1
  Mn  Mn115  1  -0.00001316  0.66713357  0.74995405  1
  Mn  Mn116  1  0.25002122  0.50049518  0.62510099  1
  Mn  Mn117  1  0.49951920  0.16780312  0.49900938  1
  Mn  Mn118  1  0.00041471  0.49961731  0.24979603  1
  Mn  Mn119  1  0.75056935  0.66687684  0.12532814  1
  Mn  Mn120  1  0.00022276  0.83429055  0.49989937  1
  Mn  Mn121  1  0.75077922  0.00109726  0.62502564  1
  Mn  Mn122  1  0.50010325  0.66638566  0.25102079  1
  Mn  Mn123  1  0.75058603  0.66678888  0.37469899  1
  Mn  Mn124  1  0.49906733  0.33304700  0.74967885  1
  Mn  Mn125  1  0.49955024  0.00000951  0.50069543  1
  Mn  Mn126  1  0.75093437  0.16561106  0.37448116  1
  Mn  Mn127  1  0.25013459  0.00017675  0.87513080  1
  Mn  Mn128  1  0.25008784  0.66675146  0.37417611  1
  Mn  Mn129  1  0.49921307  0.33157048  -0.00083459  1
  Mn  Mn130  1  0.74998538  0.16594996  0.12481078  1
  Mn  Mn131  1  0.75105482  0.33301528  0.37494616  1
  Mn  Mn132  1  0.00005302  -0.00024366  0.24974126  1
  Mn  Mn133  1  0.75030358  0.49906775  0.12431609  1
  Mn  Mn134  1  0.00009203  0.83276548  -0.00017672  1
  Mn  Mn135  1  0.50039155  0.83254169  0.75042061  1
  Mn  Mn136  1  0.25017440  0.83247909  0.87453290  1
  Mn  Mn137  1  0.50004565  0.00054957  0.00011971  1
  Mn  Mn138  1  0.50011587  0.16646340  0.25051137  1
  Mn  Mn139  1  0.49951336  0.83318700  0.00034422  1
  Mn  Mn140  1  0.50029378  0.00105016  0.75051566  1
  Mn  Mn141  1  0.25028423  0.00081182  0.62435270  1
  Mn  Mn142  1  0.24944202  0.16794110  0.87569925  1
  Mn  Mn143  1  0.75022400  0.66668785  0.62514278  1
  Fe  Fe144  1  -0.00003566  0.50074908  0.74962863  1
  Fe  Fe145  1  0.75053349  0.83369635  0.37517029  1
  Fe  Fe146  1  0.74914160  0.49954341  0.87486484  1
  Fe  Fe147  1  0.75010225  0.16660904  0.62546658  1
  Fe  Fe148  1  0.24996591  0.49991979  0.37425128  1
  Fe  Fe149  1  0.24931489  0.16637202  0.12561979  1
  Fe  Fe150  1  0.24950428  0.66624675  0.87532032  1
  Fe  Fe151  1  0.75031551  -0.00058653  0.12546572  1
  Fe  Fe152  1  0.75003766  0.33301113  0.12433638  1
  Fe  Fe153  1  0.75008834  -0.00051576  0.37549299  1
  Fe  Fe154  1  0.24972728  0.33331404  0.87548436  1
  Fe  Fe155  1  0.00009121  0.16578434  0.00014506  1
  Fe  Fe156  1  0.50052446  0.83330600  0.50056389  1
  Fe  Fe157  1  0.49983930  0.16715114  0.74955845  1
  Fe  Fe158  1  0.24993685  0.83437644  0.62466517  1
  Fe  Fe159  1  0.24984380  0.00022500  0.37504330  1
  Fe  Fe160  1  0.74988687  0.33286122  0.62560744  1
  Fe  Fe161  1  0.49977816  0.66642962  0.74926378  1
  Fe  Fe162  1  0.00046745  0.00115984  0.50083595  1
  Fe  Fe163  1  0.50032646  0.66673119  0.50008144  1
  Fe  Fe164  1  0.24898203  0.33388195  0.62459986  1
  Fe  Fe165  1  0.00003868  0.00078946  0.75059508  1
  Fe  Fe166  1  0.24999103  0.16722473  0.37504360  1
  Fe  Fe167  1  -0.00016945  0.49932785  -0.00021607  1
  Fe  Fe168  1  0.00030282  0.16671709  0.75030678  1
  Fe  Fe169  1  0.00046535  0.66775623  0.50031478  1
  Fe  Fe170  1  0.24965854  0.83335359  0.37431946  1
  Fe  Fe171  1  0.75056546  0.00033426  0.87544661  1
  Fe  Fe172  1  0.24970543  0.49920812  0.12427412  1
  Fe  Fe173  1  0.24984553  0.16740322  0.62479928  1
  Fe  Fe174  1  -0.00019823  0.83420992  0.74996338  1
  Fe  Fe175  1  0.49979973  -0.00010450  0.25041556  1
  Fe  Fe176  1  0.24990533  0.83291160  0.12463761  1
  Fe  Fe177  1  0.00025598  0.33311758  0.24908874  1
  Fe  Fe178  1  0.24989004  0.66584129  0.12521426  1
  Fe  Fe179  1  0.50053680  0.49987396  0.49979599  1
  Fe  Fe180  1  0.75075983  0.49929418  0.37499298  1
  Fe  Fe181  1  0.00016186  -0.00063880  -0.00042837  1
  Fe  Fe182  1  0.50018991  0.33293149  0.25045295  1
  Fe  Fe183  1  0.50038150  0.33360099  0.50034258  1
  Fe  Fe184  1  0.74989981  0.83351049  0.12544070  1
  Fe  Fe185  1  0.74941954  0.66663982  0.87584364  1
  Fe  Fe186  1  0.75044033  0.16679207  0.87515166  1
  Fe  Fe187  1  -0.00011324  0.66577776  -0.00087993  1
  Fe  Fe188  1  0.25009636  0.33279707  0.12568837  1
  Fe  Fe189  1  0.00006910  0.33440484  0.50024546  1
  Fe  Fe190  1  0.00036806  0.66596371  0.24924617  1
  Fe  Fe191  1  0.49954976  0.16606793  0.00071541  1
  P  P192  1  0.04173366  0.24883911  0.10232846  1
  P  P193  1  0.04211005  0.25177142  0.35248164  1
  P  P194  1  0.04192496  0.25211809  0.60277334  1
  P  P195  1  0.04193012  0.24832480  0.85273530  1
  P  P196  1  0.04128337  0.58299644  0.10130342  1
  P  P197  1  0.04296417  0.58478283  0.35213976  1
  P  P198  1  0.04247875  0.58535521  0.60242010  1
  P  P199  1  0.04180685  0.58196588  0.85289850  1
  P  P200  1  0.04225363  0.91721385  0.10206460  1
  P  P201  1  0.04294050  0.91667287  0.35340816  1
  P  P202  1  0.04237538  0.91914661  0.60327925  1
  P  P203  1  0.04156167  0.91690127  0.85183170  1
  P  P204  1  0.54236930  0.24815689  0.10280406  1
  P  P205  1  0.54261585  0.25167949  0.35295173  1
  P  P206  1  0.54190938  0.25093579  0.60264865  1
  P  P207  1  0.54181895  0.24835781  0.85260114  1
  P  P208  1  0.54293335  0.58232798  0.10370637  1
  P  P209  1  0.54296886  0.58287710  0.35475038  1
  P  P210  1  0.54186802  0.58355209  0.60139563  1
  P  P211  1  0.54179864  0.58437949  0.85202147  1
  P  P212  1  0.54247266  0.91690313  0.10390110  1
  P  P213  1  0.54182232  0.91767540  0.35335139  1
  P  P214  1  0.54264357  0.91548544  0.60287826  1
  P  P215  1  0.54303550  0.91694534  0.85336702  1
  P  P216  1  0.45731578  0.08212977  0.14786093  1
  P  P217  1  0.45704802  0.08311925  0.39654741  1
  P  P218  1  0.45745145  0.08489185  0.64742246  1
  P  P219  1  0.45732800  0.08531626  0.89732865  1
  P  P220  1  0.45775674  0.41441246  0.14792591  1
  P  P221  1  0.45881441  0.41604806  0.39845364  1
  P  P222  1  0.45713742  0.41689067  0.64542174  1
  P  P223  1  0.45631327  0.41649048  0.89665568  1
  P  P224  1  0.45669260  0.74945132  0.14754176  1
  P  P225  1  0.45865728  0.75017697  0.39893043  1
  P  P226  1  0.45821098  0.74866046  0.64649901  1
  P  P227  1  0.45668334  0.74955632  0.89654485  1
  P  P228  1  0.95735729  0.08317808  0.14590712  1
  P  P229  1  0.95777150  0.08246503  0.39805187  1
  P  P230  1  0.95894136  0.08404166  0.64858918  1
  P  P231  1  0.95895828  0.08279910  0.89789120  1
  P  P232  1  0.95810457  0.41539198  0.14658847  1
  P  P233  1  0.95825247  0.41556876  0.39692488  1
  P  P234  1  0.95772393  0.41878321  0.64722375  1
  P  P235  1  0.95786544  0.41779599  0.89680339  1
  P  P236  1  0.95818601  0.74783185  0.14686529  1
  P  P237  1  0.95836847  0.74862806  0.39713683  1
  P  P238  1  0.95774839  0.75226269  0.64752086  1
  P  P239  1  0.95771306  0.74889534  0.89716471  1
  P  P240  1  0.20759903  0.08447454  0.22856524  1
  P  P241  1  0.20883779  0.08436918  0.47671667  1
  P  P242  1  0.20773299  0.08526854  0.72711916  1
  P  P243  1  0.20714114  0.08341873  0.97894035  1
  P  P244  1  0.20849389  0.41680170  0.22650694  1
  P  P245  1  0.20760785  0.41804938  0.47726455  1
  P  P246  1  0.20732290  0.41575710  0.72761247  1
  P  P247  1  0.20764101  0.41512097  0.97822729  1
  P  P248  1  0.20870264  0.75013624  0.22638279  1
  P  P249  1  0.20789620  0.75195644  0.47704133  1
  P  P250  1  0.20750612  0.75174594  0.72704007  1
  P  P251  1  0.20747257  0.74802325  0.97803913  1
  P  P252  1  0.70786658  0.08116298  0.22782595  1
  P  P253  1  0.70807836  0.08261023  0.47776926  1
  P  P254  1  0.70838351  0.08481572  0.72855321  1
  P  P255  1  0.70919283  0.08304406  0.97709753  1
  P  P256  1  0.70809398  0.41493589  0.22746094  1
  P  P257  1  0.70857013  0.41707108  0.47785162  1
  P  P258  1  0.70748907  0.41550519  0.72761282  1
  P  P259  1  0.70722472  0.41713148  0.97732152  1
  P  P260  1  0.70833439  0.75146670  0.22826106  1
  P  P261  1  0.70822295  0.75133243  0.47739955  1
  P  P262  1  0.70746672  0.74986116  0.72917858  1
  P  P263  1  0.70764999  0.74943532  0.97830182  1
  P  P264  1  0.29090424  0.24970041  0.02391084  1
  P  P265  1  0.29181733  0.24883642  0.27217189  1
  P  P266  1  0.29095935  0.25036158  0.52301003  1
  P  P267  1  0.29142331  0.25199277  0.77191071  1
  P  P268  1  0.29088805  0.58273583  0.02302420  1
  P  P269  1  0.29207486  0.58158580  0.27136438  1
  P  P270  1  0.29247509  0.58347950  0.52067797  1
  P  P271  1  0.29178400  0.58496390  0.77230636  1
  P  P272  1  0.29212070  0.91512597  0.02269967  1
  P  P273  1  0.29123334  0.91649495  0.27318225  1
  P  P274  1  0.29203456  0.91592854  0.52130829  1
  P  P275  1  0.29273796  0.91702921  0.77125397  1
  P  P276  1  0.79191291  0.25066576  0.02185100  1
  P  P277  1  0.79346785  0.24941058  0.27114189  1
  P  P278  1  0.79171827  0.24965006  0.52382434  1
  P  P279  1  0.79218253  0.24878648  0.77196367  1
  P  P280  1  0.79244043  0.58343706  0.02089821  1
  P  P281  1  0.79289904  0.58153733  0.27249372  1
  P  P282  1  0.79334383  0.58311322  0.52148634  1
  P  P283  1  0.79107825  0.58317726  0.77402518  1
  P  P284  1  0.79167517  0.91670703  0.02349263  1
  P  P285  1  0.79172735  0.91657447  0.27302570  1
  P  P286  1  0.79309631  0.91687452  0.52162577  1
  P  P287  1  0.79289472  0.91836285  0.77332583  1
  O  O288  1  0.03656557  0.24975156  0.18226274  1
  O  O289  1  0.03684410  0.25213246  0.43245319  1
  O  O290  1  0.03676168  0.25146824  0.68266313  1
  O  O291  1  0.03653774  0.24772275  0.93264491  1
  O  O292  1  0.03647499  0.58314461  0.18133312  1
  O  O293  1  0.03794459  0.58497619  0.43210000  1
  O  O294  1  0.03713822  0.58463801  0.68232773  1
  O  O295  1  0.03629218  0.58190796  0.93277031  1
  O  O296  1  0.03734141  0.91662071  0.18202024  1
  O  O297  1  0.03780379  0.91712398  0.43334239  1
  O  O298  1  0.03680843  0.91894353  0.68314024  1
  O  O299  1  0.03631609  0.91681234  0.93180584  1
  O  O300  1  0.53751296  0.24888612  0.18275140  1
  O  O301  1  0.53742113  0.25215245  0.43289363  1
  O  O302  1  0.53645094  0.25009080  0.68256147  1
  O  O303  1  0.53661228  0.24785574  0.93257692  1
  O  O304  1  0.53821934  0.58208302  0.18374431  1
  O  O305  1  0.53748489  0.58284863  0.43466635  1
  O  O306  1  0.53642937  0.58409424  0.68136132  1
  O  O307  1  0.53686594  0.58369700  0.93200439  1
  O  O308  1  0.53712532  0.91751962  0.18386111  1
  O  O309  1  0.53660718  0.91675504  0.43331511  1
  O  O310  1  0.53776858  0.91572294  0.68286307  1
  O  O311  1  0.53770479  0.91704996  0.93331509  1
  O  O312  1  0.46251435  0.08293191  0.06787687  1
  O  O313  1  0.46237894  0.08261581  0.31663660  1
  O  O314  1  0.46246216  0.08454406  0.56744912  1
  O  O315  1  0.46257152  0.08561786  0.81736522  1
  O  O316  1  0.46239692  0.41459160  0.06791529  1
  O  O317  1  0.46401921  0.41536997  0.31847515  1
  O  O318  1  0.46282309  0.41688278  0.56554937  1
  O  O319  1  0.46117454  0.41666573  0.81665626  1
  O  O320  1  0.46157387  0.74949985  0.06756336  1
  O  O321  1  0.46331264  0.75048083  0.31892485  1
  O  O322  1  0.46402309  0.74937048  0.56662883  1
  O  O323  1  0.46194309  0.74902592  0.81655135  1
  O  O324  1  0.96282173  0.08312971  0.06600441  1
  O  O325  1  0.96243459  0.08269605  0.31809111  1
  O  O326  1  0.96393193  0.08396046  0.56862988  1
  O  O327  1  0.96419291  0.08291955  0.81796151  1
  O  O328  1  0.96329950  0.41623084  0.06663419  1
  O  O329  1  0.96358388  0.41518782  0.31696540  1
  O  O330  1  0.96319218  0.41825161  0.56727774  1
  O  O331  1  0.96309847  0.41822727  0.81687635  1
  O  O332  1  0.96344548  0.74793062  0.06692233  1
  O  O333  1  0.96376468  0.74811229  0.31717855  1
  O  O334  1  0.96319640  0.75173138  0.56761365  1
  O  O335  1  0.96272244  0.74990607  0.81725396  1
  O  O336  1  0.21229799  0.08354622  0.05889403  1
  O  O337  1  0.21312897  0.08434167  0.30841925  1
  O  O338  1  0.21400423  0.08453544  0.55667234  1
  O  O339  1  0.21267901  0.08498127  0.80708139  1
  O  O340  1  0.21317614  0.41556964  0.05808291  1
  O  O341  1  0.21321466  0.41711558  0.30649367  1
  O  O342  1  0.21273034  0.41744233  0.55719437  1
  O  O343  1  0.21266682  0.41553148  0.80756577  1
  O  O344  1  0.21281277  0.74834944  0.05790149  1
  O  O345  1  0.21383378  0.75031024  0.30634718  1
  O  O346  1  0.21304082  0.75229969  0.55695529  1
  O  O347  1  0.21252455  0.75058450  0.80695143  1
  O  O348  1  0.71420304  0.08249612  0.05705284  1
  O  O349  1  0.71312598  0.08110912  0.30774814  1
  O  O350  1  0.71324951  0.08372973  0.55771091  1
  O  O351  1  0.71363513  0.08463118  0.80842365  1
  O  O352  1  0.71259786  0.41623660  0.05722600  1
  O  O353  1  0.71356115  0.41553275  0.30737484  1
  O  O354  1  0.71366187  0.41626478  0.55778581  1
  O  O355  1  0.71224674  0.41622300  0.80758729  1
  O  O356  1  0.71308588  0.75004323  0.05824664  1
  O  O357  1  0.71392689  0.75157999  0.30817097  1
  O  O358  1  0.71335785  0.75089616  0.55736925  1
  O  O359  1  0.71251605  0.74925346  0.80916041  1
  O  O360  1  0.28661729  0.24883222  0.19234171  1
  O  O361  1  0.28593367  0.24984126  0.44305224  1
  O  O362  1  0.28589344  0.25178591  0.69206826  1
  O  O363  1  0.28609694  0.25070009  0.94393385  1
  O  O364  1  0.28660151  0.58158279  0.19147244  1
  O  O365  1  0.28719699  0.58282240  0.44073965  1
  O  O366  1  0.28678805  0.58496281  0.69234887  1
  O  O367  1  0.28583268  0.58354277  0.94305803  1
  O  O368  1  0.28633621  0.91632177  0.19322954  1
  O  O369  1  0.28639389  0.91601993  0.44146224  1
  O  O370  1  0.28748619  0.91703790  0.69128477  1
  O  O371  1  0.28714131  0.91545097  0.94273512  1
  O  O372  1  0.78802686  0.24977303  0.19123666  1
  O  O373  1  0.78715954  0.24965109  0.44378432  1
  O  O374  1  0.78682352  0.24899565  0.69208771  1
  O  O375  1  0.78647944  0.25010448  0.94192746  1
  O  O376  1  0.78749557  0.58184162  0.19256821  1
  O  O377  1  0.78827798  0.58279852  0.44154573  1
  O  O378  1  0.78637783  0.58319496  0.69396941  1
  O  O379  1  0.78674932  0.58357057  0.94103136  1
  O  O380  1  0.78640931  0.91650175  0.19310343  1
  O  O381  1  0.78779228  0.91674719  0.44170839  1
  O  O382  1  0.78809063  0.91830681  0.69337839  1
  O  O383  1  0.78651104  0.91727966  0.94355297  1
  O  O384  1  0.22677880  0.24911490  0.05988150  1
  O  O385  1  0.22762193  0.24879503  0.30820014  1
  O  O386  1  0.22682869  0.25032129  0.55916595  1
  O  O387  1  0.22732420  0.25238901  0.80833800  1
  O  O388  1  0.22681547  0.58189601  0.05916555  1
  O  O389  1  0.22790580  0.58167788  0.30751439  1
  O  O390  1  0.22823188  0.58390111  0.55623150  1
  O  O391  1  0.22746320  0.58467696  0.80788747  1
  O  O392  1  0.22774188  0.91504482  0.05815594  1
  O  O393  1  0.22708857  0.91610076  0.30915137  1
  O  O394  1  0.22800158  0.91599443  0.55781798  1
  O  O395  1  0.22841292  0.91687072  0.80668849  1
  O  O396  1  0.72781701  0.25088508  0.05802585  1
  O  O397  1  0.72920925  0.24929349  0.30669685  1
  O  O398  1  0.72745243  0.24922490  0.55948477  1
  O  O399  1  0.72801389  0.24845460  0.80801003  1
  O  O400  1  0.72837317  0.58332700  0.05696710  1
  O  O401  1  0.72870946  0.58152926  0.30837255  1
  O  O402  1  0.72894145  0.58302017  0.55672355  1
  O  O403  1  0.72679245  0.58319080  0.80966206  1
  O  O404  1  0.72759017  0.91639411  0.05979275  1
  O  O405  1  0.72775687  0.91661062  0.30973383  1
  O  O406  1  0.72884841  0.91708174  0.55731280  1
  O  O407  1  0.72847079  0.91847799  0.80856376  1
  O  O408  1  0.27168021  0.08457875  0.19222345  1
  O  O409  1  0.27282013  0.08459124  0.44040197  1
  O  O410  1  0.27205122  0.08543884  0.69156213  1
  O  O411  1  0.27145995  0.08373034  0.94349780  1
  O  O412  1  0.27268544  0.41743553  0.19069327  1
  O  O413  1  0.27186882  0.41839891  0.44141500  1
  O  O414  1  0.27150785  0.41540177  0.69163641  1
  O  O415  1  0.27170005  0.41518229  0.94181127  1
  O  O416  1  0.27275119  0.75062939  0.19024287  1
  O  O417  1  0.27213173  0.75167134  0.44121748  1
  O  O418  1  0.27181702  0.75240112  0.69126015  1
  O  O419  1  0.27164026  0.74783546  0.94185119  1
  O  O420  1  0.77208869  0.08149412  0.19196632  1
  O  O421  1  0.77240658  0.08163866  0.44213361  1
  O  O422  1  0.77262735  0.08525176  0.69258208  1
  O  O423  1  0.77332142  0.08318925  0.94098724  1
  O  O424  1  0.77230781  0.41433634  0.19146637  1
  O  O425  1  0.77286592  0.41759587  0.44209771  1
  O  O426  1  0.77195595  0.41492709  0.69239776  1
  O  O427  1  0.77147569  0.41774068  0.94153706  1
  O  O428  1  0.77245569  0.75173545  0.19211604  1
  O  O429  1  0.77251833  0.75144253  0.44179649  1
  O  O430  1  0.77194446  0.74991138  0.69407484  1
  O  O431  1  0.77183223  0.74908099  0.94237065  1
  O  O432  1  0.02150823  0.08365434  0.18174062  1
  O  O433  1  0.02220385  0.08285077  0.43325175  1
  O  O434  1  0.02306977  0.08374130  0.68458074  1
  O  O435  1  0.02292730  0.08252186  0.93436221  1
  O  O436  1  0.02233405  0.41515658  0.18245402  1
  O  O437  1  0.02245068  0.41566274  0.43279526  1
  O  O438  1  0.02192179  0.41878240  0.68315129  1
  O  O439  1  0.02202325  0.41714249  0.93261013  1
  O  O440  1  0.02250410  0.74762723  0.18256872  1
  O  O441  1  0.02255082  0.74907288  0.43303156  1
  O  O442  1  0.02193529  0.75234198  0.68341739  1
  O  O443  1  0.02200324  0.74848547  0.93273615  1
  O  O444  1  0.52163808  0.08155717  0.18348804  1
  O  O445  1  0.52135382  0.08344985  0.43186041  1
  O  O446  1  0.52184974  0.08540037  0.68279809  1
  O  O447  1  0.52168906  0.08535415  0.93292330  1
  O  O448  1  0.52224187  0.41423352  0.18303749  1
  O  O449  1  0.52295342  0.41632589  0.43450494  1
  O  O450  1  0.52119538  0.41677816  0.68146004  1
  O  O451  1  0.52082390  0.41599339  0.93149150  1
  O  O452  1  0.52120797  0.74995190  0.18230339  1
  O  O453  1  0.52291134  0.74974829  0.43448113  1
  O  O454  1  0.52224530  0.74798628  0.68291894  1
  O  O455  1  0.52108473  0.74973449  0.93176440  1
  O  O456  1  0.47786836  0.24749098  0.06750199  1
  O  O457  1  0.47828085  0.25135530  0.31742215  1
  O  O458  1  0.47767958  0.25177572  0.56686376  1
  O  O459  1  0.47751350  0.24824298  0.81697124  1
  O  O460  1  0.47830073  0.58246279  0.06912854  1
  O  O461  1  0.47874138  0.58254140  0.31903338  1
  O  O462  1  0.47786006  0.58336529  0.56507732  1
  O  O463  1  0.47742694  0.58506151  0.81659652  1
  O  O464  1  0.47811760  0.91697086  0.06862271  1
  O  O465  1  0.47753035  0.91859381  0.31763505  1
  O  O466  1  0.47821841  0.91521650  0.56768462  1
  O  O467  1  0.47870839  0.91690532  0.81815315  1
  O  O468  1  0.97758712  0.24843377  0.06642615  1
  O  O469  1  0.97782612  0.25216366  0.31675500  1
  O  O470  1  0.97772400  0.25226484  0.56689899  1
  O  O471  1  0.97778667  0.24867338  0.81680218  1
  O  O472  1  0.97718299  0.58330212  0.06531729  1
  O  O473  1  0.97862911  0.58460996  0.31655971  1
  O  O474  1  0.97830147  0.58555803  0.56649579  1
  O  O475  1  0.97770972  0.58203200  0.81664751  1
  O  O476  1  0.97791680  0.91745408  0.06667769  1
  O  O477  1  0.97860623  0.91594172  0.31812592  1
  O  O478  1  0.97829325  0.91928003  0.56698826  1
  O  O479  1  0.97746045  0.91699369  0.81570351  1
  O  O480  1  0.07294495  0.31219172  0.07392760  1
  O  O481  1  0.07349850  0.31465308  0.32327624  1
  O  O482  1  0.07256334  0.31580682  0.57438917  1
  O  O483  1  0.07295859  0.31227909  0.82552627  1
  O  O484  1  0.07260099  0.64624441  0.07281293  1
  O  O485  1  0.07391979  0.64790798  0.32302922  1
  O  O486  1  0.07303224  0.64928057  0.57440760  1
  O  O487  1  0.07300807  0.64561537  0.82494786  1
  O  O488  1  0.07302394  0.98079275  0.07378982  1
  O  O489  1  0.07382167  0.98010886  0.32489704  1
  O  O490  1  0.07325500  0.98265362  0.57448486  1
  O  O491  1  0.07276542  0.98041650  0.82384804  1
  O  O492  1  0.57316404  0.31156725  0.07395667  1
  O  O493  1  0.57343073  0.31485812  0.32374323  1
  O  O494  1  0.57303781  0.31450724  0.57468088  1
  O  O495  1  0.57247302  0.31251671  0.82519336  1
  O  O496  1  0.57386207  0.64591995  0.07563408  1
  O  O497  1  0.57390923  0.64646921  0.32641978  1
  O  O498  1  0.57308069  0.64693901  0.57304333  1
  O  O499  1  0.57280520  0.64779300  0.82370560  1
  O  O500  1  0.57391756  0.97994178  0.07514035  1
  O  O501  1  0.57284874  0.98118176  0.32511994  1
  O  O502  1  0.57348269  0.97934281  0.57518472  1
  O  O503  1  0.57392638  0.98061175  0.82532340  1
  O  O504  1  0.42644829  0.01851083  0.17604330  1
  O  O505  1  0.42577112  0.02010489  0.42541694  1
  O  O506  1  0.42685001  0.02096856  0.67530121  1
  O  O507  1  0.42648652  0.02130459  0.92487269  1
  O  O508  1  0.42716264  0.35078371  0.17646132  1
  O  O509  1  0.42781137  0.35258471  0.42699990  1
  O  O510  1  0.42565341  0.35371582  0.67389740  1
  O  O511  1  0.42518458  0.35299565  0.92475262  1
  O  O512  1  0.42613675  0.68578533  0.17591110  1
  O  O513  1  0.42755556  0.68647191  0.42658871  1
  O  O514  1  0.42698418  0.68517136  0.67465976  1
  O  O515  1  0.42546790  0.68638720  0.92531962  1
  O  O516  1  0.92646844  0.01956648  0.17431510  1
  O  O517  1  0.92749533  0.01883166  0.42684873  1
  O  O518  1  0.92753217  0.02083202  0.67702023  1
  O  O519  1  0.92792560  0.01918366  0.92626930  1
  O  O520  1  0.92748658  0.35158823  0.17462111  1
  O  O521  1  0.92712604  0.35253311  0.42613986  1
  O  O522  1  0.92631926  0.35546259  0.67541336  1
  O  O523  1  0.92644418  0.35397047  0.92392008  1
  O  O524  1  0.92703403  0.68463971  0.17555292  1
  O  O525  1  0.92758135  0.68532131  0.42619912  1
  O  O526  1  0.92638911  0.68880931  0.67553847  1
  O  O527  1  0.92707860  0.68513387  0.92529992  1
  O  O528  1  0.17639696  0.02086463  0.20059462  1
  O  O529  1  0.17860298  0.02019491  0.44865422  1
  O  O530  1  0.17678845  0.02167415  0.69916799  1
  O  O531  1  0.17651391  0.01964837  0.95079590  1
  O  O532  1  0.17869346  0.35233193  0.19851868  1
  O  O533  1  0.17663058  0.35448022  0.44909057  1
  O  O534  1  0.17601293  0.35280893  0.69864579  1
  O  O535  1  0.17680381  0.35155664  0.94987773  1
  O  O536  1  0.17861690  0.68583612  0.19841045  1
  O  O537  1  0.17693916  0.68813576  0.44938065  1
  O  O538  1  0.17640663  0.68840685  0.69849530  1
  O  O539  1  0.17670876  0.68452796  0.94927934  1
  O  O540  1  0.67712264  0.01784902  0.19898108  1
  O  O541  1  0.67705949  0.01901775  0.44985354  1
  O  O542  1  0.67741321  0.02116710  0.70039866  1
  O  O543  1  0.67820074  0.01959077  0.94859926  1
  O  O544  1  0.67729766  0.35134202  0.19911206  1
  O  O545  1  0.67748152  0.35361380  0.44962869  1
  O  O546  1  0.67693586  0.35177123  0.69924018  1
  O  O547  1  0.67606524  0.35372866  0.94912923  1
  O  O548  1  0.67745019  0.68743998  0.20100948  1
  O  O549  1  0.67716688  0.68776508  0.44950826  1
  O  O550  1  0.67626879  0.68680099  0.70022538  1
  O  O551  1  0.67683082  0.68581700  0.95006113  1
  O  O552  1  0.32148959  0.31330735  0.05282083  1
  O  O553  1  0.32275145  0.31256847  0.30030709  1
  O  O554  1  0.32141875  0.31443439  0.55070306  1
  O  O555  1  0.32266862  0.31515280  0.80066324  1
  O  O556  1  0.32127037  0.64637037  0.05205583  1
  O  O557  1  0.32331958  0.64523875  0.29916488  1
  O  O558  1  0.32354702  0.64723051  0.54815612  1
  O  O559  1  0.32222829  0.64849175  0.80100442  1
  O  O560  1  0.32318926  0.97867113  0.05064075  1
  O  O561  1  0.32124028  0.98065716  0.30155588  1
  O  O562  1  0.32339157  0.97950870  0.54910628  1
  O  O563  1  0.32356198  0.98073346  0.79940703  1
  O  O564  1  0.82253672  0.31451312  0.04977919  1
  O  O565  1  0.82482764  0.31246189  0.29978041  1
  O  O566  1  0.82191343  0.31367679  0.55205133  1
  O  O567  1  0.82331439  0.31241695  0.79988206  1
  O  O568  1  0.82372750  0.64666343  0.04949777  1
  O  O569  1  0.82405787  0.64524418  0.29987707  1
  O  O570  1  0.82404997  0.64684824  0.54968642  1
  O  O571  1  0.82191518  0.64682841  0.80207742  1
  O  O572  1  0.82260188  0.98016651  0.05197415  1
  O  O573  1  0.82262711  0.98018316  0.30143378  1
  O  O574  1  0.82431734  0.98027875  0.54996559  1
  O  O575  1  0.82355261  0.98184430  0.80192416  1
  O  O576  1  0.42631187  0.14561293  0.17615481  1
  O  O577  1  0.42603779  0.14696014  0.42408940  1
  O  O578  1  0.42648439  0.14837103  0.67555313  1
  O  O579  1  0.42622499  0.14831562  0.92656817  1
  O  O580  1  0.42692515  0.47804826  0.17605034  1
  O  O581  1  0.42800310  0.47999972  0.42598772  1
  O  O582  1  0.42591393  0.48043618  0.67350998  1
  O  O583  1  0.42561396  0.48004225  0.92508504  1
  O  O584  1  0.42540358  0.81277782  0.17572564  1
  O  O585  1  0.42830912  0.81407779  0.42731173  1
  O  O586  1  0.42714022  0.81219124  0.67478060  1
  O  O587  1  0.42578016  0.81332268  0.92438795  1
  O  O588  1  0.92578554  0.14631771  0.17438324  1
  O  O589  1  0.92660926  0.14611012  0.42585214  1
  O  O590  1  0.92860841  0.14813501  0.67674201  1
  O  O591  1  0.92808372  0.14648256  0.92618581  1
  O  O592  1  0.92686906  0.47872887  0.17499935  1
  O  O593  1  0.92741247  0.47961266  0.42419947  1
  O  O594  1  0.92721404  0.48263477  0.67536111  1
  O  O595  1  0.92722101  0.48106437  0.92597297  1
  O  O596  1  0.92750304  0.81179342  0.17472617  1
  O  O597  1  0.92714472  0.81240498  0.42447075  1
  O  O598  1  0.92715511  0.81596053  0.67589199  1
  O  O599  1  0.92655298  0.81226611  0.92566206  1
  O  O600  1  0.07249303  0.18509661  0.07431443  1
  O  O601  1  0.07251774  0.18749653  0.32511364  1
  O  O602  1  0.07309682  0.18865693  0.57455163  1
  O  O603  1  0.07287366  0.18512603  0.82367803  1
  O  O604  1  0.07150942  0.51878381  0.07330624  1
  O  O605  1  0.07376036  0.52085112  0.32439039  1
  O  O606  1  0.07383275  0.52207300  0.57411225  1
  O  O607  1  0.07276958  0.51865255  0.82399288  1
  O  O608  1  0.07318256  0.85354676  0.07407111  1
  O  O609  1  0.07422529  0.85320941  0.32533330  1
  O  O610  1  0.07360230  0.85565641  0.57516417  1
  O  O611  1  0.07210753  0.85298318  0.82367016  1
  O  O612  1  0.57310846  0.18445561  0.07458389  1
  O  O613  1  0.57366595  0.18776879  0.32560761  1
  O  O614  1  0.57289388  0.18746384  0.57426954  1
  O  O615  1  0.57305314  0.18541160  0.82347925  1
  O  O616  1  0.57368186  0.51881221  0.07515708  1
  O  O617  1  0.57441595  0.51963376  0.32640922  1
  O  O618  1  0.57268806  0.51955786  0.57388459  1
  O  O619  1  0.57243217  0.52058469  0.82385319  1
  O  O620  1  0.57326441  0.85307242  0.07615767  1
  O  O621  1  0.57260714  0.85401487  0.32509606  1
  O  O622  1  0.57340569  0.85197713  0.57433206  1
  O  O623  1  0.57429800  0.85355993  0.82550140  1
  O  O624  1  0.32190557  0.18591716  0.05158885  1
  O  O625  1  0.32289110  0.18565686  0.30120341  1
  O  O626  1  0.32212514  0.18697122  0.55155913  1
  O  O627  1  0.32232169  0.18824696  0.80016771  1
  O  O628  1  0.32230239  0.51904933  0.05039876  1
  O  O629  1  0.32292878  0.51821892  0.30033978  1
  O  O630  1  0.32365677  0.52037251  0.54954886  1
  O  O631  1  0.32292707  0.52121389  0.79987995  1
  O  O632  1  0.32272372  0.85142174  0.05097120  1
  O  O633  1  0.32272363  0.85321461  0.30141025  1
  O  O634  1  0.32291032  0.85254590  0.55017753  1
  O  O635  1  0.32416159  0.85380734  0.79947517  1
  O  O636  1  0.82326820  0.18723743  0.04972099  1
  O  O637  1  0.82443343  0.18568327  0.29911099  1
  O  O638  1  0.82283624  0.18610138  0.55186045  1
  O  O639  1  0.82324172  0.18556628  0.80105803  1
  O  O640  1  0.82381563  0.51996321  0.04895470  1
  O  O641  1  0.82350609  0.51782154  0.30075425  1
  O  O642  1  0.82470846  0.51998280  0.55013183  1
  O  O643  1  0.82160344  0.51912791  0.80183097  1
  O  O644  1  0.82244249  0.85276456  0.05130720  1
  O  O645  1  0.82283504  0.85294328  0.30125899  1
  O  O646  1  0.82425913  0.85353524  0.55025000  1
  O  O647  1  0.82379039  0.85465036  0.80120604  1
  O  O648  1  0.17658293  0.14782857  0.19976877  1
  O  O649  1  0.17726160  0.14763266  0.44861338  1
  O  O650  1  0.17699586  0.14882915  0.69865059  1
  O  O651  1  0.17571464  0.14658302  0.95054133  1
  O  O652  1  0.17667411  0.47963045  0.19783770  1
  O  O653  1  0.17679801  0.48158929  0.44878709  1
  O  O654  1  0.17666961  0.47991436  0.70019755  1
  O  O655  1  0.17629852  0.47851198  0.94985978  1
  O  O656  1  0.17711437  0.81331790  0.19813514  1
  O  O657  1  0.17686199  0.81517813  0.44824716  1
  O  O658  1  0.17685544  0.81559620  0.69903606  1
  O  O659  1  0.17631292  0.81155753  0.94971096  1
  O  O660  1  0.67667246  0.14489868  0.20013236  1
  O  O661  1  0.67721745  0.14612804  0.44916841  1
  O  O662  1  0.67726362  0.14798260  0.69942527  1
  O  O663  1  0.67853545  0.14703642  0.94927394  1
  O  O664  1  0.67694560  0.47848707  0.19945454  1
  O  O665  1  0.67799034  0.48080192  0.44940703  1
  O  O666  1  0.67650912  0.47898244  0.69921228  1
  O  O667  1  0.67638755  0.48082360  0.94914884  1
  O  O668  1  0.67709707  0.81464377  0.19960512  1
  O  O669  1  0.67748051  0.81493941  0.44913051  1
  O  O670  1  0.67680771  0.81380788  0.70139011  1
  O  O671  1  0.67641621  0.81295154  0.95031577  1
