# generated using pymatgen
data_Na2MnFe(PO4)2
_symmetry_space_group_name_H-M   'P 1'
_cell_length_a   22.34561713
_cell_length_b   20.09796958
_cell_length_c   19.44762869
_cell_angle_alpha   90.00034138
_cell_angle_beta   89.98695992
_cell_angle_gamma   89.98558215
_symmetry_Int_Tables_number   1
_chemical_formula_structural   Na2MnFe(PO4)2
_chemical_formula_sum   'Na96 Mn48 Fe48 P96 O384'
_cell_volume   8733.95935912
_cell_formula_units_Z   48
loop_
 _symmetry_equiv_pos_site_id
 _symmetry_equiv_pos_as_xyz
  1  'x, y, z'
loop_
 _atom_site_type_symbol
 _atom_site_label
 _atom_site_symmetry_multiplicity
 _atom_site_fract_x
 _atom_site_fract_y
 _atom_site_fract_z
 _atom_site_occupancy
  Na  Na0  1  0.14037259  0.24881281  0.24307489  1
  Na  Na1  1  0.14006327  0.24836026  0.49345554  1
  Na  Na2  1  0.14038905  0.24939017  0.74460737  1
  Na  Na3  1  0.14041805  0.25056056  0.99404212  1
  Na  Na4  1  0.14031886  0.58256747  0.24297651  1
  Na  Na5  1  0.13981254  0.58456021  0.49428446  1
  Na  Na6  1  0.13967044  0.58338365  0.74368010  1
  Na  Na7  1  0.14019159  0.58311424  0.99303543  1
  Na  Na8  1  0.14018323  0.91749655  0.24249001  1
  Na  Na9  1  0.14011995  0.91842330  0.49286179  1
  Na  Na10  1  0.13986393  0.91718268  0.74233607  1
  Na  Na11  1  0.14009868  0.91823897  0.99315663  1
  Na  Na12  1  0.64104156  0.24971795  0.24397193  1
  Na  Na13  1  0.64049827  0.25033081  0.49324878  1
  Na  Na14  1  0.64047308  0.25005749  0.74486659  1
  Na  Na15  1  0.64090405  0.24888525  0.99467924  1
  Na  Na16  1  0.64042843  0.58335570  0.24233269  1
  Na  Na17  1  0.64049372  0.58392539  0.49303420  1
  Na  Na18  1  0.64036243  0.58521276  0.74476595  1
  Na  Na19  1  0.64040909  0.58421773  0.99433175  1
  Na  Na20  1  0.64126039  0.91591311  0.24319593  1
  Na  Na21  1  0.64066443  0.91637405  0.49417582  1
  Na  Na22  1  0.64008223  0.91624067  0.74449645  1
  Na  Na23  1  0.64104061  0.91514548  0.99365763  1
  Na  Na24  1  0.35895413  0.08501765  0.00601051  1
  Na  Na25  1  0.35945536  0.08344607  0.25504633  1
  Na  Na26  1  0.35907151  0.08380173  0.50522151  1
  Na  Na27  1  0.35895625  0.08463987  0.75520962  1
  Na  Na28  1  0.35927355  0.41720169  0.00699128  1
  Na  Na29  1  0.35975902  0.41614248  0.25576789  1
  Na  Na30  1  0.35931051  0.41647131  0.50653858  1
  Na  Na31  1  0.35871369  0.41714162  0.75773621  1
  Na  Na32  1  0.35934197  0.75049405  0.00597137  1
  Na  Na33  1  0.35961067  0.75026546  0.25545012  1
  Na  Na34  1  0.35985386  0.75130202  0.50688164  1
  Na  Na35  1  0.35967522  0.74985546  0.75640341  1
  Na  Na36  1  0.85993802  0.08096669  0.00764411  1
  Na  Na37  1  0.85989720  0.08213583  0.25655593  1
  Na  Na38  1  0.86040430  0.08260429  0.50659070  1
  Na  Na39  1  0.86015832  0.08151532  0.75683566  1
  Na  Na40  1  0.85963874  0.41637067  0.00768433  1
  Na  Na41  1  0.85992520  0.41567572  0.25684520  1
  Na  Na42  1  0.85980998  0.41608214  0.50549978  1
  Na  Na43  1  0.85972336  0.41760005  0.75652205  1
  Na  Na44  1  0.85963415  0.74987200  0.00679244  1
  Na  Na45  1  0.86029157  0.74965516  0.25581829  1
  Na  Na46  1  0.86046677  0.74991230  0.50596093  1
  Na  Na47  1  0.85980153  0.75129351  0.75728981  1
  Na  Na48  1  0.11007308  0.08284944  0.11821532  1
  Na  Na49  1  0.11020000  0.08282989  0.36766654  1
  Na  Na50  1  0.10976436  0.08288334  0.61739186  1
  Na  Na51  1  0.10971707  0.08297236  0.86869826  1
  Na  Na52  1  0.10956459  0.41527661  0.11841080  1
  Na  Na53  1  0.10916226  0.41650713  0.36806778  1
  Na  Na54  1  0.10900721  0.41747447  0.61963347  1
  Na  Na55  1  0.10954657  0.41697032  0.86837575  1
  Na  Na56  1  0.10989562  0.74990362  0.11870660  1
  Na  Na57  1  0.10921544  0.74967357  0.36808584  1
  Na  Na58  1  0.10936215  0.75057551  0.61933641  1
  Na  Na59  1  0.10928125  0.74965903  0.86726272  1
  Na  Na60  1  0.61057173  0.08305527  0.11788789  1
  Na  Na61  1  0.61025415  0.08343418  0.36844030  1
  Na  Na62  1  0.60945161  0.08350843  0.61879809  1
  Na  Na63  1  0.60981365  0.08230170  0.86958323  1
  Na  Na64  1  0.60962749  0.41826480  0.11863464  1
  Na  Na65  1  0.60962650  0.41636096  0.36908351  1
  Na  Na66  1  0.60937981  0.41794094  0.61896713  1
  Na  Na67  1  0.60956044  0.41720056  0.87095631  1
  Na  Na68  1  0.61016906  0.74919664  0.11718482  1
  Na  Na69  1  0.60993997  0.74948267  0.36907591  1
  Na  Na70  1  0.60993783  0.75124046  0.61917547  1
  Na  Na71  1  0.61036900  0.74990280  0.86951112  1
  Na  Na72  1  0.38978318  0.25161906  0.13111306  1
  Na  Na73  1  0.38996230  0.24984579  0.38066821  1
  Na  Na74  1  0.38982957  0.25066775  0.63116706  1
  Na  Na75  1  0.38955149  0.25106738  0.88239921  1
  Na  Na76  1  0.38980689  0.58411266  0.13003772  1
  Na  Na77  1  0.39074929  0.58337939  0.38125979  1
  Na  Na78  1  0.39016027  0.58539461  0.63155466  1
  Na  Na79  1  0.38975017  0.58395091  0.88275836  1
  Na  Na80  1  0.39019278  0.91670736  0.13046957  1
  Na  Na81  1  0.39030692  0.91668335  0.38084431  1
  Na  Na82  1  0.39018490  0.91712657  0.63022195  1
  Na  Na83  1  0.39015569  0.91609933  0.88062717  1
  Na  Na84  1  0.89058207  0.24815368  0.13292614  1
  Na  Na85  1  0.89042679  0.24913754  0.38189002  1
  Na  Na86  1  0.89040164  0.24896219  0.63065276  1
  Na  Na87  1  0.89075085  0.24837532  0.88218041  1
  Na  Na88  1  0.89048264  0.58282055  0.13293277  1
  Na  Na89  1  0.89081091  0.58321777  0.37935513  1
  Na  Na90  1  0.89072164  0.58482824  0.63166660  1
  Na  Na91  1  0.88991706  0.58395085  0.88151148  1
  Na  Na92  1  0.89040674  0.91565605  0.13219895  1
  Na  Na93  1  0.89075710  0.91552698  0.38102878  1
  Na  Na94  1  0.89072467  0.91599970  0.63186963  1
  Na  Na95  1  0.89003289  0.91671569  0.88203249  1
  Mn  Mn96  1  0.49974851  0.50041656  0.50047852  1
  Mn  Mn97  1  0.24895058  0.33249492  0.62586752  1
  Mn  Mn98  1  0.50078029  -0.00049281  0.24937588  1
  Mn  Mn99  1  0.74960757  0.50112534  0.87588403  1
  Mn  Mn100  1  0.24959979  0.49985984  0.12452327  1
  Mn  Mn101  1  0.24961357  0.83387790  0.12425039  1
  Mn  Mn102  1  -0.00013180  0.83395447  -0.00034777  1
  Mn  Mn103  1  0.75068519  0.66732961  0.37417578  1
  Mn  Mn104  1  0.50026524  0.83247648  0.24997434  1
  Mn  Mn105  1  -0.00032877  0.49963823  0.00047574  1
  Mn  Mn106  1  0.24944199  0.83479986  0.37497183  1
  Mn  Mn107  1  -0.00000241  0.16552157  0.25051536  1
  Mn  Mn108  1  0.24930980  0.50088948  0.62636750  1
  Mn  Mn109  1  0.75003152  0.50049158  0.62509528  1
  Mn  Mn110  1  0.75058726  0.33226539  0.12562832  1
  Mn  Mn111  1  -0.00039986  0.33305930  0.50008019  1
  Mn  Mn112  1  0.75060083  -0.00064956  0.37504666  1
  Mn  Mn113  1  0.49959826  0.33443925  0.75052262  1
  Mn  Mn114  1  0.25022402  0.66709139  0.37492463  1
  Mn  Mn115  1  0.75011357  0.33315267  0.62518837  1
  Mn  Mn116  1  0.75037973  0.16613000  0.62543577  1
  Mn  Mn117  1  0.00026762  0.83316983  0.49999561  1
  Mn  Mn118  1  0.74975386  -0.00120629  0.62540599  1
  Mn  Mn119  1  0.24983493  0.83350935  0.87423600  1
  Mn  Mn120  1  0.50045169  0.33461150  0.25009179  1
  Mn  Mn121  1  0.24966340  0.83376159  0.62439420  1
  Mn  Mn122  1  0.75046224  0.33294754  0.87585199  1
  Mn  Mn123  1  0.00002900  0.16499609  0.75047491  1
  Mn  Mn124  1  0.49993036  -0.00045212  0.49956528  1
  Mn  Mn125  1  0.49959217  0.66601796  0.24923460  1
  Mn  Mn126  1  0.24930763  0.33195615  0.37578652  1
  Mn  Mn127  1  0.49948810  0.16754047  -0.00045149  1
  Mn  Mn128  1  0.75071138  0.49965914  0.37435973  1
  Mn  Mn129  1  0.49948447  -0.00087988  0.74930394  1
  Mn  Mn130  1  0.49946216  0.50110611  0.75028035  1
  Mn  Mn131  1  0.50030753  0.16719182  0.24958795  1
  Mn  Mn132  1  0.49973904  0.16770454  0.49952081  1
  Mn  Mn133  1  0.00003261  0.33322939  0.75019263  1
  Mn  Mn134  1  0.00012441  0.66663457  0.00012081  1
  Mn  Mn135  1  0.49938390  -0.00090283  -0.00096675  1
  Mn  Mn136  1  0.50018041  0.66810734  0.75104909  1
  Mn  Mn137  1  0.50016178  0.16746353  0.74998502  1
  Mn  Mn138  1  0.75070542  0.16478080  0.87521263  1
  Mn  Mn139  1  0.24982591  0.49974527  0.37486673  1
  Mn  Mn140  1  0.75031843  0.66831415  0.62425628  1
  Mn  Mn141  1  0.25016689  0.00157510  0.87381205  1
  Mn  Mn142  1  -0.00041961  0.50102647  0.49899065  1
  Mn  Mn143  1  -0.00101924  0.33230063  -0.00029016  1
  Fe  Fe144  1  0.00046228  0.33229262  0.25016233  1
  Fe  Fe145  1  0.00048340  -0.00081118  0.50004524  1
  Fe  Fe146  1  0.75017910  0.16596073  0.37521991  1
  Fe  Fe147  1  0.00006486  -0.00039240  0.25018750  1
  Fe  Fe148  1  0.74989991  0.33288251  0.37459153  1
  Fe  Fe149  1  0.50038079  0.83308707  0.50001690  1
  Fe  Fe150  1  0.49971228  0.83306366  0.74999280  1
  Fe  Fe151  1  0.24989470  0.66682012  0.62551413  1
  Fe  Fe152  1  0.49967239  0.33407338  0.49991124  1
  Fe  Fe153  1  0.49990614  0.50047647  0.24982654  1
  Fe  Fe154  1  0.00050165  0.16568901  0.49996815  1
  Fe  Fe155  1  -0.00032629  -0.00018292  0.75003583  1
  Fe  Fe156  1  0.00078567  0.66643049  0.24982182  1
  Fe  Fe157  1  0.25007009  0.16712030  0.12476685  1
  Fe  Fe158  1  0.24964715  0.66673716  0.12448596  1
  Fe  Fe159  1  0.24987048  0.16649935  0.62457939  1
  Fe  Fe160  1  0.50028260  0.66700112  0.50025301  1
  Fe  Fe161  1  0.00000251  0.16531950  0.00081480  1
  Fe  Fe162  1  0.50042045  0.83297621  -0.00009044  1
  Fe  Fe163  1  0.25004143  0.00104008  0.37363658  1
  Fe  Fe164  1  0.24975973  0.33332580  0.87538963  1
  Fe  Fe165  1  0.75028217  -0.00106019  0.12587074  1
  Fe  Fe166  1  0.49964110  0.50069970  0.00034497  1
  Fe  Fe167  1  0.49984902  0.66702068  -0.00010074  1
  Fe  Fe168  1  0.75033546  0.83299157  0.37408954  1
  Fe  Fe169  1  -0.00057398  0.66699585  0.74990448  1
  Fe  Fe170  1  -0.00090259  0.50058053  0.74948292  1
  Fe  Fe171  1  0.24944160  0.16767827  0.87545349  1
  Fe  Fe172  1  0.24917635  0.66695481  0.87515427  1
  Fe  Fe173  1  0.24961457  0.50038502  0.87552192  1
  Fe  Fe174  1  0.75027904  0.66697437  0.12464108  1
  Fe  Fe175  1  0.00062406  -0.00082490  0.00014568  1
  Fe  Fe176  1  0.00016126  0.66691309  0.49988688  1
  Fe  Fe177  1  0.74958065  -0.00114657  0.87633325  1
  Fe  Fe178  1  0.75025964  0.83262690  0.12448302  1
  Fe  Fe179  1  0.75016237  0.49981572  0.12526114  1
  Fe  Fe180  1  0.75027447  0.83335469  0.87593587  1
  Fe  Fe181  1  0.00057463  0.83314340  0.25024998  1
  Fe  Fe182  1  0.00044719  0.49948242  0.25015103  1
  Fe  Fe183  1  0.50024324  0.33455070  0.00089712  1
  Fe  Fe184  1  0.75050738  0.83354278  0.62582326  1
  Fe  Fe185  1  0.75053773  0.16561307  0.12551186  1
  Fe  Fe186  1  0.75079071  0.66716634  0.87567642  1
  Fe  Fe187  1  0.24964013  0.00078065  0.62396328  1
  Fe  Fe188  1  0.25022429  0.16607363  0.37394760  1
  Fe  Fe189  1  0.25026147  0.00087309  0.12416344  1
  Fe  Fe190  1  0.24968077  0.33336941  0.12479893  1
  Fe  Fe191  1  0.00016341  0.83382990  0.74977221  1
  P  P192  1  0.04153576  0.24829766  0.10288177  1
  P  P193  1  0.04229854  0.25003593  0.35274121  1
  P  P194  1  0.04195255  0.24841176  0.60232960  1
  P  P195  1  0.04227679  0.24880434  0.85380270  1
  P  P196  1  0.04258005  0.58307010  0.10406838  1
  P  P197  1  0.04187195  0.58355177  0.35144677  1
  P  P198  1  0.04142427  0.58506185  0.60301682  1
  P  P199  1  0.04088598  0.58339948  0.85126852  1
  P  P200  1  0.04220193  0.91745665  0.10321789  1
  P  P201  1  0.04166730  0.91679440  0.35170389  1
  P  P202  1  0.04237002  0.91751806  0.60300972  1
  P  P203  1  0.04152040  0.91725898  0.85157975  1
  P  P204  1  0.54239704  0.25190302  0.10250779  1
  P  P205  1  0.54293858  0.25084444  0.35341668  1
  P  P206  1  0.54223965  0.25213689  0.60233004  1
  P  P207  1  0.54252143  0.25118727  0.85414750  1
  P  P208  1  0.54123598  0.58361863  0.10160851  1
  P  P209  1  0.54248695  0.58229876  0.35240209  1
  P  P210  1  0.54263885  0.58550693  0.60266631  1
  P  P211  1  0.54220063  0.58381779  0.85461631  1
  P  P212  1  0.54267436  0.91527630  0.10190055  1
  P  P213  1  0.54321207  0.91575578  0.35335482  1
  P  P214  1  0.54212500  0.91514718  0.60255994  1
  P  P215  1  0.54186081  0.91459551  0.85272426  1
  P  P216  1  0.45747733  0.08341396  0.14625055  1
  P  P217  1  0.45733991  0.08334000  0.39636447  1
  P  P218  1  0.45705630  0.08381233  0.64653670  1
  P  P219  1  0.45663879  0.08329069  0.89636105  1
  P  P220  1  0.45797738  0.41895263  0.14674239  1
  P  P221  1  0.45725710  0.41626658  0.39740777  1
  P  P222  1  0.45631622  0.41751226  0.64685562  1
  P  P223  1  0.45786078  0.41732257  0.89924844  1
  P  P224  1  0.45738279  0.74986097  0.14552406  1
  P  P225  1  0.45841779  0.74958676  0.39852325  1
  P  P226  1  0.45773533  0.75159120  0.64695051  1
  P  P227  1  0.45833663  0.75061855  0.89832601  1
  P  P228  1  0.95839058  0.08113681  0.14721521  1
  P  P229  1  0.95928402  0.08199626  0.39838033  1
  P  P230  1  0.95792481  0.08131861  0.64683280  1
  P  P231  1  0.95867899  0.08189274  0.89880379  1
  P  P232  1  0.95877270  0.41560058  0.14896220  1
  P  P233  1  0.95763716  0.41636461  0.39565615  1
  P  P234  1  0.95745860  0.41791622  0.64750935  1
  P  P235  1  0.95680517  0.41707073  0.89648113  1
  P  P236  1  0.95922897  0.74987940  0.14869135  1
  P  P237  1  0.95866137  0.74850111  0.39663688  1
  P  P238  1  0.95855623  0.75032489  0.64838893  1
  P  P239  1  0.95761556  0.75024453  0.89614935  1
  P  P240  1  0.20875899  0.08349714  0.22624294  1
  P  P241  1  0.20843035  0.08349790  0.47624158  1
  P  P242  1  0.20796498  0.08401745  0.72608190  1
  P  P243  1  0.20792431  0.08539443  0.97775758  1
  P  P244  1  0.20757435  0.41501629  0.22721617  1
  P  P245  1  0.20662274  0.41667461  0.47854780  1
  P  P246  1  0.20697191  0.41653020  0.72975295  1
  P  P247  1  0.20835414  0.41637048  0.97690135  1
  P  P248  1  0.20784041  0.74931883  0.22688445  1
  P  P249  1  0.20695864  0.75075080  0.47825391  1
  P  P250  1  0.20790703  0.74881114  0.72775571  1
  P  P251  1  0.20719388  0.74924762  0.97735171  1
  P  P252  1  0.70893511  0.08305699  0.22722414  1
  P  P253  1  0.70799940  0.08360087  0.47744698  1
  P  P254  1  0.70711130  0.08215885  0.72892876  1
  P  P255  1  0.70810691  0.08108329  0.97903061  1
  P  P256  1  0.70834553  0.41695438  0.22771425  1
  P  P257  1  0.70803091  0.41562670  0.47700949  1
  P  P258  1  0.70703197  0.41714622  0.72858714  1
  P  P259  1  0.70794687  0.41685325  0.97951392  1
  P  P260  1  0.70869773  0.75024279  0.22621418  1
  P  P261  1  0.70839986  0.75192681  0.47727168  1
  P  P262  1  0.70822727  0.75175322  0.72859106  1
  P  P263  1  0.70941190  0.74974762  0.97756684  1
  P  P264  1  0.29103144  0.25059265  0.02290208  1
  P  P265  1  0.29188557  0.24856873  0.27159970  1
  P  P266  1  0.29177664  0.24840509  0.52239227  1
  P  P267  1  0.29125872  0.24979062  0.77354248  1
  P  P268  1  0.29115530  0.58480476  0.02154221  1
  P  P269  1  0.29272383  0.58329106  0.27117469  1
  P  P270  1  0.29212683  0.58475350  0.52316697  1
  P  P271  1  0.29095657  0.58399027  0.77385518  1
  P  P272  1  0.29195422  0.91852141  0.02187628  1
  P  P273  1  0.29202053  0.91852655  0.27142250  1
  P  P274  1  0.29171311  0.91898233  0.52157694  1
  P  P275  1  0.29233415  0.91751192  0.77057019  1
  P  P276  1  0.79302016  0.24748713  0.02324849  1
  P  P277  1  0.79169852  0.24869646  0.27339840  1
  P  P278  1  0.79266365  0.24953699  0.52100903  1
  P  P279  1  0.79355692  0.24939925  0.77245778  1
  P  P280  1  0.79178802  0.58361032  0.02369244  1
  P  P281  1  0.79250726  0.58347065  0.27025430  1
  P  P282  1  0.79320513  0.58374701  0.52153679  1
  P  P283  1  0.79222826  0.58547441  0.77284895  1
  P  P284  1  0.79150056  0.91592389  0.02341749  1
  P  P285  1  0.79238114  0.91494607  0.27158383  1
  P  P286  1  0.79277612  0.91479731  0.52247817  1
  P  P287  1  0.79126271  0.91631052  0.77410238  1
  O  O288  1  0.03645282  0.24887377  0.18287582  1
  O  O289  1  0.03717645  0.24945231  0.43267031  1
  O  O290  1  0.03708253  0.24821208  0.68231765  1
  O  O291  1  0.03667743  0.24823665  0.93372751  1
  O  O292  1  0.03759469  0.58304072  0.18398319  1
  O  O293  1  0.03694502  0.58389780  0.43142763  1
  O  O294  1  0.03555051  0.58460402  0.68286701  1
  O  O295  1  0.03629421  0.58318457  0.93132945  1
  O  O296  1  0.03699182  0.91714328  0.18308333  1
  O  O297  1  0.03683914  0.91675747  0.43168075  1
  O  O298  1  0.03716342  0.91750944  0.68288838  1
  O  O299  1  0.03684786  0.91730042  0.93158758  1
  O  O300  1  0.53745303  0.25157889  0.18251679  1
  O  O301  1  0.53765839  0.25138766  0.43336268  1
  O  O302  1  0.53717520  0.25170033  0.68236679  1
  O  O303  1  0.53718505  0.25160527  0.93412802  1
  O  O304  1  0.53637798  0.58316540  0.18159663  1
  O  O305  1  0.53746988  0.58309255  0.43233874  1
  O  O306  1  0.53750883  0.58540753  0.68266503  1
  O  O307  1  0.53676550  0.58382419  0.93451971  1
  O  O308  1  0.53794583  0.91543508  0.18191714  1
  O  O309  1  0.53796942  0.91543381  0.43331730  1
  O  O310  1  0.53666741  0.91504514  0.68250312  1
  O  O311  1  0.53654889  0.91442391  0.93268369  1
  O  O312  1  0.46226794  0.08343235  0.06622801  1
  O  O313  1  0.46268986  0.08324265  0.31640835  1
  O  O314  1  0.46222601  0.08389163  0.56656457  1
  O  O315  1  0.46181279  0.08329854  0.81639660  1
  O  O316  1  0.46345602  0.41859512  0.06685292  1
  O  O317  1  0.46257543  0.41706504  0.31745851  1
  O  O318  1  0.46132134  0.41697629  0.56686377  1
  O  O319  1  0.46241475  0.41743545  0.81921229  1
  O  O320  1  0.46265038  0.75001040  0.06560426  1
  O  O321  1  0.46328155  0.74921598  0.31848328  1
  O  O322  1  0.46317881  0.75111120  0.56707956  1
  O  O323  1  0.46331309  0.75110144  0.81832054  1
  O  O324  1  0.96385282  0.08152702  0.06738192  1
  O  O325  1  0.96396127  0.08190555  0.31838616  1
  O  O326  1  0.96357932  0.08166097  0.56698572  1
  O  O327  1  0.96331796  0.08180838  0.81878413  1
  O  O328  1  0.96309807  0.41580269  0.06886927  1
  O  O329  1  0.96333827  0.41580576  0.31578752  1
  O  O330  1  0.96264325  0.41776922  0.56751659  1
  O  O331  1  0.96202458  0.41780239  0.81652602  1
  O  O332  1  0.96368899  0.75037426  0.06866998  1
  O  O333  1  0.96440303  0.74869360  0.31681386  1
  O  O334  1  0.96341525  0.75050096  0.56840856  1
  O  O335  1  0.96287454  0.75017890  0.81627498  1
  O  O336  1  0.21350837  0.08497054  0.05757683  1
  O  O337  1  0.21399404  0.08320899  0.30613324  1
  O  O338  1  0.21355828  0.08343439  0.55613335  1
  O  O339  1  0.21277986  0.08420609  0.80600792  1
  O  O340  1  0.21318279  0.41630081  0.05692058  1
  O  O341  1  0.21250519  0.41520293  0.30718729  1
  O  O342  1  0.21154195  0.41689650  0.55856298  1
  O  O343  1  0.21253141  0.41648831  0.80965019  1
  O  O344  1  0.21246131  0.74913519  0.05732692  1
  O  O345  1  0.21285491  0.74974110  0.30682817  1
  O  O346  1  0.21196030  0.75049189  0.55822782  1
  O  O347  1  0.21330700  0.74868357  0.80771151  1
  O  O348  1  0.71349454  0.08153849  0.05891650  1
  O  O349  1  0.71387109  0.08334966  0.30721586  1
  O  O350  1  0.71273414  0.08318409  0.55744728  1
  O  O351  1  0.71217967  0.08156620  0.80892513  1
  O  O352  1  0.71357694  0.41718391  0.05944813  1
  O  O353  1  0.71361129  0.41638209  0.30766827  1
  O  O354  1  0.71279166  0.41587701  0.55702498  1
  O  O355  1  0.71212027  0.41721112  0.80861914  1
  O  O356  1  0.71433462  0.74984104  0.05745528  1
  O  O357  1  0.71349037  0.75031270  0.30617024  1
  O  O358  1  0.71362267  0.75221637  0.55721824  1
  O  O359  1  0.71349481  0.75111890  0.80846131  1
  O  O360  1  0.28652536  0.24915418  0.19171905  1
  O  O361  1  0.28665468  0.24825544  0.44243598  1
  O  O362  1  0.28608960  0.24929985  0.69361338  1
  O  O363  1  0.28581999  0.25111582  0.94303963  1
  O  O364  1  0.28721878  0.58358052  0.19121118  1
  O  O365  1  0.28730271  0.58434398  0.44318056  1
  O  O366  1  0.28635057  0.58413767  0.69385025  1
  O  O367  1  0.28565245  0.58474194  0.94167961  1
  O  O368  1  0.28684843  0.91838124  0.19144425  1
  O  O369  1  0.28645337  0.91911829  0.44160052  1
  O  O370  1  0.28687246  0.91777679  0.69063841  1
  O  O371  1  0.28680351  0.91812147  0.94191206  1
  O  O372  1  0.78689549  0.24833329  0.19337688  1
  O  O373  1  0.78718063  0.24957189  0.44105397  1
  O  O374  1  0.78839424  0.24945535  0.69245349  1
  O  O375  1  0.78798711  0.24784263  0.94330909  1
  O  O376  1  0.78694456  0.58334420  0.19035799  1
  O  O377  1  0.78830622  0.58372259  0.44151655  1
  O  O378  1  0.78720396  0.58535033  0.69288598  1
  O  O379  1  0.78687390  0.58426064  0.94366066  1
  O  O380  1  0.78688306  0.91519249  0.19175098  1
  O  O381  1  0.78773402  0.91484040  0.44251508  1
  O  O382  1  0.78666804  0.91556496  0.69412517  1
  O  O383  1  0.78636741  0.91642489  0.94353654  1
  O  O384  1  0.22704730  0.24985525  0.05938900  1
  O  O385  1  0.22774160  0.24793361  0.30779807  1
  O  O386  1  0.22745408  0.24799177  0.55808375  1
  O  O387  1  0.22710159  0.25034928  0.80969140  1
  O  O388  1  0.22716140  0.58460215  0.05795073  1
  O  O389  1  0.22839330  0.58331430  0.30662707  1
  O  O390  1  0.22768057  0.58523674  0.55846099  1
  O  O391  1  0.22669295  0.58400823  0.80945914  1
  O  O392  1  0.22769509  0.91859240  0.05749525  1
  O  O393  1  0.22771545  0.91875080  0.30709230  1
  O  O394  1  0.22752518  0.91863977  0.55745747  1
  O  O395  1  0.22808705  0.91740384  0.80614930  1
  O  O396  1  0.72868037  0.24760852  0.05873687  1
  O  O397  1  0.72753897  0.24838404  0.30928977  1
  O  O398  1  0.72845271  0.24953629  0.55684488  1
  O  O399  1  0.72911798  0.24904673  0.80750617  1
  O  O400  1  0.72756760  0.58327511  0.05941027  1
  O  O401  1  0.72845271  0.58349847  0.30630245  1
  O  O402  1  0.72872220  0.58406658  0.55646025  1
  O  O403  1  0.72794426  0.58593927  0.80852046  1
  O  O404  1  0.72750033  0.91511003  0.05976483  1
  O  O405  1  0.72832523  0.91489422  0.30790797  1
  O  O406  1  0.72842664  0.91427089  0.55815816  1
  O  O407  1  0.72708987  0.91697974  0.80996677  1
  O  O408  1  0.27273401  0.08388586  0.18967834  1
  O  O409  1  0.27249111  0.08371375  0.43975623  1
  O  O410  1  0.27217147  0.08418508  0.69010216  1
  O  O411  1  0.27196356  0.08584054  0.94134287  1
  O  O412  1  0.27188046  0.41534039  0.19173934  1
  O  O413  1  0.27107236  0.41624055  0.44350711  1
  O  O414  1  0.27106655  0.41641581  0.69373308  1
  O  O415  1  0.27246700  0.41615650  0.94096593  1
  O  O416  1  0.27207182  0.74961658  0.19126719  1
  O  O417  1  0.27140366  0.75117561  0.44316186  1
  O  O418  1  0.27201978  0.74910375  0.69168029  1
  O  O419  1  0.27150501  0.74915503  0.94173231  1
  O  O420  1  0.77309957  0.08331125  0.19132567  1
  O  O421  1  0.77240545  0.08395393  0.44213760  1
  O  O422  1  0.77153756  0.08214124  0.69376133  1
  O  O423  1  0.77226435  0.08033517  0.94287293  1
  O  O424  1  0.77257802  0.41713601  0.19197719  1
  O  O425  1  0.77238481  0.41529623  0.44170059  1
  O  O426  1  0.77152386  0.41710187  0.69360650  1
  O  O427  1  0.77210250  0.41719848  0.94374529  1
  O  O428  1  0.77297865  0.75058954  0.19046833  1
  O  O429  1  0.77266837  0.75182954  0.44142864  1
  O  O430  1  0.77244788  0.75196269  0.69247242  1
  O  O431  1  0.77342533  0.74941612  0.94130465  1
  O  O432  1  0.02248845  0.08086667  0.18340416  1
  O  O433  1  0.02346605  0.08161518  0.43414302  1
  O  O434  1  0.02206544  0.08075129  0.68305024  1
  O  O435  1  0.02292619  0.08170885  0.93450410  1
  O  O436  1  0.02308666  0.41500006  0.18429770  1
  O  O437  1  0.02166449  0.41662204  0.43179903  1
  O  O438  1  0.02171574  0.41804741  0.68312867  1
  O  O439  1  0.02115500  0.41631143  0.93179570  1
  O  O440  1  0.02345354  0.74934781  0.18421579  1
  O  O441  1  0.02259312  0.74855776  0.43330074  1
  O  O442  1  0.02264222  0.74958738  0.68439237  1
  O  O443  1  0.02185399  0.75022909  0.93183153  1
  O  O444  1  0.52203612  0.08346142  0.18097160  1
  O  O445  1  0.52168729  0.08341987  0.43154691  1
  O  O446  1  0.52146387  0.08343398  0.68162545  1
  O  O447  1  0.52105717  0.08324809  0.93139126  1
  O  O448  1  0.52213001  0.41924265  0.18286325  1
  O  O449  1  0.52151474  0.41583498  0.43326022  1
  O  O450  1  0.52084535  0.41786305  0.68174316  1
  O  O451  1  0.52216198  0.41716585  0.93476862  1
  O  O452  1  0.52170364  0.74946496  0.18098329  1
  O  O453  1  0.52268076  0.74945410  0.43419466  1
  O  O454  1  0.52192182  0.75206084  0.68309301  1
  O  O455  1  0.52256414  0.75010284  0.93418964  1
  O  O456  1  0.47797290  0.25240587  0.06732766  1
  O  O457  1  0.47860515  0.25080503  0.31810096  1
  O  O458  1  0.47783215  0.25247537  0.56695736  1
  O  O459  1  0.47815346  0.25082772  0.81887815  1
  O  O460  1  0.47710403  0.58422964  0.06566210  1
  O  O461  1  0.47808035  0.58194607  0.31691276  1
  O  O462  1  0.47825650  0.58552112  0.56729113  1
  O  O463  1  0.47796134  0.58431496  0.81886298  1
  O  O464  1  0.47818954  0.91480072  0.06687591  1
  O  O465  1  0.47881830  0.91621643  0.31815899  1
  O  O466  1  0.47794023  0.91521745  0.56667641  1
  O  O467  1  0.47766070  0.91457601  0.81683463  1
  O  O468  1  0.97731141  0.24794125  0.06724024  1
  O  O469  1  0.97801719  0.25057030  0.31708172  1
  O  O470  1  0.97767771  0.24845029  0.56694743  1
  O  O471  1  0.97812597  0.24907618  0.81808512  1
  O  O472  1  0.97818593  0.58323976  0.06875399  1
  O  O473  1  0.97780817  0.58390631  0.31534229  1
  O  O474  1  0.97745995  0.58540968  0.56639981  1
  O  O475  1  0.97663302  0.58395659  0.81571769  1
  O  O476  1  0.97799646  0.91819841  0.06720569  1
  O  O477  1  0.97748465  0.91710859  0.31589073  1
  O  O478  1  0.97821402  0.91760853  0.56691983  1
  O  O479  1  0.97727778  0.91753092  0.81585366  1
  O  O480  1  0.07272806  0.31169248  0.07468299  1
  O  O481  1  0.07329868  0.31345918  0.32430091  1
  O  O482  1  0.07323622  0.31202410  0.57488945  1
  O  O483  1  0.07332932  0.31246285  0.82603093  1
  O  O484  1  0.07369387  0.64632095  0.07525280  1
  O  O485  1  0.07351541  0.64659218  0.32309096  1
  O  O486  1  0.07240614  0.64853769  0.57453634  1
  O  O487  1  0.07205700  0.64689394  0.82334684  1
  O  O488  1  0.07356031  0.98050859  0.07431548  1
  O  O489  1  0.07297394  0.98001657  0.32331119  1
  O  O490  1  0.07334111  0.98070951  0.57386924  1
  O  O491  1  0.07282499  0.98051293  0.82326103  1
  O  O492  1  0.57329641  0.31547213  0.07445173  1
  O  O493  1  0.57428331  0.31393043  0.32482966  1
  O  O494  1  0.57292848  0.31571496  0.57401559  1
  O  O495  1  0.57364326  0.31448804  0.82572162  1
  O  O496  1  0.57236437  0.64722601  0.07362838  1
  O  O497  1  0.57363797  0.64561384  0.32378436  1
  O  O498  1  0.57335237  0.64898134  0.57409509  1
  O  O499  1  0.57368234  0.64705672  0.82630016  1
  O  O500  1  0.57331486  0.97905222  0.07394878  1
  O  O501  1  0.57438365  0.97925107  0.32520463  1
  O  O502  1  0.57326744  0.97894867  0.57509377  1
  O  O503  1  0.57269882  0.97851931  0.82517350  1
  O  O504  1  0.42671060  0.01979598  0.17437065  1
  O  O505  1  0.42624976  0.01990788  0.42444998  1
  O  O506  1  0.42589305  0.02032217  0.67437649  1
  O  O507  1  0.42561737  0.01971248  0.92422125  1
  O  O508  1  0.42688786  0.35535913  0.17484868  1
  O  O509  1  0.42654999  0.35252035  0.42549426  1
  O  O510  1  0.42520877  0.35436961  0.67573024  1
  O  O511  1  0.42711003  0.35370359  0.92758005  1
  O  O512  1  0.42603522  0.68663100  0.17402069  1
  O  O513  1  0.42763795  0.68597295  0.42684068  1
  O  O514  1  0.42688959  0.68803417  0.67561681  1
  O  O515  1  0.42740780  0.68685276  0.92613223  1
  O  O516  1  0.92719001  0.01795848  0.17598903  1
  O  O517  1  0.92771702  0.01883132  0.42658380  1
  O  O518  1  0.92664873  0.01813593  0.67561098  1
  O  O519  1  0.92753411  0.01854079  0.92717825  1
  O  O520  1  0.92749589  0.35213631  0.17684493  1
  O  O521  1  0.92637246  0.35319095  0.42442708  1
  O  O522  1  0.92650472  0.35415905  0.67512359  1
  O  O523  1  0.92554834  0.35352466  0.92434410  1
  O  O524  1  0.92797850  0.68641766  0.17645475  1
  O  O525  1  0.92772175  0.68514332  0.42540081  1
  O  O526  1  0.92677417  0.68731087  0.67652883  1
  O  O527  1  0.92640621  0.68704304  0.92494155  1
  O  O528  1  0.17809807  0.01981978  0.19756338  1
  O  O529  1  0.17763165  0.01989237  0.44764085  1
  O  O530  1  0.17764015  0.02007131  0.69763864  1
  O  O531  1  0.17694849  0.02182964  0.94940468  1
  O  O532  1  0.17715750  0.35131048  0.19871311  1
  O  O533  1  0.17546982  0.35318917  0.45065460  1
  O  O534  1  0.17555408  0.35325403  0.70143709  1
  O  O535  1  0.17690697  0.35313367  0.94876999  1
  O  O536  1  0.17748565  0.68550665  0.19857681  1
  O  O537  1  0.17598316  0.68744041  0.44970297  1
  O  O538  1  0.17721539  0.68533756  0.69912690  1
  O  O539  1  0.17602861  0.68611255  0.94858093  1
  O  O540  1  0.67878297  0.01882554  0.19917719  1
  O  O541  1  0.67734749  0.01978988  0.44942900  1
  O  O542  1  0.67588206  0.01902835  0.70016230  1
  O  O543  1  0.67686503  0.01778620  0.95050056  1
  O  O544  1  0.67706048  0.35347941  0.19987275  1
  O  O545  1  0.67741159  0.35213629  0.44822949  1
  O  O546  1  0.67606872  0.35366412  0.70045434  1
  O  O547  1  0.67730777  0.35290715  0.95185778  1
  O  O548  1  0.67854093  0.68615899  0.19775585  1
  O  O549  1  0.67756035  0.68794411  0.44979896  1
  O  O550  1  0.67702278  0.68841425  0.69994850  1
  O  O551  1  0.67815847  0.68638274  0.94923267  1
  O  O552  1  0.32129528  0.31450214  0.05176081  1
  O  O553  1  0.32280608  0.31211841  0.30008805  1
  O  O554  1  0.32224619  0.31237656  0.55033203  1
  O  O555  1  0.32235519  0.31336909  0.80163118  1
  O  O556  1  0.32189855  0.64830825  0.05028857  1
  O  O557  1  0.32412826  0.64648703  0.29948957  1
  O  O558  1  0.32283843  0.64834919  0.55157921  1
  O  O559  1  0.32218819  0.64732773  0.80214415  1
  O  O560  1  0.32269373  0.98215109  0.04995520  1
  O  O561  1  0.32308125  0.98174899  0.30005105  1
  O  O562  1  0.32250039  0.98232946  0.55035487  1
  O  O563  1  0.32363672  0.98075513  0.79878628  1
  O  O564  1  0.82418435  0.31104736  0.05111339  1
  O  O565  1  0.82170855  0.31303565  0.30128161  1
  O  O566  1  0.82392752  0.31287304  0.54942393  1
  O  O567  1  0.82427503  0.31301515  0.80062297  1
  O  O568  1  0.82250554  0.64726627  0.05223638  1
  O  O569  1  0.82369954  0.64696320  0.29839464  1
  O  O570  1  0.82424774  0.64723332  0.54958620  1
  O  O571  1  0.82320393  0.64883370  0.80131543  1
  O  O572  1  0.82172088  0.97965226  0.05260085  1
  O  O573  1  0.82356417  0.97846590  0.29980568  1
  O  O574  1  0.82305397  0.97894429  0.55036427  1
  O  O575  1  0.82239573  0.97983981  0.80209924  1
  O  O576  1  0.42654889  0.14697502  0.17432103  1
  O  O577  1  0.42619617  0.14683308  0.42427468  1
  O  O578  1  0.42629452  0.14741856  0.67477780  1
  O  O579  1  0.42561690  0.14672970  0.92459417  1
  O  O580  1  0.42701276  0.48234593  0.17539335  1
  O  O581  1  0.42605599  0.47965074  0.42570364  1
  O  O582  1  0.42549447  0.48124375  0.67502454  1
  O  O583  1  0.42727004  0.48118612  0.92731410  1
  O  O584  1  0.42638652  0.81323358  0.17429872  1
  O  O585  1  0.42778870  0.81355046  0.42624256  1
  O  O586  1  0.42647587  0.81484888  0.67549208  1
  O  O587  1  0.42756849  0.81417109  0.92680931  1
  O  O588  1  0.92733787  0.14469544  0.17560295  1
  O  O589  1  0.92930332  0.14626224  0.42671209  1
  O  O590  1  0.92692015  0.14490869  0.67513699  1
  O  O591  1  0.92839312  0.14585126  0.92731329  1
  O  O592  1  0.92878587  0.47975950  0.17729656  1
  O  O593  1  0.92628935  0.47995950  0.42335942  1
  O  O594  1  0.92668359  0.48156628  0.67573887  1
  O  O595  1  0.92589709  0.48033114  0.92547001  1
  O  O596  1  0.92909548  0.81387797  0.17725444  1
  O  O597  1  0.92740135  0.81207735  0.42460790  1
  O  O598  1  0.92870366  0.81458867  0.67696196  1
  O  O599  1  0.92661482  0.81373703  0.92465804  1
  O  O600  1  0.07217558  0.18453610  0.07465146  1
  O  O601  1  0.07312664  0.18641568  0.32440462  1
  O  O602  1  0.07228866  0.18471436  0.57339060  1
  O  O603  1  0.07358561  0.18560015  0.82536225  1
  O  O604  1  0.07351350  0.51956922  0.07542217  1
  O  O605  1  0.07190648  0.51920104  0.32339192  1
  O  O606  1  0.07269241  0.52155393  0.57489135  1
  O  O607  1  0.07114258  0.51942808  0.82294766  1
  O  O608  1  0.07283863  0.85371792  0.07471593  1
  O  O609  1  0.07189970  0.85270996  0.32332461  1
  O  O610  1  0.07345415  0.85391119  0.57487161  1
  O  O611  1  0.07174120  0.85320764  0.82309515  1
  O  O612  1  0.57319173  0.18814154  0.07462938  1
  O  O613  1  0.57383316  0.18711681  0.32544412  1
  O  O614  1  0.57316543  0.18834912  0.57459926  1
  O  O615  1  0.57363992  0.18753496  0.82626034  1
  O  O616  1  0.57187688  0.51997250  0.07315687  1
  O  O617  1  0.57299265  0.51855068  0.32397836  1
  O  O618  1  0.57368047  0.52185817  0.57488199  1
  O  O619  1  0.57308011  0.52031343  0.82609210  1
  O  O620  1  0.57353788  0.85180512  0.07341892  1
  O  O621  1  0.57414898  0.85234769  0.32486875  1
  O  O622  1  0.57309920  0.85189609  0.57376680  1
  O  O623  1  0.57288065  0.85133186  0.82411366  1
  O  O624  1  0.32268826  0.18735596  0.05094396  1
  O  O625  1  0.32302585  0.18516025  0.29999102  1
  O  O626  1  0.32303893  0.18531494  0.55111469  1
  O  O627  1  0.32179311  0.18610904  0.80213839  1
  O  O628  1  0.32261664  0.52127078  0.04923480  1
  O  O629  1  0.32347855  0.51954144  0.29924942  1
  O  O630  1  0.32287642  0.52108266  0.55131135  1
  O  O631  1  0.32125504  0.51996006  0.80233242  1
  O  O632  1  0.32306155  0.85490941  0.04968076  1
  O  O633  1  0.32285424  0.85467663  0.29937450  1
  O  O634  1  0.32293276  0.85527113  0.54910139  1
  O  O635  1  0.32332445  0.85389983  0.79870026  1
  O  O636  1  0.82354034  0.18382363  0.05161128  1
  O  O637  1  0.82318664  0.18552873  0.30185288  1
  O  O638  1  0.82385699  0.18610545  0.54937498  1
  O  O639  1  0.82481287  0.18593543  0.80040123  1
  O  O640  1  0.82272537  0.51986178  0.05165592  1
  O  O641  1  0.82397963  0.52024710  0.29853549  1
  O  O642  1  0.82394819  0.52016302  0.54980402  1
  O  O643  1  0.82291889  0.52164991  0.80070996  1
  O  O644  1  0.82324004  0.85255286  0.05118275  1
  O  O645  1  0.82329112  0.85151676  0.30017522  1
  O  O646  1  0.82414078  0.85189543  0.55147765  1
  O  O647  1  0.82169766  0.85267339  0.80316738  1
  O  O648  1  0.17742542  0.14698172  0.19824148  1
  O  O649  1  0.17743376  0.14696422  0.44762968  1
  O  O650  1  0.17682898  0.14742699  0.69776899  1
  O  O651  1  0.17683488  0.14879051  0.94926432  1
  O  O652  1  0.17623226  0.47842070  0.19932731  1
  O  O653  1  0.17596199  0.48029484  0.45011969  1
  O  O654  1  0.17581720  0.48000444  0.70146964  1
  O  O655  1  0.17804905  0.48050926  0.94872585  1
  O  O656  1  0.17642242  0.81279775  0.19915844  1
  O  O657  1  0.17588396  0.81430628  0.45004443  1
  O  O658  1  0.17662195  0.81251134  0.70040793  1
  O  O659  1  0.17640965  0.81320923  0.94964488  1
  O  O660  1  0.67750245  0.14619625  0.19866883  1
  O  O661  1  0.67703061  0.14696439  0.44902391  1
  O  O662  1  0.67623434  0.14588201  0.70099931  1
  O  O663  1  0.67721211  0.14471617  0.95068408  1
  O  O664  1  0.67762691  0.48062789  0.19936174  1
  O  O665  1  0.67704196  0.47938089  0.44933304  1
  O  O666  1  0.67618741  0.48078684  0.70041622  1
  O  O667  1  0.67620940  0.47991581  0.95137909  1
  O  O668  1  0.67726989  0.81334848  0.19775987  1
  O  O669  1  0.67742793  0.81500613  0.44817429  1
  O  O670  1  0.67748858  0.81527825  0.69992534  1
  O  O671  1  0.67888295  0.81356051  0.94896190  1
