# generated using pymatgen
data_Na2MnFe(PO4)2
_symmetry_space_group_name_H-M   'P 1'
_cell_length_a   22.34551660
_cell_length_b   20.09732703
_cell_length_c   19.44646206
_cell_angle_alpha   90.07877023
_cell_angle_beta   90.02881868
_cell_angle_gamma   89.97411421
_symmetry_Int_Tables_number   1
_chemical_formula_structural   Na2MnFe(PO4)2
_chemical_formula_sum   'Na96 Mn48 Fe48 P96 O384'
_cell_volume   8733.10718064
_cell_formula_units_Z   48
loop_
 _symmetry_equiv_pos_site_id
 _symmetry_equiv_pos_as_xyz
  1  'x, y, z'
loop_
 _atom_site_type_symbol
 _atom_site_label
 _atom_site_symmetry_multiplicity
 _atom_site_fract_x
 _atom_site_fract_y
 _atom_site_fract_z
 _atom_site_occupancy
  Na  Na0  1  0.14066325  0.25088067  0.24469817  1
  Na  Na1  1  0.14067405  0.25049707  0.49241256  1
  Na  Na2  1  0.14053233  0.24974700  0.74398755  1
  Na  Na3  1  0.13993580  0.25036771  0.99422368  1
  Na  Na4  1  0.13994808  0.58241812  0.24357560  1
  Na  Na5  1  0.14050735  0.58212393  0.49234219  1
  Na  Na6  1  0.14028039  0.58203517  0.74381218  1
  Na  Na7  1  0.14020455  0.58197642  0.99411137  1
  Na  Na8  1  0.13999516  0.91742005  0.24454639  1
  Na  Na9  1  0.14034353  0.91708061  0.49254173  1
  Na  Na10  1  0.14046793  0.91633001  0.74385454  1
  Na  Na11  1  0.14044656  0.91551636  0.99485513  1
  Na  Na12  1  0.64094146  0.25121273  0.24389462  1
  Na  Na13  1  0.64023420  0.24980526  0.49385940  1
  Na  Na14  1  0.64012740  0.25071554  0.74498603  1
  Na  Na15  1  0.64046913  0.25046132  0.99442779  1
  Na  Na16  1  0.63973188  0.58322228  0.24283749  1
  Na  Na17  1  0.64003812  0.58464207  0.49284099  1
  Na  Na18  1  0.64013049  0.58214433  0.74289865  1
  Na  Na19  1  0.63975177  0.58132191  0.99336553  1
  Na  Na20  1  0.63935743  0.91782503  0.24378379  1
  Na  Na21  1  0.63991941  0.91599944  0.49178931  1
  Na  Na22  1  0.64018597  0.91533800  0.74326822  1
  Na  Na23  1  0.64008831  0.91712747  0.99437327  1
  Na  Na24  1  0.36009030  0.08358522  0.00726324  1
  Na  Na25  1  0.35980404  0.08397615  0.25766688  1
  Na  Na26  1  0.35991708  0.08424032  0.50654967  1
  Na  Na27  1  0.35938834  0.08370864  0.75550332  1
  Na  Na28  1  0.35970288  0.41666294  0.00613364  1
  Na  Na29  1  0.35945040  0.41730441  0.25599088  1
  Na  Na30  1  0.35979100  0.41712649  0.50501370  1
  Na  Na31  1  0.35987562  0.41735771  0.75628674  1
  Na  Na32  1  0.35975193  0.74827753  0.00616593  1
  Na  Na33  1  0.36006374  0.74994436  0.25868506  1
  Na  Na34  1  0.36021429  0.75033448  0.50634226  1
  Na  Na35  1  0.36027265  0.74997295  0.75592562  1
  Na  Na36  1  0.85988673  0.08459631  0.00736548  1
  Na  Na37  1  0.85932979  0.08420687  0.25696465  1
  Na  Na38  1  0.85939880  0.08408531  0.50574609  1
  Na  Na39  1  0.85962313  0.08429455  0.75569529  1
  Na  Na40  1  0.85965034  0.41557390  0.00636554  1
  Na  Na41  1  0.85987461  0.41829183  0.25590578  1
  Na  Na42  1  0.86003597  0.41736969  0.50603817  1
  Na  Na43  1  0.86009637  0.41624526  0.75573195  1
  Na  Na44  1  0.85966808  0.74839223  0.00675634  1
  Na  Na45  1  0.85953937  0.75109458  0.25761981  1
  Na  Na46  1  0.85972837  0.75040474  0.50465700  1
  Na  Na47  1  0.85935985  0.74779230  0.75585218  1
  Na  Na48  1  0.10919009  0.08337628  0.12013593  1
  Na  Na49  1  0.10974972  0.08347699  0.36862271  1
  Na  Na50  1  0.10968107  0.08285517  0.61709904  1
  Na  Na51  1  0.10938976  0.08378755  0.86945729  1
  Na  Na52  1  0.11009868  0.41703355  0.11844653  1
  Na  Na53  1  0.11019405  0.41748593  0.36823653  1
  Na  Na54  1  0.11005556  0.41570401  0.61764796  1
  Na  Na55  1  0.10996711  0.41522061  0.86916318  1
  Na  Na56  1  0.10942377  0.74974285  0.12029043  1
  Na  Na57  1  0.10896529  0.75033841  0.36764164  1
  Na  Na58  1  0.10946386  0.74900902  0.61855727  1
  Na  Na59  1  0.10956940  0.74772944  0.86939593  1
  Na  Na60  1  0.60942310  0.08321090  0.11925950  1
  Na  Na61  1  0.60946913  0.08230915  0.36876286  1
  Na  Na62  1  0.60917555  0.08240989  0.61795450  1
  Na  Na63  1  0.60940472  0.08272815  0.87044348  1
  Na  Na64  1  0.61011917  0.41665587  0.11805657  1
  Na  Na65  1  0.60982701  0.41711671  0.36797357  1
  Na  Na66  1  0.60953131  0.41716190  0.61889769  1
  Na  Na67  1  0.61006256  0.41765527  0.86850612  1
  Na  Na68  1  0.60909977  0.75000714  0.12007358  1
  Na  Na69  1  0.60911273  0.75019604  0.36744470  1
  Na  Na70  1  0.60963305  0.75036818  0.61771160  1
  Na  Na71  1  0.60914262  0.74911056  0.86779578  1
  Na  Na72  1  0.39021457  0.24999094  0.13201610  1
  Na  Na73  1  0.39015271  0.24999479  0.38204754  1
  Na  Na74  1  0.39028406  0.25066196  0.63086856  1
  Na  Na75  1  0.39031909  0.25037379  0.88204719  1
  Na  Na76  1  0.39052140  0.58312543  0.13233327  1
  Na  Na77  1  0.39010158  0.58440426  0.38153881  1
  Na  Na78  1  0.39094805  0.58489659  0.63070818  1
  Na  Na79  1  0.39059715  0.58381850  0.88067067  1
  Na  Na80  1  0.39094557  0.91632786  0.13214690  1
  Na  Na81  1  0.39067193  0.91729497  0.38249363  1
  Na  Na82  1  0.39045913  0.91632248  0.63023064  1
  Na  Na83  1  0.39072759  0.91642962  0.88047197  1
  Na  Na84  1  0.89009543  0.25042847  0.13168310  1
  Na  Na85  1  0.89047734  0.25166931  0.38189177  1
  Na  Na86  1  0.89048473  0.25130407  0.63018590  1
  Na  Na87  1  0.89012682  0.25021064  0.88216990  1
  Na  Na88  1  0.89055126  0.58376283  0.13152678  1
  Na  Na89  1  0.89025251  0.58398269  0.38090927  1
  Na  Na90  1  0.89023142  0.58278478  0.63042722  1
  Na  Na91  1  0.89032480  0.58109734  0.88107421  1
  Na  Na92  1  0.89089373  0.91595408  0.13231423  1
  Na  Na93  1  0.88992071  0.91749021  0.38128163  1
  Na  Na94  1  0.89037360  0.91616420  0.62932770  1
  Na  Na95  1  0.89060561  0.91609327  0.88146035  1
  Mn  Mn96  1  0.74976892  0.49967521  0.62434312  1
  Mn  Mn97  1  0.24998059  0.66627077  0.62452472  1
  Mn  Mn98  1  0.74992268  0.83220653  0.87456362  1
  Mn  Mn99  1  0.24936669  0.16788965  0.12591449  1
  Mn  Mn100  1  0.00060648  0.00017121  0.00050326  1
  Mn  Mn101  1  0.74988471  -0.00010179  0.62495616  1
  Mn  Mn102  1  0.00028549  0.83195629  0.00110737  1
  Mn  Mn103  1  0.49972849  0.16629905  0.75043669  1
  Mn  Mn104  1  0.00026365  0.49990155  0.00019359  1
  Mn  Mn105  1  0.25070157  0.83202402  0.87455054  1
  Mn  Mn106  1  0.24982736  0.49908092  0.87478503  1
  Mn  Mn107  1  0.50052369  0.33438662  0.75092391  1
  Mn  Mn108  1  -0.00017310  0.83207564  0.75051904  1
  Mn  Mn109  1  0.25010902  0.83390884  0.37580053  1
  Mn  Mn110  1  0.25093120  0.49910870  0.62434973  1
  Mn  Mn111  1  0.49934965  0.83357632  0.00015950  1
  Mn  Mn112  1  0.00017722  0.16706548  0.74960656  1
  Mn  Mn113  1  0.49965994  0.33401135  0.00049569  1
  Mn  Mn114  1  0.24903438  0.83390938  0.62506123  1
  Mn  Mn115  1  0.24994043  0.16750345  0.87521020  1
  Mn  Mn116  1  0.75047518  0.83224780  0.62376138  1
  Mn  Mn117  1  0.25012258  0.00034987  0.12546850  1
  Mn  Mn118  1  0.50008480  0.50154451  0.49938928  1
  Mn  Mn119  1  0.49987049  0.66621040  -0.00030639  1
  Mn  Mn120  1  0.74930693  0.16804212  0.62540075  1
  Mn  Mn121  1  -0.00003212  -0.00026806  0.49959624  1
  Mn  Mn122  1  0.74971409  0.16783528  0.87544841  1
  Mn  Mn123  1  0.24977514  0.66519415  0.12605023  1
  Mn  Mn124  1  0.00041393  0.16687474  0.25034016  1
  Mn  Mn125  1  0.49971230  0.33350614  0.49995414  1
  Mn  Mn126  1  0.74948174  0.50032212  0.37514179  1
  Mn  Mn127  1  0.00057486  0.33430683  0.25073451  1
  Mn  Mn128  1  0.49952979  -0.00083820  0.74928791  1
  Mn  Mn129  1  0.74915931  0.66575059  0.12495601  1
  Mn  Mn130  1  0.75045042  0.16789394  0.37509135  1
  Mn  Mn131  1  0.74926646  0.66441757  0.87561152  1
  Mn  Mn132  1  0.50038694  0.16561784  0.25067806  1
  Mn  Mn133  1  0.75090300  0.00095293  0.12506844  1
  Mn  Mn134  1  0.00018079  0.66653509  0.49956218  1
  Mn  Mn135  1  0.25049963  0.83259198  0.12571893  1
  Mn  Mn136  1  0.74982288  0.83337629  0.12550645  1
  Mn  Mn137  1  0.75028459  0.00011533  0.87519957  1
  Mn  Mn138  1  0.00081058  0.33349012  0.74956601  1
  Mn  Mn139  1  0.25024331  -0.00012201  0.87543582  1
  Mn  Mn140  1  -0.00031452  0.66463753  0.74881346  1
  Mn  Mn141  1  -0.00008243  -0.00020492  0.74977513  1
  Mn  Mn142  1  0.50054246  0.33344566  0.25009365  1
  Mn  Mn143  1  0.24990335  0.16725148  0.62466686  1
  Fe  Fe144  1  -0.00066338  0.16657237  0.00060559  1
  Fe  Fe145  1  -0.00004548  0.83343401  0.49905024  1
  Fe  Fe146  1  0.00051557  0.50029815  0.49947559  1
  Fe  Fe147  1  0.50024541  0.66717682  0.74937557  1
  Fe  Fe148  1  0.25041210  0.33358616  0.12544758  1
  Fe  Fe149  1  -0.00031125  0.16687909  0.49938522  1
  Fe  Fe150  1  0.49981287  0.50107314  0.74935254  1
  Fe  Fe151  1  0.49958197  0.83356528  0.25026619  1
  Fe  Fe152  1  0.25022331  0.00085306  0.37508619  1
  Fe  Fe153  1  0.49920518  -0.00027614  0.25046375  1
  Fe  Fe154  1  -0.00009038  0.66607205  0.00091650  1
  Fe  Fe155  1  0.74984189  0.66628697  0.62401231  1
  Fe  Fe156  1  0.75035941  0.33341033  0.87560773  1
  Fe  Fe157  1  -0.00094187  0.00014662  0.25033995  1
  Fe  Fe158  1  0.25028013  0.33330377  0.62425895  1
  Fe  Fe159  1  0.74987810  0.33371930  0.62517906  1
  Fe  Fe160  1  0.25039189  0.49911766  0.12488191  1
  Fe  Fe161  1  0.50037829  0.66768759  0.49982113  1
  Fe  Fe162  1  0.25029799  0.33324706  0.87521218  1
  Fe  Fe163  1  0.74933100  0.00098675  0.37466759  1
  Fe  Fe164  1  0.50047852  0.16643642  0.50030150  1
  Fe  Fe165  1  0.25012781  0.33401495  0.37431558  1
  Fe  Fe166  1  0.00001500  0.50035086  0.24961982  1
  Fe  Fe167  1  0.49994943  0.50057766  -0.00014178  1
  Fe  Fe168  1  0.74990451  0.66688391  0.37398297  1
  Fe  Fe169  1  0.74974586  0.16788951  0.12592891  1
  Fe  Fe170  1  0.75017328  0.49855229  0.87430612  1
  Fe  Fe171  1  0.24947959  0.66622199  0.37496472  1
  Fe  Fe172  1  0.49965607  0.66697393  0.25025285  1
  Fe  Fe173  1  -0.00003280  0.33331178  0.00013131  1
  Fe  Fe174  1  0.50063988  0.83332246  0.74944069  1
  Fe  Fe175  1  0.75031774  0.49945383  0.12496825  1
  Fe  Fe176  1  -0.00027027  0.83362909  0.24980811  1
  Fe  Fe177  1  0.50011531  -0.00060640  0.49989656  1
  Fe  Fe178  1  0.74957719  0.83372140  0.37488900  1
  Fe  Fe179  1  0.24986361  0.00077891  0.62469389  1
  Fe  Fe180  1  0.75005422  0.33428830  0.37442905  1
  Fe  Fe181  1  0.25006364  0.49943118  0.37449617  1
  Fe  Fe182  1  0.25030503  0.16753559  0.37549355  1
  Fe  Fe183  1  0.24974467  0.66554337  0.87536882  1
  Fe  Fe184  1  0.49993931  0.16606674  0.00079635  1
  Fe  Fe185  1  0.49998166  0.50044079  0.24979815  1
  Fe  Fe186  1  0.74994904  0.33431660  0.12476315  1
  Fe  Fe187  1  0.00038958  0.49908731  0.74992554  1
  Fe  Fe188  1  0.00010605  0.33428716  0.49993668  1
  Fe  Fe189  1  0.49999807  -0.00049270  0.00048045  1
  Fe  Fe190  1  0.50004663  0.83307316  0.49964541  1
  Fe  Fe191  1  -0.00053368  0.66691251  0.25071311  1
  P  P192  1  0.04124852  0.24999048  0.10193086  1
  P  P193  1  0.04258693  0.25054987  0.35432370  1
  P  P194  1  0.04167609  0.25008283  0.60063879  1
  P  P195  1  0.04252182  0.25000268  0.85393803  1
  P  P196  1  0.04209297  0.58455910  0.10364606  1
  P  P197  1  0.04118161  0.58302841  0.35174314  1
  P  P198  1  0.04278489  0.58144372  0.60209250  1
  P  P199  1  0.04234944  0.58121329  0.85258127  1
  P  P200  1  0.04262756  0.91638778  0.10459569  1
  P  P201  1  0.04099327  0.91678006  0.35174429  1
  P  P202  1  0.04253081  0.91491216  0.60191125  1
  P  P203  1  0.04301380  0.91612317  0.85340649  1
  P  P204  1  0.54189002  0.24890599  0.10267864  1
  P  P205  1  0.54281428  0.24936679  0.35386489  1
  P  P206  1  0.54220640  0.24928879  0.60272829  1
  P  P207  1  0.54209838  0.24961663  0.85444294  1
  P  P208  1  0.54191284  0.58224737  0.10306909  1
  P  P209  1  0.54127768  0.58408509  0.35147570  1
  P  P210  1  0.54221087  0.58563783  0.60267648  1
  P  P211  1  0.54153129  0.58351598  0.85122084  1
  P  P212  1  0.54200743  0.91759238  0.10352085  1
  P  P213  1  0.54070973  0.91657229  0.35230028  1
  P  P214  1  0.54172110  0.91570634  0.60127913  1
  P  P215  1  0.54230928  0.91564844  0.85247051  1
  P  P216  1  0.45777967  0.08180456  0.14749522  1
  P  P217  1  0.45892182  0.08285496  0.39866867  1
  P  P218  1  0.45733084  0.08315792  0.64586437  1
  P  P219  1  0.45838504  0.08253535  0.89894200  1
  P  P220  1  0.45817711  0.41814868  0.14736646  1
  P  P221  1  0.45773580  0.41771290  0.39612061  1
  P  P222  1  0.45787221  0.41841410  0.64750396  1
  P  P223  1  0.45804505  0.41885930  0.89719562  1
  P  P224  1  0.45815118  0.74994023  0.14896610  1
  P  P225  1  0.45863931  0.75042084  0.39763210  1
  P  P226  1  0.45890993  0.75054766  0.64735897  1
  P  P227  1  0.45751507  0.74983376  0.89599963  1
  P  P228  1  0.95743955  0.08267287  0.14771634  1
  P  P229  1  0.95773872  0.08432157  0.39703521  1
  P  P230  1  0.95733330  0.08375139  0.64590283  1
  P  P231  1  0.95738513  0.08443348  0.89790177  1
  P  P232  1  0.95824382  0.41766417  0.14734973  1
  P  P233  1  0.95892662  0.41779729  0.39794512  1
  P  P234  1  0.95841920  0.41789817  0.64635894  1
  P  P235  1  0.95795386  0.41526966  0.89752348  1
  P  P236  1  0.95826748  0.74954284  0.14881010  1
  P  P237  1  0.95818734  0.75134931  0.39630101  1
  P  P238  1  0.95709423  0.74947655  0.64595516  1
  P  P239  1  0.95763014  0.74739473  0.89808044  1
  P  P240  1  0.20754597  0.08396263  0.22970678  1
  P  P241  1  0.20885975  0.08376284  0.47675932  1
  P  P242  1  0.20731547  0.08278753  0.72711879  1
  P  P243  1  0.20717129  0.08396138  0.97852730  1
  P  P244  1  0.20864896  0.41661489  0.22716470  1
  P  P245  1  0.20882050  0.41627662  0.47625587  1
  P  P246  1  0.20803897  0.41478219  0.72716568  1
  P  P247  1  0.20801302  0.41509150  0.97825095  1
  P  P248  1  0.20775332  0.74930996  0.22943948  1
  P  P249  1  0.20744093  0.74889838  0.47710914  1
  P  P250  1  0.20719426  0.74916186  0.72842623  1
  P  P251  1  0.20789810  0.74777452  0.97786030  1
  P  P252  1  0.70807333  0.08510562  0.22812130  1
  P  P253  1  0.70753399  0.08311002  0.47723826  1
  P  P254  1  0.70670340  0.08389328  0.72822799  1
  P  P255  1  0.70775429  0.08441552  0.97909092  1
  P  P256  1  0.70840030  0.41693972  0.22676271  1
  P  P257  1  0.70751081  0.41546548  0.47752348  1
  P  P258  1  0.70770948  0.41543665  0.72789667  1
  P  P259  1  0.70860258  0.41640279  0.97721321  1
  P  P260  1  0.70738347  0.74990810  0.22913758  1
  P  P261  1  0.70863092  0.74953637  0.47589155  1
  P  P262  1  0.70772938  0.74782876  0.72670998  1
  P  P263  1  0.70662804  0.74899576  0.97817361  1
  P  P264  1  0.29235390  0.25173702  0.02278706  1
  P  P265  1  0.29164120  0.25090718  0.27343904  1
  P  P266  1  0.29225564  0.25163678  0.52136557  1
  P  P267  1  0.29260002  0.25169280  0.77215963  1
  P  P268  1  0.29224499  0.58147298  0.02268134  1
  P  P269  1  0.29109375  0.58255224  0.27338940  1
  P  P270  1  0.29279939  0.58303558  0.52050230  1
  P  P271  1  0.29230469  0.58379533  0.77261510  1
  P  P272  1  0.29324606  0.91593314  0.02238640  1
  P  P273  1  0.29250242  0.91810914  0.27337657  1
  P  P274  1  0.29161610  0.91867367  0.52223129  1
  P  P275  1  0.29280342  0.91699856  0.77123959  1
  P  P276  1  0.79134057  0.25076339  0.02380972  1
  P  P277  1  0.79253266  0.25247193  0.27179137  1
  P  P278  1  0.79201121  0.25213083  0.52213829  1
  P  P279  1  0.79240315  0.25207432  0.77256730  1
  P  P280  1  0.79201137  0.58073359  0.02228867  1
  P  P281  1  0.79185278  0.58392785  0.27204044  1
  P  P282  1  0.79186548  0.58471153  0.52149238  1
  P  P283  1  0.79204592  0.58117061  0.77196835  1
  P  P284  1  0.79328713  0.91638132  0.02220261  1
  P  P285  1  0.79084737  0.91748272  0.27371399  1
  P  P286  1  0.79199662  0.91683318  0.52023947  1
  P  P287  1  0.79301387  0.91605341  0.77158368  1
  O  O288  1  0.03635288  0.25040219  0.18194540  1
  O  O289  1  0.03710428  0.25045281  0.43413959  1
  O  O290  1  0.03718506  0.25040719  0.68069690  1
  O  O291  1  0.03709780  0.24998417  0.93382993  1
  O  O292  1  0.03653094  0.58430609  0.18349225  1
  O  O293  1  0.03652482  0.58283897  0.43173310  1
  O  O294  1  0.03761460  0.58096954  0.68204685  1
  O  O295  1  0.03728162  0.58200665  0.93252213  1
  O  O296  1  0.03674223  0.91665462  0.18449874  1
  O  O297  1  0.03593286  0.91619234  0.43173324  1
  O  O298  1  0.03735935  0.91531018  0.68186623  1
  O  O299  1  0.03813315  0.91622030  0.93345371  1
  O  O300  1  0.53717780  0.24902283  0.18270026  1
  O  O301  1  0.53748428  0.24916845  0.43381018  1
  O  O302  1  0.53717255  0.24977317  0.68274674  1
  O  O303  1  0.53638516  0.24921069  0.93436237  1
  O  O304  1  0.53649103  0.58235601  0.18291398  1
  O  O305  1  0.53678918  0.58498289  0.43145590  1
  O  O306  1  0.53670848  0.58548165  0.68254023  1
  O  O307  1  0.53656578  0.58302816  0.93123049  1
  O  O308  1  0.53643391  0.91754628  0.18339722  1
  O  O309  1  0.53589702  0.91613633  0.43221912  1
  O  O310  1  0.53699006  0.91556282  0.68125317  1
  O  O311  1  0.53689220  0.91632941  0.93239166  1
  O  O312  1  0.46312420  0.08219359  0.06761673  1
  O  O313  1  0.46359601  0.08203230  0.31867347  1
  O  O314  1  0.46289087  0.08350632  0.56599456  1
  O  O315  1  0.46319399  0.08268572  0.81891599  1
  O  O316  1  0.46333549  0.41827699  0.06738274  1
  O  O317  1  0.46316395  0.41786849  0.31620198  1
  O  O318  1  0.46302044  0.41808480  0.56753083  1
  O  O319  1  0.46343487  0.41898504  0.81724623  1
  O  O320  1  0.46256716  0.74979126  0.06896080  1
  O  O321  1  0.46341222  0.75019217  0.31772891  1
  O  O322  1  0.46427989  0.75041491  0.56742311  1
  O  O323  1  0.46302700  0.74974165  0.81613026  1
  O  O324  1  0.96293960  0.08331299  0.06778404  1
  O  O325  1  0.96310847  0.08350244  0.31710572  1
  O  O326  1  0.96255133  0.08415916  0.56589377  1
  O  O327  1  0.96247954  0.08415956  0.81787491  1
  O  O328  1  0.96346392  0.41679387  0.06743685  1
  O  O329  1  0.96374481  0.41787091  0.31796400  1
  O  O330  1  0.96366813  0.41790552  0.56645511  1
  O  O331  1  0.96299194  0.41569112  0.81757094  1
  O  O332  1  0.96326670  0.74864950  0.06885436  1
  O  O333  1  0.96353058  0.75132370  0.31641102  1
  O  O334  1  0.96244630  0.74991154  0.56599097  1
  O  O335  1  0.96273627  0.74746625  0.81808893  1
  O  O336  1  0.21210345  0.08420731  0.05855202  1
  O  O337  1  0.21309726  0.08406552  0.30962669  1
  O  O338  1  0.21344591  0.08356652  0.55679407  1
  O  O339  1  0.21254580  0.08332896  0.80707977  1
  O  O340  1  0.21363313  0.41572752  0.05810237  1
  O  O341  1  0.21393865  0.41659263  0.30705276  1
  O  O342  1  0.21363281  0.41633468  0.55619881  1
  O  O343  1  0.21308288  0.41474116  0.80714908  1
  O  O344  1  0.21309098  0.74813456  0.05790080  1
  O  O345  1  0.21295101  0.74900649  0.30939087  1
  O  O346  1  0.21215798  0.74928647  0.55711949  1
  O  O347  1  0.21264466  0.74848962  0.80838821  1
  O  O348  1  0.71321917  0.08506033  0.05904994  1
  O  O349  1  0.71360399  0.08446394  0.30809222  1
  O  O350  1  0.71236496  0.08331112  0.55721218  1
  O  O351  1  0.71191728  0.08393068  0.80823980  1
  O  O352  1  0.71382039  0.41684668  0.05714731  1
  O  O353  1  0.71329593  0.41683694  0.30674783  1
  O  O354  1  0.71284436  0.41550165  0.55744867  1
  O  O355  1  0.71309661  0.41576493  0.80779530  1
  O  O356  1  0.71163194  0.74909272  0.05819417  1
  O  O357  1  0.71288672  0.74996201  0.30905708  1
  O  O358  1  0.71355100  0.74921995  0.55587472  1
  O  O359  1  0.71250075  0.74788772  0.80670521  1
  O  O360  1  0.28662949  0.25083228  0.19347200  1
  O  O361  1  0.28691999  0.25136242  0.44148679  1
  O  O362  1  0.28727797  0.25154520  0.69217218  1
  O  O363  1  0.28736502  0.25161481  0.94279633  1
  O  O364  1  0.28655384  0.58178678  0.19339189  1
  O  O365  1  0.28732574  0.58324737  0.44059569  1
  O  O366  1  0.28747298  0.58331730  0.69262559  1
  O  O367  1  0.28700397  0.58220277  0.94273718  1
  O  O368  1  0.28768245  0.91753695  0.19340543  1
  O  O369  1  0.28633889  0.91885531  0.44226203  1
  O  O370  1  0.28716175  0.91762659  0.69128691  1
  O  O371  1  0.28822011  0.91562751  0.94238277  1
  O  O372  1  0.78679911  0.25197405  0.19193577  1
  O  O373  1  0.78682685  0.25224982  0.44217157  1
  O  O374  1  0.78711404  0.25213779  0.69261746  1
  O  O375  1  0.78638407  0.25109683  0.94383961  1
  O  O376  1  0.78672445  0.58287999  0.19210726  1
  O  O377  1  0.78652380  0.58479025  0.44154872  1
  O  O378  1  0.78697483  0.58196073  0.69201433  1
  O  O379  1  0.78684733  0.58022651  0.94230971  1
  O  O380  1  0.78654093  0.91711809  0.19369724  1
  O  O381  1  0.78629053  0.91752095  0.44034450  1
  O  O382  1  0.78784307  0.91592504  0.69153606  1
  O  O383  1  0.78832255  0.91619222  0.94219526  1
  O  O384  1  0.22799141  0.25222541  0.05827752  1
  O  O385  1  0.22753796  0.25120398  0.30939854  1
  O  O386  1  0.22808254  0.25183789  0.55746354  1
  O  O387  1  0.22831074  0.25185809  0.80790783  1
  O  O388  1  0.22797312  0.58093280  0.05839749  1
  O  O389  1  0.22686651  0.58317053  0.30899715  1
  O  O390  1  0.22859532  0.58249324  0.55617839  1
  O  O391  1  0.22796204  0.58386182  0.80805716  1
  O  O392  1  0.22876511  0.91596478  0.05732708  1
  O  O393  1  0.22808205  0.91827791  0.30853627  1
  O  O394  1  0.22737892  0.91882554  0.55796648  1
  O  O395  1  0.22861918  0.91634843  0.80690916  1
  O  O396  1  0.72722490  0.25058697  0.05990140  1
  O  O397  1  0.72842776  0.25253106  0.30805149  1
  O  O398  1  0.72774988  0.25247770  0.55792184  1
  O  O399  1  0.72811835  0.25232654  0.80827976  1
  O  O400  1  0.72770373  0.58067113  0.05789396  1
  O  O401  1  0.72758124  0.58438383  0.30767846  1
  O  O402  1  0.72766834  0.58454667  0.55731581  1
  O  O403  1  0.72774109  0.58050130  0.80763182  1
  O  O404  1  0.72878396  0.91701289  0.05701791  1
  O  O405  1  0.72654075  0.91776589  0.30902439  1
  O  O406  1  0.72789950  0.91630528  0.55622436  1
  O  O407  1  0.72853828  0.91617001  0.80657010  1
  O  O408  1  0.27170364  0.08434842  0.19390661  1
  O  O409  1  0.27305361  0.08336515  0.44105146  1
  O  O410  1  0.27165132  0.08269204  0.69155546  1
  O  O411  1  0.27165853  0.08402218  0.94364719  1
  O  O412  1  0.27271101  0.41659510  0.19073309  1
  O  O413  1  0.27296505  0.41597646  0.44036480  1
  O  O414  1  0.27241067  0.41450666  0.69160831  1
  O  O415  1  0.27206713  0.41493552  0.94184255  1
  O  O416  1  0.27209363  0.74897750  0.19418993  1
  O  O417  1  0.27192103  0.74880988  0.44219816  1
  O  O418  1  0.27145876  0.74998576  0.69295990  1
  O  O419  1  0.27218928  0.74733011  0.94225548  1
  O  O420  1  0.77224652  0.08597168  0.19225857  1
  O  O421  1  0.77188085  0.08282244  0.44186903  1
  O  O422  1  0.77112184  0.08413025  0.69317053  1
  O  O423  1  0.77196414  0.08433674  0.94348273  1
  O  O424  1  0.77259334  0.41688998  0.19083405  1
  O  O425  1  0.77179320  0.41574595  0.44180400  1
  O  O426  1  0.77186977  0.41518480  0.69176751  1
  O  O427  1  0.77267279  0.41618643  0.94081605  1
  O  O428  1  0.77154240  0.74943732  0.19332065  1
  O  O429  1  0.77272772  0.74949163  0.43996975  1
  O  O430  1  0.77213177  0.74772718  0.69137808  1
  O  O431  1  0.77111059  0.74855963  0.94333451  1
  O  O432  1  0.02162887  0.08167706  0.18366742  1
  O  O433  1  0.02191861  0.08468519  0.43295772  1
  O  O434  1  0.02171635  0.08339740  0.68115746  1
  O  O435  1  0.02173391  0.08518073  0.93348352  1
  O  O436  1  0.02252536  0.41851124  0.18310852  1
  O  O437  1  0.02313864  0.41803742  0.43373500  1
  O  O438  1  0.02260922  0.41814104  0.68251082  1
  O  O439  1  0.02220886  0.41508288  0.93326805  1
  O  O440  1  0.02235529  0.75042448  0.18481337  1
  O  O441  1  0.02222420  0.75142135  0.43267392  1
  O  O442  1  0.02138103  0.74892828  0.68147775  1
  O  O443  1  0.02200191  0.74732172  0.93364359  1
  O  O444  1  0.52197223  0.08119929  0.18358041  1
  O  O445  1  0.52305429  0.08329115  0.43454659  1
  O  O446  1  0.52148503  0.08293292  0.68181041  1
  O  O447  1  0.52252421  0.08219816  0.93495225  1
  O  O448  1  0.52246373  0.41823557  0.18305007  1
  O  O449  1  0.52193510  0.41737541  0.43175514  1
  O  O450  1  0.52217307  0.41878183  0.68313048  1
  O  O451  1  0.52220618  0.41860294  0.93322287  1
  O  O452  1  0.52240933  0.75012780  0.18442092  1
  O  O453  1  0.52280570  0.75099224  0.43376706  1
  O  O454  1  0.52286589  0.75052465  0.68408270  1
  O  O455  1  0.52162653  0.74994934  0.93207111  1
  O  O456  1  0.47757392  0.24933773  0.06741362  1
  O  O457  1  0.47850895  0.24970125  0.31845545  1
  O  O458  1  0.47791055  0.24883990  0.56713945  1
  O  O459  1  0.47799445  0.25030198  0.81853192  1
  O  O460  1  0.47774208  0.58199838  0.06689265  1
  O  O461  1  0.47701516  0.58328474  0.31585499  1
  O  O462  1  0.47810276  0.58593011  0.56644322  1
  O  O463  1  0.47738449  0.58396702  0.81514265  1
  O  O464  1  0.47787368  0.91821733  0.06723809  1
  O  O465  1  0.47663072  0.91708978  0.31607304  1
  O  O466  1  0.47751524  0.91538550  0.56540273  1
  O  O467  1  0.47813309  0.91465764  0.81635589  1
  O  O468  1  0.97707978  0.24976137  0.06600560  1
  O  O469  1  0.97846456  0.25069544  0.31840525  1
  O  O470  1  0.97736386  0.24981573  0.56519097  1
  O  O471  1  0.97834216  0.25034205  0.81806017  1
  O  O472  1  0.97798228  0.58440822  0.06735510  1
  O  O473  1  0.97701592  0.58235983  0.31588337  1
  O  O474  1  0.97842272  0.58167961  0.56651599  1
  O  O475  1  0.97804033  0.58051456  0.81679930  1
  O  O476  1  0.97855480  0.91628676  0.06850060  1
  O  O477  1  0.97683302  0.91693813  0.31567862  1
  O  O478  1  0.97817564  0.91496112  0.56632631  1
  O  O479  1  0.97849890  0.91613736  0.81848390  1
  O  O480  1  0.07181724  0.31381151  0.07388516  1
  O  O481  1  0.07384696  0.31389560  0.32597557  1
  O  O482  1  0.07190967  0.31407425  0.57238411  1
  O  O483  1  0.07394182  0.31314629  0.82534256  1
  O  O484  1  0.07269471  0.64809753  0.07496771  1
  O  O485  1  0.07101248  0.64736819  0.32373783  1
  O  O486  1  0.07365352  0.64529627  0.57452614  1
  O  O487  1  0.07321247  0.64460396  0.82404344  1
  O  O488  1  0.07409852  0.97954782  0.07627213  1
  O  O489  1  0.07157541  0.98083325  0.32429310  1
  O  O490  1  0.07359846  0.97846441  0.57392987  1
  O  O491  1  0.07381513  0.97965277  0.82510212  1
  O  O492  1  0.57333069  0.31235219  0.07515633  1
  O  O493  1  0.57395977  0.31280562  0.32570957  1
  O  O494  1  0.57301023  0.31302627  0.57492795  1
  O  O495  1  0.57343756  0.31319248  0.82688257  1
  O  O496  1  0.57289046  0.64592249  0.07507881  1
  O  O497  1  0.57147934  0.64778271  0.32244354  1
  O  O498  1  0.57321703  0.64882670  0.57369968  1
  O  O499  1  0.57253464  0.64715510  0.82338353  1
  O  O500  1  0.57335326  0.98062640  0.07473904  1
  O  O501  1  0.57194770  0.98000169  0.32417103  1
  O  O502  1  0.57182427  0.97980913  0.57293641  1
  O  O503  1  0.57300912  0.97930676  0.82426867  1
  O  O504  1  0.42655977  0.01870010  0.17632225  1
  O  O505  1  0.42838846  0.01925925  0.42748604  1
  O  O506  1  0.42618214  0.01965824  0.67394481  1
  O  O507  1  0.42734300  0.01895785  0.92672894  1
  O  O508  1  0.42734949  0.35423638  0.17485942  1
  O  O509  1  0.42652090  0.35426263  0.42405349  1
  O  O510  1  0.42705123  0.35477547  0.67542707  1
  O  O511  1  0.42687843  0.35519284  0.92481151  1
  O  O512  1  0.42754764  0.68621476  0.17731460  1
  O  O513  1  0.42839778  0.68660911  0.42645988  1
  O  O514  1  0.42781484  0.68705299  0.67562288  1
  O  O515  1  0.42646568  0.68642946  0.92454695  1
  O  O516  1  0.92618652  0.01933181  0.17588636  1
  O  O517  1  0.92649867  0.02099865  0.42514400  1
  O  O518  1  0.92631374  0.02013841  0.67380401  1
  O  O519  1  0.92679532  0.02061191  0.92567775  1
  O  O520  1  0.92742984  0.35420519  0.17574936  1
  O  O521  1  0.92874971  0.35377990  0.42638651  1
  O  O522  1  0.92750066  0.35418601  0.67428945  1
  O  O523  1  0.92735994  0.35171268  0.92617564  1
  O  O524  1  0.92784697  0.68589704  0.17770971  1
  O  O525  1  0.92710285  0.68763620  0.42395153  1
  O  O526  1  0.92602855  0.68579900  0.67370256  1
  O  O527  1  0.92698360  0.68383299  0.92649047  1
  O  O528  1  0.17658022  0.02045131  0.20126761  1
  O  O529  1  0.17737039  0.02058969  0.44829720  1
  O  O530  1  0.17665955  0.01917125  0.69876381  1
  O  O531  1  0.17630248  0.02029771  0.95058122  1
  O  O532  1  0.17773420  0.35294741  0.19880345  1
  O  O533  1  0.17741622  0.35309059  0.44791345  1
  O  O534  1  0.17695457  0.35167107  0.69810730  1
  O  O535  1  0.17710746  0.35165629  0.94970388  1
  O  O536  1  0.17620624  0.68625579  0.20095218  1
  O  O537  1  0.17679019  0.68531657  0.44854923  1
  O  O538  1  0.17619265  0.68583591  0.69976810  1
  O  O539  1  0.17717203  0.68408344  0.94967192  1
  O  O540  1  0.67724331  0.02143988  0.20000844  1
  O  O541  1  0.67663504  0.01966069  0.44864224  1
  O  O542  1  0.67582182  0.02030513  0.70005153  1
  O  O543  1  0.67688226  0.02056735  0.95136037  1
  O  O544  1  0.67735233  0.35350465  0.19831774  1
  O  O545  1  0.67665850  0.35228663  0.44850992  1
  O  O546  1  0.67654001  0.35215152  0.69926317  1
  O  O547  1  0.67765766  0.35264958  0.94921077  1
  O  O548  1  0.67584606  0.68672007  0.20075285  1
  O  O549  1  0.67738435  0.68627986  0.44734851  1
  O  O550  1  0.67722455  0.68421907  0.69803208  1
  O  O551  1  0.67546121  0.68547224  0.95019716  1
  O  O552  1  0.32353895  0.31488353  0.05164323  1
  O  O553  1  0.32309335  0.31428593  0.30133748  1
  O  O554  1  0.32331484  0.31498883  0.55003490  1
  O  O555  1  0.32367597  0.31482989  0.80102751  1
  O  O556  1  0.32339548  0.64483827  0.05125002  1
  O  O557  1  0.32212258  0.64624887  0.30139237  1
  O  O558  1  0.32375933  0.64651767  0.54910587  1
  O  O559  1  0.32284483  0.64742902  0.80103648  1
  O  O560  1  0.32399717  0.97961212  0.05044502  1
  O  O561  1  0.32320758  0.98168122  0.30180437  1
  O  O562  1  0.32267728  0.98186699  0.55100346  1
  O  O563  1  0.32385751  0.98035888  0.79984207  1
  O  O564  1  0.82223698  0.31437509  0.05211774  1
  O  O565  1  0.82343868  0.31600247  0.30028780  1
  O  O566  1  0.82321884  0.31521440  0.55095314  1
  O  O567  1  0.82354551  0.31513248  0.80161527  1
  O  O568  1  0.82267805  0.64478650  0.04991427  1
  O  O569  1  0.82261300  0.64766715  0.30011960  1
  O  O570  1  0.82274320  0.64804462  0.55025111  1
  O  O571  1  0.82298206  0.64462076  0.80056774  1
  O  O572  1  0.82461643  0.97969817  0.05039369  1
  O  O573  1  0.82185078  0.98117483  0.30151184  1
  O  O574  1  0.82323643  0.98004631  0.54906751  1
  O  O575  1  0.82396387  0.97965161  0.79963903  1
  O  O576  1  0.42690647  0.14556446  0.17586123  1
  O  O577  1  0.42800340  0.14676179  0.42630162  1
  O  O578  1  0.42604097  0.14640237  0.67462169  1
  O  O579  1  0.42805993  0.14658310  0.92724961  1
  O  O580  1  0.42707027  0.48130042  0.17632296  1
  O  O581  1  0.42663312  0.48110901  0.42440765  1
  O  O582  1  0.42701282  0.48211050  0.67553723  1
  O  O583  1  0.42715109  0.48222643  0.92589151  1
  O  O584  1  0.42739815  0.81360861  0.17738418  1
  O  O585  1  0.42717344  0.81371527  0.42605383  1
  O  O586  1  0.42802388  0.81425998  0.67559935  1
  O  O587  1  0.42609292  0.81305265  0.92454024  1
  O  O588  1  0.92671481  0.14645755  0.17578551  1
  O  O589  1  0.92691248  0.14812421  0.42491706  1
  O  O590  1  0.92620328  0.14710631  0.67442974  1
  O  O591  1  0.92630853  0.14784116  0.92639456  1
  O  O592  1  0.92724763  0.48126462  0.17551292  1
  O  O593  1  0.92744420  0.48104172  0.42619804  1
  O  O594  1  0.92742857  0.48114721  0.67545285  1
  O  O595  1  0.92670834  0.47867353  0.92570229  1
  O  O596  1  0.92684798  0.81318165  0.17639698  1
  O  O597  1  0.92724997  0.81477518  0.42498145  1
  O  O598  1  0.92596775  0.81270173  0.67462015  1
  O  O599  1  0.92665202  0.81108805  0.92602253  1
  O  O600  1  0.07206080  0.18610679  0.07430813  1
  O  O601  1  0.07379101  0.18721027  0.32578870  1
  O  O602  1  0.07272192  0.18649573  0.57261658  1
  O  O603  1  0.07365003  0.18661991  0.82521699  1
  O  O604  1  0.07351625  0.52114705  0.07544049  1
  O  O605  1  0.07277124  0.51994353  0.32319240  1
  O  O606  1  0.07383354  0.51835803  0.57289506  1
  O  O607  1  0.07322078  0.51750206  0.82444036  1
  O  O608  1  0.07391886  0.85281958  0.07657782  1
  O  O609  1  0.07216793  0.85343622  0.32324132  1
  O  O610  1  0.07313567  0.85132479  0.57338742  1
  O  O611  1  0.07388224  0.85244794  0.82543600  1
  O  O612  1  0.57208397  0.18501837  0.07420007  1
  O  O613  1  0.57394037  0.18599786  0.32551695  1
  O  O614  1  0.57306684  0.18569391  0.57447174  1
  O  O615  1  0.57322106  0.18624769  0.82608363  1
  O  O616  1  0.57296091  0.51898571  0.07401246  1
  O  O617  1  0.57252029  0.52042294  0.32370892  1
  O  O618  1  0.57332494  0.52191255  0.57472940  1
  O  O619  1  0.57226302  0.51985313  0.82266524  1
  O  O620  1  0.57275686  0.85366850  0.07553387  1
  O  O621  1  0.57112058  0.85278056  0.32331859  1
  O  O622  1  0.57316042  0.85259265  0.57264271  1
  O  O623  1  0.57349238  0.85220590  0.82418437  1
  O  O624  1  0.32298923  0.18789126  0.05081695  1
  O  O625  1  0.32197384  0.18695909  0.30191303  1
  O  O626  1  0.32326681  0.18808790  0.54968762  1
  O  O627  1  0.32339603  0.18774610  0.79991554  1
  O  O628  1  0.32300206  0.51785033  0.05091881  1
  O  O629  1  0.32151141  0.51883117  0.30214024  1
  O  O630  1  0.32430981  0.51980878  0.54883188  1
  O  O631  1  0.32329085  0.52015339  0.80045906  1
  O  O632  1  0.32423017  0.85246046  0.05071649  1
  O  O633  1  0.32344841  0.85450187  0.30142613  1
  O  O634  1  0.32240615  0.85459246  0.54949310  1
  O  O635  1  0.32417075  0.85346843  0.79883433  1
  O  O636  1  0.82212046  0.18707796  0.05198001  1
  O  O637  1  0.82383599  0.18906218  0.30007271  1
  O  O638  1  0.82255421  0.18802898  0.54967986  1
  O  O639  1  0.82315973  0.18813227  0.80025288  1
  O  O640  1  0.82325546  0.51775552  0.05130364  1
  O  O641  1  0.82300007  0.52064335  0.30057114  1
  O  O642  1  0.82290911  0.52094547  0.54909932  1
  O  O643  1  0.82295879  0.51759849  0.80013360  1
  O  O644  1  0.82384594  0.85270073  0.05055387  1
  O  O645  1  0.82121379  0.85359867  0.30216110  1
  O  O646  1  0.82347056  0.85331332  0.54791004  1
  O  O647  1  0.82389943  0.85242784  0.79957421  1
  O  O648  1  0.17594191  0.14720621  0.20149160  1
  O  O649  1  0.17885145  0.14800333  0.44856124  1
  O  O650  1  0.17625618  0.14636462  0.69906869  1
  O  O651  1  0.17621043  0.14738986  0.95020665  1
  O  O652  1  0.17771773  0.48013861  0.19871606  1
  O  O653  1  0.17860445  0.48026804  0.44763174  1
  O  O654  1  0.17748516  0.47877886  0.69937896  1
  O  O655  1  0.17669322  0.47850507  0.94994461  1
  O  O656  1  0.17710894  0.81313859  0.20149076  1
  O  O657  1  0.17642748  0.81258125  0.44934797  1
  O  O658  1  0.17579523  0.81265707  0.70064926  1
  O  O659  1  0.17693547  0.81141910  0.95006972  1
  O  O660  1  0.67689659  0.14861585  0.20021717  1
  O  O661  1  0.67676893  0.14687599  0.44947879  1
  O  O662  1  0.67560342  0.14738333  0.70021561  1
  O  O663  1  0.67626925  0.14747429  0.95064176  1
  O  O664  1  0.67777064  0.48074805  0.19862135  1
  O  O665  1  0.67639324  0.47930858  0.45000703  1
  O  O666  1  0.67670679  0.47895233  0.69940118  1
  O  O667  1  0.67770540  0.47977611  0.94827200  1
  O  O668  1  0.67641289  0.81352503  0.20103439  1
  O  O669  1  0.67819240  0.81362979  0.44783502  1
  O  O670  1  0.67681456  0.81149481  0.69876558  1
  O  O671  1  0.67590032  0.81257184  0.94993382  1
