# generated using pymatgen
data_Na2MnFe(PO4)2
_symmetry_space_group_name_H-M   'P 1'
_cell_length_a   22.34552261
_cell_length_b   20.09839547
_cell_length_c   19.44784221
_cell_angle_alpha   90.04771410
_cell_angle_beta   90.03027466
_cell_angle_gamma   89.97376536
_symmetry_Int_Tables_number   1
_chemical_formula_structural   Na2MnFe(PO4)2
_chemical_formula_sum   'Na96 Mn48 Fe48 P96 O384'
_cell_volume   8734.19872964
_cell_formula_units_Z   48
loop_
 _symmetry_equiv_pos_site_id
 _symmetry_equiv_pos_as_xyz
  1  'x, y, z'
loop_
 _atom_site_type_symbol
 _atom_site_label
 _atom_site_symmetry_multiplicity
 _atom_site_fract_x
 _atom_site_fract_y
 _atom_site_fract_z
 _atom_site_occupancy
  Na  Na0  1  0.14032933  0.24995110  0.24338075  1
  Na  Na1  1  0.14034441  0.24965505  0.49297444  1
  Na  Na2  1  0.13981650  0.24966692  0.74324939  1
  Na  Na3  1  0.14001734  0.25046389  0.99233545  1
  Na  Na4  1  0.14004889  0.58261626  0.24291286  1
  Na  Na5  1  0.14048272  0.58333922  0.49368776  1
  Na  Na6  1  0.14032290  0.58328764  0.74419151  1
  Na  Na7  1  0.14027485  0.58266575  0.99222261  1
  Na  Na8  1  0.14104333  0.91533382  0.24325967  1
  Na  Na9  1  0.14099355  0.91658387  0.49452009  1
  Na  Na10  1  0.14070781  0.91553282  0.74395276  1
  Na  Na11  1  0.14011693  0.91541912  0.99383408  1
  Na  Na12  1  0.63998095  0.24983067  0.24410444  1
  Na  Na13  1  0.63988763  0.25013462  0.49446307  1
  Na  Na14  1  0.63966853  0.25091057  0.74452854  1
  Na  Na15  1  0.63992846  0.25100327  0.99321699  1
  Na  Na16  1  0.63971308  0.58397129  0.24221689  1
  Na  Na17  1  0.64020688  0.58408183  0.49400602  1
  Na  Na18  1  0.64035397  0.58337143  0.74579947  1
  Na  Na19  1  0.63980671  0.58300106  0.99344655  1
  Na  Na20  1  0.64052165  0.91622089  0.24369364  1
  Na  Na21  1  0.64050711  0.91737646  0.49399035  1
  Na  Na22  1  0.63994529  0.91633722  0.74332011  1
  Na  Na23  1  0.64011696  0.91591841  0.99318886  1
  Na  Na24  1  0.36012756  0.08231180  0.00706250  1
  Na  Na25  1  0.35894474  0.08202382  0.25684927  1
  Na  Na26  1  0.35996246  0.08209105  0.50759813  1
  Na  Na27  1  0.36049571  0.08301797  0.75679347  1
  Na  Na28  1  0.35968258  0.41780296  0.00633303  1
  Na  Na29  1  0.35986395  0.41660472  0.25701225  1
  Na  Na30  1  0.35947647  0.41729247  0.50510111  1
  Na  Na31  1  0.35925980  0.41693292  0.75749682  1
  Na  Na32  1  0.35945524  0.74946239  0.00727763  1
  Na  Na33  1  0.35924831  0.74937947  0.25568227  1
  Na  Na34  1  0.35916698  0.75116518  0.50603886  1
  Na  Na35  1  0.35965429  0.74975714  0.75595997  1
  Na  Na36  1  0.85990027  0.08402597  0.00682121  1
  Na  Na37  1  0.85975085  0.08377816  0.25530749  1
  Na  Na38  1  0.86013674  0.08495552  0.50588007  1
  Na  Na39  1  0.86034751  0.08478589  0.75710288  1
  Na  Na40  1  0.86040217  0.41782839  0.00668656  1
  Na  Na41  1  0.86018576  0.41680881  0.25618318  1
  Na  Na42  1  0.85982800  0.41837340  0.50619091  1
  Na  Na43  1  0.86006471  0.41799011  0.75824872  1
  Na  Na44  1  0.85988880  0.74936380  0.00647087  1
  Na  Na45  1  0.85975904  0.74989822  0.25381770  1
  Na  Na46  1  0.85950472  0.74947454  0.50519622  1
  Na  Na47  1  0.85973172  0.74870730  0.75637661  1
  Na  Na48  1  0.10957818  0.08306254  0.11758632  1
  Na  Na49  1  0.10981067  0.08410923  0.36864842  1
  Na  Na50  1  0.10997360  0.08353200  0.61881112  1
  Na  Na51  1  0.10948183  0.08363818  0.86940723  1
  Na  Na52  1  0.10920286  0.41641974  0.11843399  1
  Na  Na53  1  0.10971645  0.41702499  0.36840726  1
  Na  Na54  1  0.10956928  0.41574443  0.61959883  1
  Na  Na55  1  0.10974812  0.41561849  0.86785375  1
  Na  Na56  1  0.10998122  0.74940659  0.11635619  1
  Na  Na57  1  0.10990118  0.74978781  0.36831232  1
  Na  Na58  1  0.11016143  0.74878738  0.61805842  1
  Na  Na59  1  0.11003847  0.74855328  0.86903427  1
  Na  Na60  1  0.60895281  0.08353086  0.11909643  1
  Na  Na61  1  0.60946177  0.08473599  0.36975176  1
  Na  Na62  1  0.60952039  0.08365566  0.61935070  1
  Na  Na63  1  0.60855914  0.08366619  0.86893689  1
  Na  Na64  1  0.60928775  0.41644831  0.11834867  1
  Na  Na65  1  0.60883516  0.41727606  0.36790597  1
  Na  Na66  1  0.60918109  0.41547155  0.62058441  1
  Na  Na67  1  0.60980616  0.41649385  0.86902472  1
  Na  Na68  1  0.60959449  0.74936516  0.11736411  1
  Na  Na69  1  0.60976284  0.74916631  0.36769727  1
  Na  Na70  1  0.60982961  0.75088985  0.61890449  1
  Na  Na71  1  0.60934638  0.74979612  0.86899225  1
  Na  Na72  1  0.39037084  0.25032150  0.13079262  1
  Na  Na73  1  0.39047725  0.25008350  0.38157293  1
  Na  Na74  1  0.39049718  0.24858523  0.63141428  1
  Na  Na75  1  0.39042844  0.24983364  0.88123668  1
  Na  Na76  1  0.39015801  0.58284890  0.13133162  1
  Na  Na77  1  0.39015979  0.58328441  0.38030390  1
  Na  Na78  1  0.39002682  0.58390011  0.63193232  1
  Na  Na79  1  0.38967414  0.58348383  0.88256493  1
  Na  Na80  1  0.38972653  0.91613475  0.13224952  1
  Na  Na81  1  0.38968617  0.91729808  0.38229351  1
  Na  Na82  1  0.39053729  0.91783478  0.63191767  1
  Na  Na83  1  0.39076983  0.91646185  0.88105893  1
  Na  Na84  1  0.89053594  0.25139275  0.13038251  1
  Na  Na85  1  0.89056372  0.25163855  0.38082075  1
  Na  Na86  1  0.89124807  0.25078380  0.63182015  1
  Na  Na87  1  0.89099616  0.25067764  0.88229082  1
  Na  Na88  1  0.89047158  0.58307207  0.13048943  1
  Na  Na89  1  0.88999535  0.58338774  0.38052494  1
  Na  Na90  1  0.89019687  0.58228066  0.63164550  1
  Na  Na91  1  0.89049456  0.58246725  0.88291943  1
  Na  Na92  1  0.89060255  0.91627223  0.12990825  1
  Na  Na93  1  0.89072026  0.91766519  0.38068178  1
  Na  Na94  1  0.89086205  0.91755982  0.63102152  1
  Na  Na95  1  0.89115837  0.91631876  0.88235001  1
  Mn  Mn96  1  0.74926816  0.50141244  0.62612195  1
  Mn  Mn97  1  0.49988889  0.66687271  0.50000533  1
  Mn  Mn98  1  0.49983175  0.83353463  0.00004168  1
  Mn  Mn99  1  0.25000776  0.16540626  0.37474823  1
  Mn  Mn100  1  -0.00018915  0.66499260  0.49929148  1
  Mn  Mn101  1  0.49991993  0.49982748  0.49995325  1
  Mn  Mn102  1  0.74967860  0.50015668  0.12502612  1
  Mn  Mn103  1  0.50048833  0.83300023  0.25016221  1
  Mn  Mn104  1  0.49844661  0.16729412  0.24982473  1
  Mn  Mn105  1  0.00024001  0.00081842  0.24923567  1
  Mn  Mn106  1  0.24981010  0.33343244  0.12472074  1
  Mn  Mn107  1  0.49894402  0.33243571  0.49992639  1
  Mn  Mn108  1  0.24960447  0.50085552  0.62530709  1
  Mn  Mn109  1  0.75064217  0.00072009  0.37396315  1
  Mn  Mn110  1  0.74945308  0.33325207  0.37578881  1
  Mn  Mn111  1  0.49998253  0.49945038  0.75055796  1
  Mn  Mn112  1  0.75062230  0.16785495  0.62589627  1
  Mn  Mn113  1  0.00029754  0.83342998  0.24905788  1
  Mn  Mn114  1  -0.00044965  0.16840878  0.24855537  1
  Mn  Mn115  1  0.75032695  -0.00032501  0.87516285  1
  Mn  Mn116  1  0.74925186  0.50124167  0.37506017  1
  Mn  Mn117  1  -0.00011085  0.33394680  0.50046759  1
  Mn  Mn118  1  0.25071082  0.16558710  0.62429978  1
  Mn  Mn119  1  0.25035787  -0.00095856  0.87545493  1
  Mn  Mn120  1  0.24935610  0.66705862  0.37476850  1
  Mn  Mn121  1  0.00032899  0.83266259  0.75056595  1
  Mn  Mn122  1  0.24899606  0.50024232  0.12469779  1
  Mn  Mn123  1  0.00063423  0.00173045  0.50059913  1
  Mn  Mn124  1  0.75029678  0.83249479  0.37410708  1
  Mn  Mn125  1  0.74934585  -0.00066600  0.12516339  1
  Mn  Mn126  1  0.74940359  0.16802661  0.87595059  1
  Mn  Mn127  1  0.50026180  0.66736338  0.75064913  1
  Mn  Mn128  1  0.25018516  0.33358975  0.62464852  1
  Mn  Mn129  1  0.49947310  0.00060109  0.25041895  1
  Mn  Mn130  1  0.75035661  0.33456356  0.62531740  1
  Mn  Mn131  1  0.24947198  0.16644615  0.87530682  1
  Mn  Mn132  1  0.75037695  0.00064483  0.62439162  1
  Mn  Mn133  1  0.75072859  0.83230179  0.62413516  1
  Mn  Mn134  1  0.00015054  0.83333818  0.49970664  1
  Mn  Mn135  1  -0.00026597  0.66494146  0.74993292  1
  Mn  Mn136  1  0.25037705  0.16590748  0.12523532  1
  Mn  Mn137  1  0.75036361  0.83200364  0.87387245  1
  Mn  Mn138  1  0.00074855  0.00103364  0.75089000  1
  Mn  Mn139  1  0.49955581  0.33318774  0.00015856  1
  Mn  Mn140  1  0.74938720  0.16776023  0.12505597  1
  Mn  Mn141  1  0.49998519  0.83441508  0.49951938  1
  Mn  Mn142  1  0.00001587  0.66572518  0.24896765  1
  Mn  Mn143  1  0.25073675  0.83197546  0.87481907  1
  Fe  Fe144  1  0.50047679  0.00063151  0.50131410  1
  Fe  Fe145  1  0.24996092  -0.00135245  0.37550516  1
  Fe  Fe146  1  0.75001387  0.33408966  0.12517647  1
  Fe  Fe147  1  0.24969798  0.83333618  0.37545261  1
  Fe  Fe148  1  0.25021788  0.50040611  0.37485126  1
  Fe  Fe149  1  0.75043738  0.16722117  0.37466903  1
  Fe  Fe150  1  0.00029600  0.49904912  0.75107883  1
  Fe  Fe151  1  0.74967831  0.66667398  0.12431220  1
  Fe  Fe152  1  0.00029582  0.16738569  -0.00031151  1
  Fe  Fe153  1  0.00035007  0.16792514  0.49988228  1
  Fe  Fe154  1  0.25040872  0.33331009  0.87450385  1
  Fe  Fe155  1  0.00010828  0.33294948  0.75019163  1
  Fe  Fe156  1  0.75012861  0.50062267  0.87600198  1
  Fe  Fe157  1  0.49960827  0.66622172  0.24900111  1
  Fe  Fe158  1  0.25006424  0.66619801  0.12484542  1
  Fe  Fe159  1  0.49971932  0.50030553  0.24928687  1
  Fe  Fe160  1  0.25051597  0.66667181  0.62481868  1
  Fe  Fe161  1  0.00026882  0.49924891  0.50008507  1
  Fe  Fe162  1  0.00045170  0.33418756  0.24956734  1
  Fe  Fe163  1  0.00023770  0.83289970  -0.00037649  1
  Fe  Fe164  1  0.25003783  0.33313688  0.37475069  1
  Fe  Fe165  1  0.74999720  0.66640744  0.62534060  1
  Fe  Fe166  1  0.74962722  0.66658621  0.87563104  1
  Fe  Fe167  1  0.50018759  0.33343138  0.24975962  1
  Fe  Fe168  1  0.00049025  0.66550570  -0.00033266  1
  Fe  Fe169  1  0.49990139  0.16663258  -0.00020577  1
  Fe  Fe170  1  0.25001940  -0.00087026  0.62531192  1
  Fe  Fe171  1  0.24942090  -0.00117067  0.12572836  1
  Fe  Fe172  1  -0.00001130  0.16705073  0.75056973  1
  Fe  Fe173  1  0.49982694  0.16629963  0.75056097  1
  Fe  Fe174  1  0.49914211  0.33254860  0.75018418  1
  Fe  Fe175  1  0.00041032  0.49881554  0.00024217  1
  Fe  Fe176  1  0.50043972  0.16640339  0.50092919  1
  Fe  Fe177  1  0.00050470  0.33349614  -0.00056778  1
  Fe  Fe178  1  0.25019927  0.50042265  0.87485879  1
  Fe  Fe179  1  0.49928446  0.66630798  -0.00007614  1
  Fe  Fe180  1  0.49937913  0.49956583  0.00032940  1
  Fe  Fe181  1  0.49962734  0.00005345  -0.00032498  1
  Fe  Fe182  1  0.25024907  0.83294611  0.62495563  1
  Fe  Fe183  1  0.49996935  0.83400844  0.75023244  1
  Fe  Fe184  1  0.74960647  0.66701663  0.37415319  1
  Fe  Fe185  1  0.50036618  0.00053912  0.75042037  1
  Fe  Fe186  1  0.00016538  0.49978078  0.24941934  1
  Fe  Fe187  1  0.24980635  0.66677717  0.87486027  1
  Fe  Fe188  1  0.00006208  0.00026179  -0.00064066  1
  Fe  Fe189  1  0.75003153  0.83258951  0.12435882  1
  Fe  Fe190  1  0.75035363  0.33452069  0.87549484  1
  Fe  Fe191  1  0.24984448  0.83271335  0.12553118  1
  P  P192  1  0.04178516  0.25074481  0.10115530  1
  P  P193  1  0.04233800  0.25198936  0.35205467  1
  P  P194  1  0.04264518  0.24925217  0.60311707  1
  P  P195  1  0.04144991  0.24991026  0.85232238  1
  P  P196  1  0.04164020  0.58198498  0.10133011  1
  P  P197  1  0.04227768  0.58136624  0.35214677  1
  P  P198  1  0.04226704  0.58064519  0.60287013  1
  P  P199  1  0.04195875  0.58122364  0.85363392  1
  P  P200  1  0.04132086  0.91668107  0.10082079  1
  P  P201  1  0.04303668  0.91736004  0.35265223  1
  P  P202  1  0.04311710  0.91699322  0.60338215  1
  P  P203  1  0.04288233  0.91654344  0.85432403  1
  P  P204  1  0.54195455  0.24906298  0.10248427  1
  P  P205  1  0.54184055  0.25097824  0.35263746  1
  P  P206  1  0.54175335  0.24860928  0.60368576  1
  P  P207  1  0.54097181  0.24953997  0.85219683  1
  P  P208  1  0.54071977  0.58299888  0.10193531  1
  P  P209  1  0.54123348  0.58363028  0.35080796  1
  P  P210  1  0.54270831  0.58323863  0.60346529  1
  P  P211  1  0.54188148  0.58328438  0.85460599  1
  P  P212  1  0.54196781  0.91791875  0.10225060  1
  P  P213  1  0.54270961  0.91757131  0.35368892  1
  P  P214  1  0.54243041  0.91819384  0.60352058  1
  P  P215  1  0.54129093  0.91721670  0.85206800  1
  P  P216  1  0.45636648  0.08329351  0.14612669  1
  P  P217  1  0.45816430  0.08360989  0.39940619  1
  P  P218  1  0.45897166  0.08336166  0.64837631  1
  P  P219  1  0.45832565  0.08344648  0.89790626  1
  P  P220  1  0.45855341  0.41669708  0.14808976  1
  P  P221  1  0.45741294  0.41678992  0.39578643  1
  P  P222  1  0.45692053  0.41490682  0.64806642  1
  P  P223  1  0.45771000  0.41721629  0.89750074  1
  P  P224  1  0.45799089  0.74848288  0.14693028  1
  P  P225  1  0.45722471  0.74980062  0.39621054  1
  P  P226  1  0.45798252  0.75184737  0.64779017  1
  P  P227  1  0.45760336  0.74946828  0.89762047  1
  P  P228  1  0.95744261  0.08407492  0.14507782  1
  P  P229  1  0.95818310  0.08593461  0.39728530  1
  P  P230  1  0.95816212  0.08548902  0.64778765  1
  P  P231  1  0.95858925  0.08447883  0.89836628  1
  P  P232  1  0.95863817  0.41681803  0.14748934  1
  P  P233  1  0.95778830  0.41816688  0.39692163  1
  P  P234  1  0.95862521  0.41672066  0.64905779  1
  P  P235  1  0.95910529  0.41655640  0.89794788  1
  P  P236  1  0.95827475  0.74949098  0.14498466  1
  P  P237  1  0.95732420  0.74949779  0.39621827  1
  P  P238  1  0.95751481  0.74909201  0.64692401  1
  P  P239  1  0.95895885  0.74909129  0.89855958  1
  P  P240  1  0.20762455  0.08108758  0.22794352  1
  P  P241  1  0.20814825  0.08090787  0.47777657  1
  P  P242  1  0.20807019  0.08181096  0.72738267  1
  P  P243  1  0.20746049  0.08218102  0.97902269  1
  P  P244  1  0.20749612  0.41658810  0.22879652  1
  P  P245  1  0.20871894  0.41713083  0.47620856  1
  P  P246  1  0.20782240  0.41694524  0.72901350  1
  P  P247  1  0.20876366  0.41673089  0.97588867  1
  P  P248  1  0.20827724  0.74931169  0.22643329  1
  P  P249  1  0.20772139  0.75145563  0.47808364  1
  P  P250  1  0.20857840  0.74921800  0.72658407  1
  P  P251  1  0.20814565  0.74837866  0.97814834  1
  P  P252  1  0.70698959  0.08394306  0.22834561  1
  P  P253  1  0.70825016  0.08510003  0.47715272  1
  P  P254  1  0.70743015  0.08386666  0.72851649  1
  P  P255  1  0.70693099  0.08345139  0.97837546  1
  P  P256  1  0.70748139  0.41578962  0.22757309  1
  P  P257  1  0.70632294  0.41760571  0.47840043  1
  P  P258  1  0.70742744  0.41742467  0.72989945  1
  P  P259  1  0.70874653  0.41698658  0.97733974  1
  P  P260  1  0.70809243  0.74964567  0.22606433  1
  P  P261  1  0.70743463  0.74851004  0.47731168  1
  P  P262  1  0.70775262  0.74821796  0.72759795  1
  P  P263  1  0.70779636  0.74863956  0.97797969  1
  P  P264  1  0.29244250  0.25010833  0.02125503  1
  P  P265  1  0.29214792  0.25039336  0.27272027  1
  P  P266  1  0.29260664  0.24999179  0.52099265  1
  P  P267  1  0.29201055  0.25045087  0.77249940  1
  P  P268  1  0.29171566  0.58426681  0.02176482  1
  P  P269  1  0.29169972  0.58268318  0.27213345  1
  P  P270  1  0.29226457  0.58456889  0.52208164  1
  P  P271  1  0.29148442  0.58415764  0.77327380  1
  P  P272  1  0.29134091  0.91583752  0.02411609  1
  P  P273  1  0.29135655  0.91569047  0.27315171  1
  P  P274  1  0.29170262  0.91637514  0.52331319  1
  P  P275  1  0.29278074  0.91582027  0.77128963  1
  P  P276  1  0.79181970  0.25274532  0.02227316  1
  P  P277  1  0.79233075  0.24966028  0.27216516  1
  P  P278  1  0.79325620  0.25064140  0.52181780  1
  P  P279  1  0.79245278  0.25215774  0.77357274  1
  P  P280  1  0.79173332  0.58434103  0.02206918  1
  P  P281  1  0.79176750  0.58509583  0.27156255  1
  P  P282  1  0.79211678  0.58503274  0.52236510  1
  P  P283  1  0.79162893  0.58401057  0.77421720  1
  P  P284  1  0.79205060  0.91501494  0.02230984  1
  P  P285  1  0.79308725  0.91586561  0.27078062  1
  P  P286  1  0.79343396  0.91664095  0.52125912  1
  P  P287  1  0.79355978  0.91629238  0.77157751  1
  O  O288  1  0.03675474  0.25160785  0.18107284  1
  O  O289  1  0.03737264  0.25154491  0.43200174  1
  O  O290  1  0.03750013  0.24917844  0.68299531  1
  O  O291  1  0.03661863  0.25021315  0.93221689  1
  O  O292  1  0.03677772  0.58200189  0.18129774  1
  O  O293  1  0.03714764  0.58125865  0.43211173  1
  O  O294  1  0.03702503  0.58058111  0.68283728  1
  O  O295  1  0.03670891  0.58155643  0.93351456  1
  O  O296  1  0.03658338  0.91696530  0.18082329  1
  O  O297  1  0.03796879  0.91745033  0.43261828  1
  O  O298  1  0.03812943  0.91695096  0.68338596  1
  O  O299  1  0.03727287  0.91640974  0.93422378  1
  O  O300  1  0.53651125  0.24994852  0.18237518  1
  O  O301  1  0.53679919  0.25021881  0.43257407  1
  O  O302  1  0.53625405  0.24895009  0.68356502  1
  O  O303  1  0.53601892  0.24925717  0.93218349  1
  O  O304  1  0.53546817  0.58321899  0.18187677  1
  O  O305  1  0.53669611  0.58354463  0.43082062  1
  O  O306  1  0.53776238  0.58331910  0.68343948  1
  O  O307  1  0.53620492  0.58330710  0.93449664  1
  O  O308  1  0.53715437  0.91742803  0.18222253  1
  O  O309  1  0.53760536  0.91807321  0.43367511  1
  O  O310  1  0.53723388  0.91778676  0.68342599  1
  O  O311  1  0.53608729  0.91768892  0.93202915  1
  O  O312  1  0.46163340  0.08291140  0.06623141  1
  O  O313  1  0.46264806  0.08370596  0.31937149  1
  O  O314  1  0.46402200  0.08303915  0.56850273  1
  O  O315  1  0.46384152  0.08364739  0.81802173  1
  O  O316  1  0.46326964  0.41723797  0.06807682  1
  O  O317  1  0.46294125  0.41672343  0.31589989  1
  O  O318  1  0.46191283  0.41512410  0.56807409  1
  O  O319  1  0.46284074  0.41627100  0.81761002  1
  O  O320  1  0.46329255  0.74842439  0.06698216  1
  O  O321  1  0.46253012  0.74914314  0.31623828  1
  O  O322  1  0.46304661  0.75162831  0.56783182  1
  O  O323  1  0.46280631  0.75033685  0.81770259  1
  O  O324  1  0.96276593  0.08393936  0.06519083  1
  O  O325  1  0.96320590  0.08563095  0.31728464  1
  O  O326  1  0.96352463  0.08575070  0.56784633  1
  O  O327  1  0.96361043  0.08461494  0.81838926  1
  O  O328  1  0.96407310  0.41682210  0.06764647  1
  O  O329  1  0.96305355  0.41797471  0.31707659  1
  O  O330  1  0.96322578  0.41681362  0.56907666  1
  O  O331  1  0.96389035  0.41650576  0.81810185  1
  O  O332  1  0.96379782  0.74948420  0.06510815  1
  O  O333  1  0.96264976  0.74945426  0.31621436  1
  O  O334  1  0.96262914  0.74892996  0.56696247  1
  O  O335  1  0.96362348  0.74879264  0.81853892  1
  O  O336  1  0.21269496  0.08182522  0.05898248  1
  O  O337  1  0.21309441  0.08102644  0.30792114  1
  O  O338  1  0.21354025  0.08093472  0.55773455  1
  O  O339  1  0.21293449  0.08242779  0.80739768  1
  O  O340  1  0.21291301  0.41689104  0.05595813  1
  O  O341  1  0.21304354  0.41670535  0.30864719  1
  O  O342  1  0.21379762  0.41725166  0.55623488  1
  O  O343  1  0.21347246  0.41665629  0.80887508  1
  O  O344  1  0.21335580  0.74849801  0.05799323  1
  O  O345  1  0.21282984  0.75000896  0.30640264  1
  O  O346  1  0.21331677  0.75118228  0.55790494  1
  O  O347  1  0.21372060  0.74881636  0.80658922  1
  O  O348  1  0.71183449  0.08347941  0.05834634  1
  O  O349  1  0.71256130  0.08455976  0.30826602  1
  O  O350  1  0.71356804  0.08490150  0.55713646  1
  O  O351  1  0.71223603  0.08378244  0.80852176  1
  O  O352  1  0.71330587  0.41670233  0.05736993  1
  O  O353  1  0.71230204  0.41628765  0.30753405  1
  O  O354  1  0.71135267  0.41795482  0.55843009  1
  O  O355  1  0.71279406  0.41717876  0.80983909  1
  O  O356  1  0.71314718  0.74923504  0.05787564  1
  O  O357  1  0.71306306  0.74908147  0.30606235  1
  O  O358  1  0.71286671  0.74825682  0.55726928  1
  O  O359  1  0.71288593  0.74813951  0.80757985  1
  O  O360  1  0.28725791  0.25001126  0.19269124  1
  O  O361  1  0.28709609  0.25019561  0.44106082  1
  O  O362  1  0.28734780  0.25013323  0.69247713  1
  O  O363  1  0.28710212  0.25061102  0.94128054  1
  O  O364  1  0.28641985  0.58310930  0.19219020  1
  O  O365  1  0.28681323  0.58375959  0.44214697  1
  O  O366  1  0.28676617  0.58428274  0.69326382  1
  O  O367  1  0.28662754  0.58417830  0.94185684  1
  O  O368  1  0.28604716  0.91583521  0.19324692  1
  O  O369  1  0.28653905  0.91654102  0.44339031  1
  O  O370  1  0.28738847  0.91582517  0.69143131  1
  O  O371  1  0.28692141  0.91536749  0.94410952  1
  O  O372  1  0.78688188  0.25048486  0.19221295  1
  O  O373  1  0.78803918  0.24992242  0.44184885  1
  O  O374  1  0.78779812  0.25191679  0.69356405  1
  O  O375  1  0.78648648  0.25322045  0.94233179  1
  O  O376  1  0.78645406  0.58479289  0.19161519  1
  O  O377  1  0.78670177  0.58503700  0.44240196  1
  O  O378  1  0.78690218  0.58406075  0.69421080  1
  O  O379  1  0.78650478  0.58397291  0.94222750  1
  O  O380  1  0.78752066  0.91529736  0.19084180  1
  O  O381  1  0.78840985  0.91669310  0.44124896  1
  O  O382  1  0.78872093  0.91641082  0.69156481  1
  O  O383  1  0.78711822  0.91507197  0.94230717  1
  O  O384  1  0.22813559  0.24961342  0.05659811  1
  O  O385  1  0.22783112  0.25012686  0.30801317  1
  O  O386  1  0.22838572  0.24961907  0.55654700  1
  O  O387  1  0.22761996  0.25067982  0.80765383  1
  O  O388  1  0.22745310  0.58479465  0.05751764  1
  O  O389  1  0.22754229  0.58222239  0.30800707  1
  O  O390  1  0.22802096  0.58521747  0.55793496  1
  O  O391  1  0.22730626  0.58440989  0.80911670  1
  O  O392  1  0.22704316  0.91620138  0.05953237  1
  O  O393  1  0.22734585  0.91576582  0.30964114  1
  O  O394  1  0.22771567  0.91628167  0.55982425  1
  O  O395  1  0.22861925  0.91560647  0.80710820  1
  O  O396  1  0.72756731  0.25283506  0.05793614  1
  O  O397  1  0.72811354  0.24868397  0.30808454  1
  O  O398  1  0.72884981  0.25095555  0.55697805  1
  O  O399  1  0.72794113  0.25245626  0.80850138  1
  O  O400  1  0.72756749  0.58433471  0.05805516  1
  O  O401  1  0.72748524  0.58540808  0.30732096  1
  O  O402  1  0.72784537  0.58528583  0.55822568  1
  O  O403  1  0.72742060  0.58422053  0.80998701  1
  O  O404  1  0.72770939  0.91460299  0.05768437  1
  O  O405  1  0.72883409  0.91637505  0.30630402  1
  O  O406  1  0.72901250  0.91640413  0.55631561  1
  O  O407  1  0.72894433  0.91609660  0.80616013  1
  O  O408  1  0.27185798  0.08091303  0.19218685  1
  O  O409  1  0.27234371  0.08109363  0.44194088  1
  O  O410  1  0.27243973  0.08122983  0.69202633  1
  O  O411  1  0.27176357  0.08288565  0.94366844  1
  O  O412  1  0.27164956  0.41699560  0.19293664  1
  O  O413  1  0.27280559  0.41701526  0.44024483  1
  O  O414  1  0.27190813  0.41728169  0.69301816  1
  O  O415  1  0.27306005  0.41644943  0.94065320  1
  O  O416  1  0.27252792  0.74888159  0.19075444  1
  O  O417  1  0.27174318  0.75149251  0.44166100  1
  O  O418  1  0.27271552  0.74920934  0.69046592  1
  O  O419  1  0.27235597  0.74755044  0.94216255  1
  O  O420  1  0.77121216  0.08363439  0.19282148  1
  O  O421  1  0.77250966  0.08555298  0.44143502  1
  O  O422  1  0.77198755  0.08385809  0.69382285  1
  O  O423  1  0.77145026  0.08393865  0.94364353  1
  O  O424  1  0.77189194  0.41596410  0.19230837  1
  O  O425  1  0.77078816  0.41761949  0.44350056  1
  O  O426  1  0.77165629  0.41799708  0.69416295  1
  O  O427  1  0.77300481  0.41677963  0.94182896  1
  O  O428  1  0.77227856  0.74985766  0.19015571  1
  O  O429  1  0.77170297  0.74809061  0.44150114  1
  O  O430  1  0.77209278  0.74794814  0.69201595  1
  O  O431  1  0.77201448  0.74809356  0.94204382  1
  O  O432  1  0.02165577  0.08440608  0.18086348  1
  O  O433  1  0.02249496  0.08598026  0.43292444  1
  O  O434  1  0.02243505  0.08564404  0.68363110  1
  O  O435  1  0.02275735  0.08471603  0.93428154  1
  O  O436  1  0.02266131  0.41678827  0.18407722  1
  O  O437  1  0.02198735  0.41794785  0.43313576  1
  O  O438  1  0.02284861  0.41703073  0.68487453  1
  O  O439  1  0.02327097  0.41703484  0.93402691  1
  O  O440  1  0.02240718  0.74933084  0.18095838  1
  O  O441  1  0.02168629  0.74920229  0.43147690  1
  O  O442  1  0.02193003  0.74879357  0.68208262  1
  O  O443  1  0.02317886  0.74986766  0.93416475  1
  O  O444  1  0.52064847  0.08384345  0.18172700  1
  O  O445  1  0.52250261  0.08362400  0.43501196  1
  O  O446  1  0.52294103  0.08419939  0.68484308  1
  O  O447  1  0.52224916  0.08331741  0.93471310  1
  O  O448  1  0.52270914  0.41604050  0.18393038  1
  O  O449  1  0.52148851  0.41626176  0.43194469  1
  O  O450  1  0.52129967  0.41460333  0.68350808  1
  O  O451  1  0.52190382  0.41777087  0.93341968  1
  O  O452  1  0.52221656  0.74835369  0.18278539  1
  O  O453  1  0.52157761  0.75024509  0.43155440  1
  O  O454  1  0.52225131  0.75204491  0.68349205  1
  O  O455  1  0.52183275  0.74928333  0.93333159  1
  O  O456  1  0.47775478  0.24842105  0.06650653  1
  O  O457  1  0.47752836  0.25225431  0.31689274  1
  O  O458  1  0.47765544  0.24783589  0.56736148  1
  O  O459  1  0.47685880  0.24931111  0.81606242  1
  O  O460  1  0.47669923  0.58255868  0.06548680  1
  O  O461  1  0.47696795  0.58394538  0.31523460  1
  O  O462  1  0.47820189  0.58325440  0.56852007  1
  O  O463  1  0.47785378  0.58344913  0.81842018  1
  O  O464  1  0.47754070  0.91808217  0.06701239  1
  O  O465  1  0.47831222  0.91667509  0.31846309  1
  O  O466  1  0.47822109  0.91857700  0.56745378  1
  O  O467  1  0.47728803  0.91656310  0.81579789  1
  O  O468  1  0.97764739  0.25001007  0.06512504  1
  O  O469  1  0.97805524  0.25271770  0.31628760  1
  O  O470  1  0.97842077  0.24937484  0.56707258  1
  O  O471  1  0.97737913  0.24953434  0.81606109  1
  O  O472  1  0.97748871  0.58139649  0.06545018  1
  O  O473  1  0.97799481  0.58151877  0.31640573  1
  O  O474  1  0.97796977  0.58056309  0.56714124  1
  O  O475  1  0.97776840  0.58077289  0.81759475  1
  O  O476  1  0.97720166  0.91586864  0.06497767  1
  O  O477  1  0.97859606  0.91722266  0.31753835  1
  O  O478  1  0.97874552  0.91743179  0.56818104  1
  O  O479  1  0.97871499  0.91680024  0.81846237  1
  O  O480  1  0.07224400  0.31439305  0.07227161  1
  O  O481  1  0.07317933  0.31545529  0.32362174  1
  O  O482  1  0.07376595  0.31285769  0.57506722  1
  O  O483  1  0.07173644  0.31372850  0.82345059  1
  O  O484  1  0.07170164  0.64610676  0.07295891  1
  O  O485  1  0.07333388  0.64511282  0.32443271  1
  O  O486  1  0.07310892  0.64443375  0.57504188  1
  O  O487  1  0.07281641  0.64488927  0.82537193  1
  O  O488  1  0.07128944  0.98083063  0.07261474  1
  O  O489  1  0.07382266  0.98089051  0.32444723  1
  O  O490  1  0.07427107  0.98044978  0.57549665  1
  O  O491  1  0.07422295  0.97992351  0.82624367  1
  O  O492  1  0.57287050  0.31262500  0.07426130  1
  O  O493  1  0.57313259  0.31422742  0.32429380  1
  O  O494  1  0.57260295  0.31224593  0.57549167  1
  O  O495  1  0.57124182  0.31366190  0.82427935  1
  O  O496  1  0.57136992  0.64668772  0.07345377  1
  O  O497  1  0.57227669  0.64704375  0.32253977  1
  O  O498  1  0.57356626  0.64672540  0.57522926  1
  O  O499  1  0.57332763  0.64656749  0.82643757  1
  O  O500  1  0.57270866  0.98133044  0.07376985  1
  O  O501  1  0.57346442  0.98098598  0.32517129  1
  O  O502  1  0.57335334  0.98165306  0.57495888  1
  O  O503  1  0.57189138  0.98090272  0.82361073  1
  O  O504  1  0.42550399  0.01999988  0.17517993  1
  O  O505  1  0.42761254  0.01985485  0.42762828  1
  O  O506  1  0.42879634  0.01949297  0.67731637  1
  O  O507  1  0.42725111  0.01974556  0.92579905  1
  O  O508  1  0.42747928  0.35307915  0.17591520  1
  O  O509  1  0.42568633  0.35381490  0.42417723  1
  O  O510  1  0.42623720  0.35137337  0.67649232  1
  O  O511  1  0.42665035  0.35382843  0.92585964  1
  O  O512  1  0.42688764  0.68521970  0.17536377  1
  O  O513  1  0.42615206  0.68658116  0.42489654  1
  O  O514  1  0.42701953  0.68811866  0.67541477  1
  O  O515  1  0.42702414  0.68575673  0.92587327  1
  O  O516  1  0.92643638  0.02069570  0.17367726  1
  O  O517  1  0.92711842  0.02233647  0.42509917  1
  O  O518  1  0.92738502  0.02157293  0.67539884  1
  O  O519  1  0.92831902  0.02033719  0.92638397  1
  O  O520  1  0.92781996  0.35323872  0.17592212  1
  O  O521  1  0.92651871  0.35483557  0.42531384  1
  O  O522  1  0.92867942  0.35252833  0.67744479  1
  O  O523  1  0.92887781  0.35265104  0.92664403  1
  O  O524  1  0.92695865  0.68612435  0.17317775  1
  O  O525  1  0.92619965  0.68603770  0.42415069  1
  O  O526  1  0.92639974  0.68569341  0.67515641  1
  O  O527  1  0.92900276  0.68492475  0.92679392  1
  O  O528  1  0.17655151  0.01785923  0.19921142  1
  O  O529  1  0.17725308  0.01758058  0.44914423  1
  O  O530  1  0.17713517  0.01824794  0.69937787  1
  O  O531  1  0.17668855  0.01873967  0.95045683  1
  O  O532  1  0.17656556  0.35306487  0.20023086  1
  O  O533  1  0.17800720  0.35323632  0.44834650  1
  O  O534  1  0.17670644  0.35359396  0.70038094  1
  O  O535  1  0.17789482  0.35307981  0.94772996  1
  O  O536  1  0.17738010  0.68559019  0.19842970  1
  O  O537  1  0.17639885  0.68795016  0.44994558  1
  O  O538  1  0.17757964  0.68571334  0.69822354  1
  O  O539  1  0.17665832  0.68545438  0.94910015  1
  O  O540  1  0.67585192  0.02024104  0.20067663  1
  O  O541  1  0.67745810  0.02122762  0.44951480  1
  O  O542  1  0.67657032  0.02043154  0.69999769  1
  O  O543  1  0.67634785  0.01977010  0.95013759  1
  O  O544  1  0.67712657  0.35205706  0.19914342  1
  O  O545  1  0.67540156  0.35397581  0.45053168  1
  O  O546  1  0.67653000  0.35400056  0.70115469  1
  O  O547  1  0.67731554  0.35388126  0.94870026  1
  O  O548  1  0.67717420  0.68622506  0.19734822  1
  O  O549  1  0.67615293  0.68554172  0.44825299  1
  O  O550  1  0.67666369  0.68497038  0.69901988  1
  O  O551  1  0.67669020  0.68522617  0.94959587  1
  O  O552  1  0.32347126  0.31353985  0.04970189  1
  O  O553  1  0.32245416  0.31420887  0.30108064  1
  O  O554  1  0.32382611  0.31328051  0.54931365  1
  O  O555  1  0.32259374  0.31411839  0.80097838  1
  O  O556  1  0.32291389  0.64729005  0.05098373  1
  O  O557  1  0.32274941  0.64622026  0.30017950  1
  O  O558  1  0.32311235  0.64820832  0.55028689  1
  O  O559  1  0.32279582  0.64738987  0.80167410  1
  O  O560  1  0.32227676  0.97942781  0.05213824  1
  O  O561  1  0.32245959  0.97917773  0.30170320  1
  O  O562  1  0.32260188  0.97994106  0.55195039  1
  O  O563  1  0.32385952  0.97920893  0.79989358  1
  O  O564  1  0.82292503  0.31582699  0.05138321  1
  O  O565  1  0.82305258  0.31332394  0.30046204  1
  O  O566  1  0.82415809  0.31446454  0.54963652  1
  O  O567  1  0.82327550  0.31561562  0.80208234  1
  O  O568  1  0.82256593  0.64778360  0.05075375  1
  O  O569  1  0.82287313  0.64837773  0.29995398  1
  O  O570  1  0.82327689  0.64811407  0.55119539  1
  O  O571  1  0.82289709  0.64723943  0.80269368  1
  O  O572  1  0.82282036  0.97891200  0.04986448  1
  O  O573  1  0.82434132  0.97951408  0.29842466  1
  O  O574  1  0.82425742  0.98028190  0.54937566  1
  O  O575  1  0.82440794  0.97972625  0.80019013  1
  O  O576  1  0.42497108  0.14664984  0.17446659  1
  O  O577  1  0.42757274  0.14741634  0.42753400  1
  O  O578  1  0.42716307  0.14651576  0.67655181  1
  O  O579  1  0.42747996  0.14711729  0.92628170  1
  O  O580  1  0.42811310  0.48054064  0.17669850  1
  O  O581  1  0.42665081  0.48052979  0.42416980  1
  O  O582  1  0.42602223  0.47868314  0.67587923  1
  O  O583  1  0.42680313  0.48083075  0.92569770  1
  O  O584  1  0.42715323  0.81237337  0.17464026  1
  O  O585  1  0.42610725  0.81337827  0.42417448  1
  O  O586  1  0.42727790  0.81539493  0.67623689  1
  O  O587  1  0.42618757  0.81278054  0.92596690  1
  O  O588  1  0.92608020  0.14747581  0.17333351  1
  O  O589  1  0.92768995  0.14964320  0.42566717  1
  O  O590  1  0.92697574  0.14859418  0.67674288  1
  O  O591  1  0.92721179  0.14775577  0.92662605  1
  O  O592  1  0.92758127  0.48040480  0.17583497  1
  O  O593  1  0.92705277  0.48162637  0.42588885  1
  O  O594  1  0.92713294  0.47981112  0.67764318  1
  O  O595  1  0.92767177  0.47968009  0.92674870  1
  O  O596  1  0.92704851  0.81287402  0.17335387  1
  O  O597  1  0.92641162  0.81310733  0.42421067  1
  O  O598  1  0.92665332  0.81268754  0.67502876  1
  O  O599  1  0.92744906  0.81245498  0.92636333  1
  O  O600  1  0.07312014  0.18716285  0.07348936  1
  O  O601  1  0.07323783  0.18841242  0.32370994  1
  O  O602  1  0.07340986  0.18596461  0.57382145  1
  O  O603  1  0.07283548  0.18652058  0.82409989  1
  O  O604  1  0.07333739  0.51884405  0.07318065  1
  O  O605  1  0.07314032  0.51813999  0.32314973  1
  O  O606  1  0.07333394  0.51743490  0.57401026  1
  O  O607  1  0.07310267  0.51798518  0.82492724  1
  O  O608  1  0.07289082  0.85327631  0.07315907  1
  O  O609  1  0.07403733  0.85381269  0.32442304  1
  O  O610  1  0.07382614  0.85332549  0.57519536  1
  O  O611  1  0.07406594  0.85306889  0.82597699  1
  O  O612  1  0.57291013  0.18555369  0.07425535  1
  O  O613  1  0.57219139  0.18714549  0.32421766  1
  O  O614  1  0.57298769  0.18532289  0.57499954  1
  O  O615  1  0.57236732  0.18629121  0.82390989  1
  O  O616  1  0.57197347  0.51939464  0.07386615  1
  O  O617  1  0.57157351  0.51971415  0.32227515  1
  O  O618  1  0.57352525  0.51959067  0.57532847  1
  O  O619  1  0.57313947  0.51983903  0.82646920  1
  O  O620  1  0.57285844  0.85417624  0.07425465  1
  O  O621  1  0.57409427  0.85410353  0.32566368  1
  O  O622  1  0.57354518  0.85471720  0.57507261  1
  O  O623  1  0.57244697  0.85346458  0.82439206  1
  O  O624  1  0.32367912  0.18668390  0.04926795  1
  O  O625  1  0.32358042  0.18689861  0.30034686  1
  O  O626  1  0.32373238  0.18639802  0.54899484  1
  O  O627  1  0.32305147  0.18686526  0.80040660  1
  O  O628  1  0.32246131  0.52045987  0.04996390  1
  O  O629  1  0.32262223  0.51917330  0.30049135  1
  O  O630  1  0.32330229  0.52115845  0.55051413  1
  O  O631  1  0.32169222  0.52005158  0.80164200  1
  O  O632  1  0.32169825  0.85197664  0.05267467  1
  O  O633  1  0.32213472  0.85198879  0.30152266  1
  O  O634  1  0.32266366  0.85272289  0.55150228  1
  O  O635  1  0.32403452  0.85249938  0.79977596  1
  O  O636  1  0.82265200  0.18871753  0.04947879  1
  O  O637  1  0.82347819  0.18612125  0.30007549  1
  O  O638  1  0.82447929  0.18760610  0.55073310  1
  O  O639  1  0.82318244  0.18839788  0.80156684  1
  O  O640  1  0.82305704  0.52090971  0.05029277  1
  O  O641  1  0.82249717  0.52122664  0.29949720  1
  O  O642  1  0.82281462  0.52115482  0.55034782  1
  O  O643  1  0.82181216  0.51998312  0.80277480  1
  O  O644  1  0.82296225  0.85157064  0.05063474  1
  O  O645  1  0.82420988  0.85259176  0.29925276  1
  O  O646  1  0.82451038  0.85313799  0.54927111  1
  O  O647  1  0.82454093  0.85273137  0.79964869  1
  O  O648  1  0.17674510  0.14500468  0.20035242  1
  O  O649  1  0.17692110  0.14460309  0.45012011  1
  O  O650  1  0.17738138  0.14554034  0.69922167  1
  O  O651  1  0.17607538  0.14559543  0.95105276  1
  O  O652  1  0.17592496  0.47965780  0.20014396  1
  O  O653  1  0.17793022  0.48093492  0.44839173  1
  O  O654  1  0.17643933  0.48033812  0.70091079  1
  O  O655  1  0.17846355  0.48065424  0.94751421  1
  O  O656  1  0.17781453  0.81297081  0.19745644  1
  O  O657  1  0.17681898  0.81480412  0.44924954  1
  O  O658  1  0.17788052  0.81310191  0.69876866  1
  O  O659  1  0.17770008  0.81228031  0.94985431  1
  O  O660  1  0.67563005  0.14709873  0.19986847  1
  O  O661  1  0.67724619  0.14855524  0.44896546  1
  O  O662  1  0.67659554  0.14754020  0.70058618  1
  O  O663  1  0.67572363  0.14691957  0.95043127  1
  O  O664  1  0.67628488  0.47923907  0.19949588  1
  O  O665  1  0.67526598  0.48092529  0.44986668  1
  O  O666  1  0.67587988  0.48071659  0.70180982  1
  O  O667  1  0.67863618  0.48116558  0.94914442  1
  O  O668  1  0.67736275  0.81355092  0.19823640  1
  O  O669  1  0.67680976  0.81257003  0.44971364  1
  O  O670  1  0.67710788  0.81214247  0.69975850  1
  O  O671  1  0.67677106  0.81210761  0.94944571  1
