# generated using pymatgen
data_Na2MnFe(PO4)2
_symmetry_space_group_name_H-M   'P 1'
_cell_length_a   22.34351067
_cell_length_b   20.09308803
_cell_length_c   19.45045397
_cell_angle_alpha   89.96978877
_cell_angle_beta   89.98954534
_cell_angle_gamma   90.06905227
_symmetry_Int_Tables_number   1
_chemical_formula_structural   Na2MnFe(PO4)2
_chemical_formula_sum   'Na96 Mn48 Fe48 P96 O384'
_cell_volume   8732.27607186
_cell_formula_units_Z   48
loop_
 _symmetry_equiv_pos_site_id
 _symmetry_equiv_pos_as_xyz
  1  'x, y, z'
loop_
 _atom_site_type_symbol
 _atom_site_label
 _atom_site_symmetry_multiplicity
 _atom_site_fract_x
 _atom_site_fract_y
 _atom_site_fract_z
 _atom_site_occupancy
  Na  Na0  1  0.14076642  0.25123262  0.24375925  1
  Na  Na1  1  0.14102710  0.24988861  0.49484988  1
  Na  Na2  1  0.14083601  0.25050284  0.74483647  1
  Na  Na3  1  0.14026584  0.25166736  0.99361412  1
  Na  Na4  1  0.14056581  0.58380279  0.24329795  1
  Na  Na5  1  0.14074380  0.58244292  0.49364482  1
  Na  Na6  1  0.14056790  0.58256062  0.74436944  1
  Na  Na7  1  0.14057494  0.58281873  0.99445099  1
  Na  Na8  1  0.14079687  0.91749740  0.24329626  1
  Na  Na9  1  0.14089972  0.91842160  0.49436336  1
  Na  Na10  1  0.14021432  0.91867230  0.74415367  1
  Na  Na11  1  0.14000926  0.91773087  0.99330691  1
  Na  Na12  1  0.64021025  0.24887441  0.24351239  1
  Na  Na13  1  0.64108827  0.25136155  0.49399608  1
  Na  Na14  1  0.64078550  0.25092724  0.74445366  1
  Na  Na15  1  0.63971819  0.24895573  0.99494730  1
  Na  Na16  1  0.63994564  0.58217278  0.24313693  1
  Na  Na17  1  0.64019575  0.58340212  0.49336587  1
  Na  Na18  1  0.64013197  0.58243816  0.74235089  1
  Na  Na19  1  0.63985232  0.58263811  0.99148488  1
  Na  Na20  1  0.64004553  0.91652512  0.24356964  1
  Na  Na21  1  0.63970270  0.91646788  0.49236419  1
  Na  Na22  1  0.63967840  0.91482789  0.74291456  1
  Na  Na23  1  0.64008302  0.91430820  0.99257412  1
  Na  Na24  1  0.35967876  0.08444416  0.00775113  1
  Na  Na25  1  0.35969013  0.08376640  0.25725641  1
  Na  Na26  1  0.35994052  0.08351848  0.50606058  1
  Na  Na27  1  0.36013492  0.08318290  0.75596239  1
  Na  Na28  1  0.35971738  0.41668441  0.00722731  1
  Na  Na29  1  0.35978480  0.41649385  0.25585847  1
  Na  Na30  1  0.35976438  0.41583613  0.50619188  1
  Na  Na31  1  0.36025960  0.41692688  0.75641577  1
  Na  Na32  1  0.36040494  0.74956613  0.00637802  1
  Na  Na33  1  0.35962376  0.75089756  0.25526801  1
  Na  Na34  1  0.35981326  0.75123106  0.50704502  1
  Na  Na35  1  0.36033979  0.74954183  0.75684818  1
  Na  Na36  1  0.85951898  0.08267857  0.00719169  1
  Na  Na37  1  0.85945394  0.08305246  0.25497620  1
  Na  Na38  1  0.85907483  0.08435304  0.50602555  1
  Na  Na39  1  0.85951266  0.08291337  0.75765856  1
  Na  Na40  1  0.85963873  0.41526844  0.00668490  1
  Na  Na41  1  0.85894332  0.41605884  0.25593090  1
  Na  Na42  1  0.85943419  0.41841707  0.50707525  1
  Na  Na43  1  0.85995537  0.41705544  0.75656606  1
  Na  Na44  1  0.85927953  0.74970556  0.00543907  1
  Na  Na45  1  0.85890225  0.74892681  0.25584039  1
  Na  Na46  1  0.85917803  0.74922515  0.50468258  1
  Na  Na47  1  0.85914000  0.74935201  0.75590735  1
  Na  Na48  1  0.10937196  0.08429604  0.11758116  1
  Na  Na49  1  0.11002047  0.08439997  0.36930002  1
  Na  Na50  1  0.11025368  0.08364285  0.61966409  1
  Na  Na51  1  0.10989294  0.08525221  0.86940316  1
  Na  Na52  1  0.11000660  0.41640111  0.11779462  1
  Na  Na53  1  0.10995241  0.41767927  0.36875556  1
  Na  Na54  1  0.11023345  0.41621849  0.61939800  1
  Na  Na55  1  0.11001295  0.41737903  0.87011167  1
  Na  Na56  1  0.10921223  0.75034441  0.11878186  1
  Na  Na57  1  0.11011171  0.75051046  0.36875911  1
  Na  Na58  1  0.10965455  0.74970582  0.61882285  1
  Na  Na59  1  0.10935991  0.75193565  0.86986372  1
  Na  Na60  1  0.60903413  0.08232370  0.11935403  1
  Na  Na61  1  0.60950946  0.08321872  0.36860323  1
  Na  Na62  1  0.60966286  0.08187081  0.61862385  1
  Na  Na63  1  0.60903161  0.08270150  0.86988294  1
  Na  Na64  1  0.60945173  0.41618503  0.11812646  1
  Na  Na65  1  0.60977725  0.41662108  0.36875347  1
  Na  Na66  1  0.61039103  0.41734058  0.61858224  1
  Na  Na67  1  0.60962914  0.41709743  0.86839460  1
  Na  Na68  1  0.60943591  0.74920118  0.11681038  1
  Na  Na69  1  0.60972224  0.75030349  0.36777255  1
  Na  Na70  1  0.60955333  0.74909038  0.61808951  1
  Na  Na71  1  0.60941505  0.74925222  0.86703521  1
  Na  Na72  1  0.38979542  0.24942109  0.13323126  1
  Na  Na73  1  0.38988137  0.24917563  0.38179278  1
  Na  Na74  1  0.39083113  0.24915442  0.63162736  1
  Na  Na75  1  0.39056740  0.25020406  0.88257279  1
  Na  Na76  1  0.39071179  0.58297857  0.13011332  1
  Na  Na77  1  0.39053033  0.58355739  0.38100294  1
  Na  Na78  1  0.39087328  0.58327287  0.63186461  1
  Na  Na79  1  0.39080492  0.58368495  0.88127270  1
  Na  Na80  1  0.39044488  0.91649158  0.13121829  1
  Na  Na81  1  0.39041832  0.91680708  0.38132389  1
  Na  Na82  1  0.39110262  0.91594496  0.63091940  1
  Na  Na83  1  0.39083493  0.91653077  0.88083571  1
  Na  Na84  1  0.88952276  0.25008387  0.13081586  1
  Na  Na85  1  0.88976513  0.25069771  0.38140825  1
  Na  Na86  1  0.89044511  0.25014894  0.63195638  1
  Na  Na87  1  0.89056886  0.25112993  0.88250000  1
  Na  Na88  1  0.89007193  0.58294332  0.13030820  1
  Na  Na89  1  0.88944053  0.58382502  0.38131119  1
  Na  Na90  1  0.88973746  0.58220719  0.63115603  1
  Na  Na91  1  0.89012317  0.58371292  0.88123631  1
  Na  Na92  1  0.89006508  0.91515556  0.13006937  1
  Na  Na93  1  0.89016397  0.91599517  0.38036319  1
  Na  Na94  1  0.88999480  0.91654996  0.63079114  1
  Na  Na95  1  0.89023686  0.91766337  0.88187560  1
  Mn  Mn96  1  0.74992973  0.49922949  0.87431958  1
  Mn  Mn97  1  0.49965146  0.66598235  0.24884202  1
  Mn  Mn98  1  -0.00017947  0.00026772  0.49993185  1
  Mn  Mn99  1  0.00064062  0.33422199  0.50046253  1
  Mn  Mn100  1  0.74974262  0.00023772  0.37420182  1
  Mn  Mn101  1  0.00027047  0.66683282  0.75028712  1
  Mn  Mn102  1  -0.00069256  0.50078341  0.24942616  1
  Mn  Mn103  1  0.00067433  0.49933059  0.75117813  1
  Mn  Mn104  1  0.25079104  0.49919367  0.37441786  1
  Mn  Mn105  1  -0.00002097  0.66710661  -0.00009760  1
  Mn  Mn106  1  -0.00025202  0.83485884  0.74972416  1
  Mn  Mn107  1  -0.00037607  0.33401854  0.24996951  1
  Mn  Mn108  1  0.49992979  0.66643336  0.49977526  1
  Mn  Mn109  1  0.74948602  0.66649145  0.12432135  1
  Mn  Mn110  1  0.50066862  0.33397493  0.75094629  1
  Mn  Mn111  1  0.24992793  0.66594739  0.62554850  1
  Mn  Mn112  1  0.49969041  0.83350234  0.24933866  1
  Mn  Mn113  1  0.25028659  0.83362325  0.87492669  1
  Mn  Mn114  1  0.25066983  0.00154026  0.87538287  1
  Mn  Mn115  1  -0.00008876  0.16699414  0.75098902  1
  Mn  Mn116  1  0.24985661  0.66700255  0.12516210  1
  Mn  Mn117  1  0.49972448  -0.00035830  0.00010529  1
  Mn  Mn118  1  0.49971405  0.33321889  0.25023356  1
  Mn  Mn119  1  0.25008949  0.00095570  0.12554605  1
  Mn  Mn120  1  0.24949543  0.66572448  0.87611782  1
  Mn  Mn121  1  0.50087137  0.16573066  0.75059611  1
  Mn  Mn122  1  0.00040673  0.83262360  0.24982849  1
  Mn  Mn123  1  0.74996820  0.33349426  0.37509740  1
  Mn  Mn124  1  -0.00025493  0.66580977  0.49991747  1
  Mn  Mn125  1  -0.00032189  0.16677137  0.50083218  1
  Mn  Mn126  1  0.24992348  0.00090056  0.37461330  1
  Mn  Mn127  1  0.74901754  -0.00154196  0.87586077  1
  Mn  Mn128  1  -0.00027423  -0.00005518  0.24898227  1
  Mn  Mn129  1  0.25065160  0.33379927  0.87520677  1
  Mn  Mn130  1  0.74984318  0.16701850  0.87573427  1
  Mn  Mn131  1  -0.00036967  0.16719964  0.24918242  1
  Mn  Mn132  1  0.50083421  0.16524848  0.50096626  1
  Mn  Mn133  1  0.25060251  0.66781324  0.37447971  1
  Mn  Mn134  1  0.00044189  0.83331144  0.49989198  1
  Mn  Mn135  1  0.50049402  0.33376877  0.50033180  1
  Mn  Mn136  1  0.74975985  -0.00141492  0.12551761  1
  Mn  Mn137  1  0.49997482  0.33341179  0.00058967  1
  Mn  Mn138  1  0.74969371  0.16810499  0.62615628  1
  Mn  Mn139  1  0.75012527  0.83204305  0.62381317  1
  Mn  Mn140  1  0.25093145  0.33287574  0.62570853  1
  Mn  Mn141  1  0.74995573  -0.00013026  0.62463510  1
  Mn  Mn142  1  0.24968163  0.83438432  0.62578610  1
  Mn  Mn143  1  0.74983159  0.49874148  0.12398476  1
  Fe  Fe144  1  -0.00038063  0.33381864  0.00006084  1
  Fe  Fe145  1  -0.00031804  0.16739012  -0.00059026  1
  Fe  Fe146  1  0.00013424  0.33367475  0.75080171  1
  Fe  Fe147  1  0.75083681  0.33438367  0.62455639  1
  Fe  Fe148  1  0.00031148  0.50021383  0.50009133  1
  Fe  Fe149  1  0.24978888  0.16735524  0.37546463  1
  Fe  Fe150  1  0.74905185  0.66602323  0.37446372  1
  Fe  Fe151  1  0.75007574  0.50061983  0.62506220  1
  Fe  Fe152  1  0.24987260  0.33318949  0.37477811  1
  Fe  Fe153  1  0.74981304  0.83196384  0.87388814  1
  Fe  Fe154  1  0.25072120  0.16739439  0.87545932  1
  Fe  Fe155  1  0.24997654  0.83439803  0.37565992  1
  Fe  Fe156  1  0.49920096  0.16610728  0.00109699  1
  Fe  Fe157  1  0.50045768  -0.00059465  0.24994053  1
  Fe  Fe158  1  0.50016492  0.83291440  0.49997579  1
  Fe  Fe159  1  0.24966627  0.83389888  0.12502156  1
  Fe  Fe160  1  0.75001199  0.16700947  0.37505072  1
  Fe  Fe161  1  0.49994940  0.50034138  -0.00082269  1
  Fe  Fe162  1  0.74947952  0.50016040  0.37551454  1
  Fe  Fe163  1  0.50007021  0.83298714  0.74961102  1
  Fe  Fe164  1  0.00006394  0.50020551  0.00036872  1
  Fe  Fe165  1  0.74970092  0.83282861  0.37429011  1
  Fe  Fe166  1  0.00000346  0.66628890  0.24964212  1
  Fe  Fe167  1  0.74916794  0.33234892  0.12573134  1
  Fe  Fe168  1  -0.00054089  0.83394842  -0.00030509  1
  Fe  Fe169  1  0.74948334  0.66634754  0.62421164  1
  Fe  Fe170  1  0.25025447  0.49991825  0.12526692  1
  Fe  Fe171  1  0.74996123  0.33306928  0.87531549  1
  Fe  Fe172  1  0.50020214  -0.00126684  0.74980481  1
  Fe  Fe173  1  0.00004503  0.00084449  0.75078976  1
  Fe  Fe174  1  0.74995283  0.66595811  0.87386383  1
  Fe  Fe175  1  0.25012601  0.33335740  0.12529676  1
  Fe  Fe176  1  0.50002340  -0.00106370  0.49988591  1
  Fe  Fe177  1  0.49966040  0.16571971  0.25110175  1
  Fe  Fe178  1  0.25078310  0.00128920  0.62474704  1
  Fe  Fe179  1  0.24971523  0.16799455  0.12583001  1
  Fe  Fe180  1  0.49976425  0.49995167  0.50000786  1
  Fe  Fe181  1  0.50005942  0.83300420  -0.00074383  1
  Fe  Fe182  1  0.25079046  0.16677246  0.62478723  1
  Fe  Fe183  1  0.74949767  0.16618087  0.12522226  1
  Fe  Fe184  1  -0.00009898  0.00042813  -0.00041833  1
  Fe  Fe185  1  0.50034691  0.49999019  0.24930351  1
  Fe  Fe186  1  0.25058832  0.49980011  0.87557630  1
  Fe  Fe187  1  0.50059711  0.66626192  -0.00152759  1
  Fe  Fe188  1  0.74905887  0.83219180  0.12450931  1
  Fe  Fe189  1  0.49994613  0.50033225  0.74977126  1
  Fe  Fe190  1  0.25053306  0.49948098  0.62474187  1
  Fe  Fe191  1  0.50015321  0.66667611  0.74984177  1
  P  P192  1  0.04114932  0.25038147  0.10105919  1
  P  P193  1  0.04273732  0.25064889  0.35307164  1
  P  P194  1  0.04299831  0.25035335  0.60433786  1
  P  P195  1  0.04200918  0.25208714  0.85390137  1
  P  P196  1  0.04238737  0.58270076  0.10267446  1
  P  P197  1  0.04241991  0.58439232  0.35247991  1
  P  P198  1  0.04273421  0.58168511  0.60274326  1
  P  P199  1  0.04298053  0.58349689  0.85424203  1
  P  P200  1  0.04149957  0.91670721  0.10097563  1
  P  P201  1  0.04320982  0.91703390  0.35260522  1
  P  P202  1  0.04300612  0.91737697  0.60367365  1
  P  P203  1  0.04205496  0.91921327  0.85352315  1
  P  P204  1  0.54114561  0.24804301  0.10363159  1
  P  P205  1  0.54200619  0.24871157  0.35268780  1
  P  P206  1  0.54345663  0.24988118  0.60357710  1
  P  P207  1  0.54282073  0.24969948  0.85432232  1
  P  P208  1  0.54182681  0.58292897  0.10055315  1
  P  P209  1  0.54183434  0.58200437  0.35209227  1
  P  P210  1  0.54190344  0.58209933  0.60276538  1
  P  P211  1  0.54138718  0.58327595  0.85154817  1
  P  P212  1  0.54219459  0.91534420  0.10206234  1
  P  P213  1  0.54217001  0.91749315  0.35282810  1
  P  P214  1  0.54169439  0.91570579  0.60189816  1
  P  P215  1  0.54150397  0.91578635  0.85165393  1
  P  P216  1  0.45825344  0.08286230  0.14887505  1
  P  P217  1  0.45831389  0.08158437  0.39724323  1
  P  P218  1  0.45855353  0.08084224  0.64756492  1
  P  P219  1  0.45746442  0.08402271  0.89802193  1
  P  P220  1  0.45818978  0.41808218  0.14692811  1
  P  P221  1  0.45790580  0.41803208  0.39721576  1
  P  P222  1  0.45823214  0.41796003  0.64747557  1
  P  P223  1  0.45787348  0.41825167  0.89734052  1
  P  P224  1  0.45752111  0.74970242  0.14529523  1
  P  P225  1  0.45768894  0.75107519  0.39756950  1
  P  P226  1  0.45870231  0.75002175  0.64810749  1
  P  P227  1  0.45898351  0.75003368  0.89720890  1
  P  P228  1  0.95718146  0.08339884  0.14506265  1
  P  P229  1  0.95666778  0.08381198  0.39664369  1
  P  P230  1  0.95722193  0.08238200  0.64841511  1
  P  P231  1  0.95829117  0.08378945  0.89829075  1
  P  P232  1  0.95704058  0.41675055  0.14572714  1
  P  P233  1  0.95730284  0.41851604  0.39782273  1
  P  P234  1  0.95808640  0.41576243  0.64794383  1
  P  P235  1  0.95838793  0.41701290  0.89867686  1
  P  P236  1  0.95748434  0.74852381  0.14705780  1
  P  P237  1  0.95748887  0.74943101  0.39621003  1
  P  P238  1  0.95707281  0.74980325  0.64690984  1
  P  P239  1  0.95752611  0.75192784  0.89741419  1
  P  P240  1  0.20759265  0.08573066  0.22784348  1
  P  P241  1  0.20818620  0.08499072  0.47815763  1
  P  P242  1  0.20910216  0.08443232  0.72707046  1
  P  P243  1  0.20832793  0.08612006  0.97828884  1
  P  P244  1  0.20872800  0.41642836  0.22666537  1
  P  P245  1  0.20820844  0.41504398  0.47752544  1
  P  P246  1  0.20864326  0.41792938  0.72799565  1
  P  P247  1  0.20853598  0.41789180  0.97848639  1
  P  P248  1  0.20780791  0.75210416  0.22789026  1
  P  P249  1  0.20805993  0.75148289  0.47769536  1
  P  P250  1  0.20705759  0.74980845  0.72864171  1
  P  P251  1  0.20741699  0.75047451  0.97905126  1
  P  P252  1  0.70772537  0.08409558  0.22776511  1
  P  P253  1  0.70762943  0.08494024  0.47735750  1
  P  P254  1  0.70705947  0.08307774  0.72853497  1
  P  P255  1  0.70717430  0.08301201  0.97917996  1
  P  P256  1  0.70728466  0.41523806  0.22761693  1
  P  P257  1  0.70791032  0.41830438  0.47825129  1
  P  P258  1  0.70900903  0.41642607  0.72653821  1
  P  P259  1  0.70754023  0.41446935  0.97755509  1
  P  P260  1  0.70704320  0.75046270  0.22749284  1
  P  P261  1  0.70829087  0.74926402  0.47594880  1
  P  P262  1  0.70775535  0.74793682  0.72721343  1
  P  P263  1  0.70814809  0.74898113  0.97550032  1
  P  P264  1  0.29172489  0.25044948  0.02377341  1
  P  P265  1  0.29146031  0.25027633  0.27308719  1
  P  P266  1  0.29286103  0.24890856  0.52216213  1
  P  P267  1  0.29312509  0.24869865  0.77272071  1
  P  P268  1  0.29223574  0.58177093  0.02259042  1
  P  P269  1  0.29284986  0.58336975  0.27123990  1
  P  P270  1  0.29272464  0.58204868  0.52256712  1
  P  P271  1  0.29219457  0.58170301  0.77272872  1
  P  P272  1  0.29207338  0.91643653  0.02297119  1
  P  P273  1  0.29207871  0.91575474  0.27226570  1
  P  P274  1  0.29214858  0.91845485  0.52241542  1
  P  P275  1  0.29288030  0.91796168  0.77164097  1
  P  P276  1  0.79082868  0.24995256  0.02359737  1
  P  P277  1  0.79171156  0.24857531  0.27192114  1
  P  P278  1  0.79258389  0.25182986  0.52253034  1
  P  P279  1  0.79254967  0.25185296  0.77283086  1
  P  P280  1  0.79220308  0.58311466  0.02082937  1
  P  P281  1  0.79066740  0.58255034  0.27310988  1
  P  P282  1  0.79089349  0.58375570  0.52248074  1
  P  P283  1  0.79196577  0.58395142  0.77141419  1
  P  P284  1  0.79139164  0.91396889  0.02203676  1
  P  P285  1  0.79183337  0.91470524  0.27181106  1
  P  P286  1  0.79228390  0.91618041  0.52064787  1
  P  P287  1  0.79189630  0.91487154  0.77247142  1
  O  O288  1  0.03631539  0.25023578  0.18104679  1
  O  O289  1  0.03789753  0.25065413  0.43307122  1
  O  O290  1  0.03767038  0.25067769  0.68429966  1
  O  O291  1  0.03619619  0.25192949  0.93377006  1
  O  O292  1  0.03701870  0.58345103  0.18260325  1
  O  O293  1  0.03737622  0.58338509  0.43245589  1
  O  O294  1  0.03798139  0.58200886  0.68275081  1
  O  O295  1  0.03758422  0.58311043  0.93414436  1
  O  O296  1  0.03669381  0.91623005  0.18095634  1
  O  O297  1  0.03829092  0.91699442  0.43258152  1
  O  O298  1  0.03791178  0.91797608  0.68367866  1
  O  O299  1  0.03654572  0.91897120  0.93343228  1
  O  O300  1  0.53561393  0.24798392  0.18355668  1
  O  O301  1  0.53731585  0.24901727  0.43267443  1
  O  O302  1  0.53844383  0.24993624  0.68355559  1
  O  O303  1  0.53712417  0.24952629  0.93425361  1
  O  O304  1  0.53710007  0.58298234  0.18052432  1
  O  O305  1  0.53650235  0.58205548  0.43199479  1
  O  O306  1  0.53665847  0.58232630  0.68262137  1
  O  O307  1  0.53651934  0.58344056  0.93145962  1
  O  O308  1  0.53713478  0.91610553  0.18197116  1
  O  O309  1  0.53696989  0.91703444  0.43270365  1
  O  O310  1  0.53645748  0.91535304  0.68178762  1
  O  O311  1  0.53633428  0.91541886  0.93158124  1
  O  O312  1  0.46303170  0.08341725  0.06887759  1
  O  O313  1  0.46382965  0.08203609  0.31736694  1
  O  O314  1  0.46398594  0.08068493  0.56766517  1
  O  O315  1  0.46273831  0.08358993  0.81821724  1
  O  O316  1  0.46366520  0.41803728  0.06701583  1
  O  O317  1  0.46324321  0.41776139  0.31724875  1
  O  O318  1  0.46342581  0.41790148  0.56751943  1
  O  O319  1  0.46332235  0.41817614  0.81741278  1
  O  O320  1  0.46285695  0.74977377  0.06542625  1
  O  O321  1  0.46253741  0.75087358  0.31761931  1
  O  O322  1  0.46350055  0.75001448  0.56815030  1
  O  O323  1  0.46397344  0.74999804  0.81729136  1
  O  O324  1  0.96274830  0.08346703  0.06516367  1
  O  O325  1  0.96166333  0.08391334  0.31662228  1
  O  O326  1  0.96199007  0.08286804  0.56840577  1
  O  O327  1  0.96326007  0.08350177  0.81829923  1
  O  O328  1  0.96240345  0.41668483  0.06583719  1
  O  O329  1  0.96189905  0.41829500  0.31778936  1
  O  O330  1  0.96326082  0.41663773  0.56803571  1
  O  O331  1  0.96357821  0.41620324  0.81872877  1
  O  O332  1  0.96273066  0.74928229  0.06713791  1
  O  O333  1  0.96273410  0.74880218  0.31625613  1
  O  O334  1  0.96223540  0.74948554  0.56693565  1
  O  O335  1  0.96284479  0.75183817  0.81752366  1
  O  O336  1  0.21344926  0.08594979  0.05822182  1
  O  O337  1  0.21271932  0.08558073  0.30778715  1
  O  O338  1  0.21388127  0.08444129  0.55799736  1
  O  O339  1  0.21424353  0.08463983  0.80704572  1
  O  O340  1  0.21348218  0.41769616  0.05835325  1
  O  O341  1  0.21363137  0.41555585  0.30661343  1
  O  O342  1  0.21355280  0.41557206  0.55743729  1
  O  O343  1  0.21405476  0.41826279  0.80792746  1
  O  O344  1  0.21268631  0.75107762  0.05901529  1
  O  O345  1  0.21321206  0.75244438  0.30784965  1
  O  O346  1  0.21306979  0.75080901  0.55768145  1
  O  O347  1  0.21219593  0.74957811  0.80861598  1
  O  O348  1  0.71264395  0.08312941  0.05909061  1
  O  O349  1  0.71307075  0.08449174  0.30768699  1
  O  O350  1  0.71289024  0.08458026  0.55733523  1
  O  O351  1  0.71208436  0.08278947  0.80852730  1
  O  O352  1  0.71258795  0.41442035  0.05749918  1
  O  O353  1  0.71254215  0.41617034  0.30750860  1
  O  O354  1  0.71351533  0.41806399  0.55807211  1
  O  O355  1  0.71354858  0.41631603  0.80651696  1
  O  O356  1  0.71271137  0.74928086  0.05550608  1
  O  O357  1  0.71234377  0.75039084  0.30732913  1
  O  O358  1  0.71321404  0.74849435  0.55587955  1
  O  O359  1  0.71316760  0.74818120  0.80705116  1
  O  O360  1  0.28614491  0.25028427  0.19318586  1
  O  O361  1  0.28731999  0.24930274  0.44233639  1
  O  O362  1  0.28807475  0.24861390  0.69278226  1
  O  O363  1  0.28731067  0.25042964  0.94376850  1
  O  O364  1  0.28739332  0.58305893  0.19134293  1
  O  O365  1  0.28786768  0.58263850  0.44257529  1
  O  O366  1  0.28701351  0.58165966  0.69275996  1
  O  O367  1  0.28688644  0.58141198  0.94264183  1
  O  O368  1  0.28657737  0.91553843  0.19233229  1
  O  O369  1  0.28659012  0.91773846  0.44245925  1
  O  O370  1  0.28762976  0.91864771  0.69172200  1
  O  O371  1  0.28727509  0.91703044  0.94299342  1
  O  O372  1  0.78607088  0.24861350  0.19206279  1
  O  O373  1  0.78721568  0.25117140  0.44261285  1
  O  O374  1  0.78757040  0.25207949  0.69287536  1
  O  O375  1  0.78613051  0.25043326  0.94363303  1
  O  O376  1  0.78586527  0.58267717  0.19313174  1
  O  O377  1  0.78587989  0.58323865  0.44258133  1
  O  O378  1  0.78663364  0.58379836  0.69154953  1
  O  O379  1  0.78708798  0.58347175  0.94090562  1
  O  O380  1  0.78624250  0.91448130  0.19188155  1
  O  O381  1  0.78700303  0.91604342  0.44072001  1
  O  O382  1  0.78717717  0.91537545  0.69244659  1
  O  O383  1  0.78599727  0.91389709  0.94211394  1
  O  O384  1  0.22737242  0.25034581  0.05925687  1
  O  O385  1  0.22742953  0.25053022  0.30958428  1
  O  O386  1  0.22878935  0.24875649  0.55852027  1
  O  O387  1  0.22883036  0.24910796  0.80844228  1
  O  O388  1  0.22806402  0.58194720  0.05852533  1
  O  O389  1  0.22865929  0.58351477  0.30686760  1
  O  O390  1  0.22831442  0.58171974  0.55787107  1
  O  O391  1  0.22792831  0.58168400  0.80847667  1
  O  O392  1  0.22769564  0.91691108  0.05822853  1
  O  O393  1  0.22792676  0.91587756  0.30830644  1
  O  O394  1  0.22807232  0.91912278  0.55856455  1
  O  O395  1  0.22859557  0.91789369  0.80709676  1
  O  O396  1  0.72667564  0.25006169  0.05960816  1
  O  O397  1  0.72765494  0.24858963  0.30830794  1
  O  O398  1  0.72834932  0.25259093  0.55840532  1
  O  O399  1  0.72813938  0.25155060  0.80825475  1
  O  O400  1  0.72787769  0.58277012  0.05614434  1
  O  O401  1  0.72649191  0.58186110  0.30895507  1
  O  O402  1  0.72685049  0.58414543  0.55878752  1
  O  O403  1  0.72778254  0.58388620  0.80746310  1
  O  O404  1  0.72719295  0.91422077  0.05795343  1
  O  O405  1  0.72765908  0.91499151  0.30779002  1
  O  O406  1  0.72799317  0.91604094  0.55614874  1
  O  O407  1  0.72741818  0.91448081  0.80761295  1
  O  O408  1  0.27195564  0.08562123  0.19237468  1
  O  O409  1  0.27218455  0.08514389  0.44164671  1
  O  O410  1  0.27320489  0.08431216  0.69078462  1
  O  O411  1  0.27267055  0.08603340  0.94270679  1
  O  O412  1  0.27291555  0.41685922  0.19081234  1
  O  O413  1  0.27243612  0.41442992  0.44162145  1
  O  O414  1  0.27279963  0.41788332  0.69195012  1
  O  O415  1  0.27273513  0.41759497  0.94251445  1
  O  O416  1  0.27198559  0.75171753  0.19201011  1
  O  O417  1  0.27241595  0.75199691  0.44221948  1
  O  O418  1  0.27148571  0.75000279  0.69361184  1
  O  O419  1  0.27173284  0.74989836  0.94364717  1
  O  O420  1  0.77184286  0.08374367  0.19181242  1
  O  O421  1  0.77185416  0.08494757  0.44157228  1
  O  O422  1  0.77150123  0.08350627  0.69351504  1
  O  O423  1  0.77138432  0.08255187  0.94353367  1
  O  O424  1  0.77152428  0.41455547  0.19173519  1
  O  O425  1  0.77196391  0.41853114  0.44188384  1
  O  O426  1  0.77319627  0.41645397  0.69073493  1
  O  O427  1  0.77187804  0.41481320  0.94198358  1
  O  O428  1  0.77126553  0.75085287  0.19141129  1
  O  O429  1  0.77233901  0.74971850  0.43984324  1
  O  O430  1  0.77189609  0.74755256  0.69104660  1
  O  O431  1  0.77242646  0.74899965  0.93983184  1
  O  O432  1  0.02139492  0.08356757  0.18085925  1
  O  O433  1  0.02120397  0.08399574  0.43150757  1
  O  O434  1  0.02171699  0.08239822  0.68356694  1
  O  O435  1  0.02245376  0.08370922  0.93410450  1
  O  O436  1  0.02132252  0.41711905  0.18130466  1
  O  O437  1  0.02190111  0.41881891  0.43271285  1
  O  O438  1  0.02238992  0.41500779  0.68367992  1
  O  O439  1  0.02250526  0.41742763  0.93480173  1
  O  O440  1  0.02180785  0.74790926  0.18274010  1
  O  O441  1  0.02179967  0.74941072  0.43160500  1
  O  O442  1  0.02151584  0.75047249  0.68192823  1
  O  O443  1  0.02175237  0.75217288  0.93312748  1
  O  O444  1  0.52245135  0.08257075  0.18474355  1
  O  O445  1  0.52240013  0.08091188  0.43352815  1
  O  O446  1  0.52269685  0.08081350  0.68358013  1
  O  O447  1  0.52169608  0.08445053  0.93390015  1
  O  O448  1  0.52229660  0.41768170  0.18301455  1
  O  O449  1  0.52216754  0.41844891  0.43304309  1
  O  O450  1  0.52250929  0.41827783  0.68317097  1
  O  O451  1  0.52211675  0.41799220  0.93307489  1
  O  O452  1  0.52167597  0.74983241  0.18116201  1
  O  O453  1  0.52208066  0.75108828  0.43291538  1
  O  O454  1  0.52283914  0.75029113  0.68401570  1
  O  O455  1  0.52303441  0.75060482  0.93347570  1
  O  O456  1  0.47707282  0.24854499  0.06745884  1
  O  O457  1  0.47761314  0.24896423  0.31749221  1
  O  O458  1  0.47905151  0.24961954  0.56853183  1
  O  O459  1  0.47866288  0.24972638  0.81858152  1
  O  O460  1  0.47763567  0.58281739  0.06471287  1
  O  O461  1  0.47766378  0.58153965  0.31609199  1
  O  O462  1  0.47778011  0.58182952  0.56657474  1
  O  O463  1  0.47732021  0.58285689  0.81540659  1
  O  O464  1  0.47787778  0.91478834  0.06647179  1
  O  O465  1  0.47798018  0.91804462  0.31680346  1
  O  O466  1  0.47765168  0.91578217  0.56540385  1
  O  O467  1  0.47741233  0.91600574  0.81545702  1
  O  O468  1  0.97690159  0.25051223  0.06547745  1
  O  O469  1  0.97818558  0.25047167  0.31826416  1
  O  O470  1  0.97867810  0.25060968  0.56892190  1
  O  O471  1  0.97797872  0.25210228  0.81749597  1
  O  O472  1  0.97816347  0.58206092  0.06687009  1
  O  O473  1  0.97797044  0.58513019  0.31706838  1
  O  O474  1  0.97820723  0.58138444  0.56767935  1
  O  O475  1  0.97869065  0.58331373  0.81879378  1
  O  O476  1  0.97722360  0.91683556  0.06533187  1
  O  O477  1  0.97868922  0.91654599  0.31778263  1
  O  O478  1  0.97857648  0.91669010  0.56854687  1
  O  O479  1  0.97786117  0.91941065  0.81747831  1
  O  O480  1  0.07213078  0.31414157  0.07324701  1
  O  O481  1  0.07340915  0.31442126  0.32479146  1
  O  O482  1  0.07461820  0.31339583  0.57582820  1
  O  O483  1  0.07314414  0.31545411  0.82530923  1
  O  O484  1  0.07353075  0.64623290  0.07462148  1
  O  O485  1  0.07330755  0.64799201  0.32416041  1
  O  O486  1  0.07368280  0.64534980  0.57468469  1
  O  O487  1  0.07377195  0.64731171  0.82624757  1
  O  O488  1  0.07247129  0.98049754  0.07325688  1
  O  O489  1  0.07384672  0.98073711  0.32424751  1
  O  O490  1  0.07388766  0.98080345  0.57497913  1
  O  O491  1  0.07306287  0.98271462  0.82489777  1
  O  O492  1  0.57263586  0.31172886  0.07624689  1
  O  O493  1  0.57337422  0.31218649  0.32474219  1
  O  O494  1  0.57424912  0.31350613  0.57529012  1
  O  O495  1  0.57387342  0.31341696  0.82636474  1
  O  O496  1  0.57215583  0.64687935  0.07179990  1
  O  O497  1  0.57240889  0.64607894  0.32427105  1
  O  O498  1  0.57281052  0.64588757  0.57452597  1
  O  O499  1  0.57173524  0.64717444  0.82266419  1
  O  O500  1  0.57309289  0.97901948  0.07385229  1
  O  O501  1  0.57335480  0.98081277  0.32407292  1
  O  O502  1  0.57272966  0.97932972  0.57365004  1
  O  O503  1  0.57212754  0.97986810  0.82382404  1
  O  O504  1  0.42756132  0.01884562  0.17661624  1
  O  O505  1  0.42695934  0.01831181  0.42576130  1
  O  O506  1  0.42761591  0.01747756  0.67633293  1
  O  O507  1  0.42649697  0.02029417  0.92611361  1
  O  O508  1  0.42680164  0.35442272  0.17452457  1
  O  O509  1  0.42723213  0.35403766  0.42513688  1
  O  O510  1  0.42739661  0.35405300  0.67538634  1
  O  O511  1  0.42658725  0.35464346  0.92528340  1
  O  O512  1  0.42646340  0.68614848  0.17376300  1
  O  O513  1  0.42666209  0.68735772  0.42544298  1
  O  O514  1  0.42842785  0.68596833  0.67666377  1
  O  O515  1  0.42874075  0.68594181  0.92583879  1
  O  O516  1  0.92604502  0.01981330  0.17331291  1
  O  O517  1  0.92580647  0.02011870  0.42466524  1
  O  O518  1  0.92660964  0.01873177  0.67685723  1
  O  O519  1  0.92687678  0.02053008  0.92667303  1
  O  O520  1  0.92606482  0.35328383  0.17443559  1
  O  O521  1  0.92647825  0.35479373  0.42583498  1
  O  O522  1  0.92715719  0.35223027  0.67635996  1
  O  O523  1  0.92745549  0.35350267  0.92732150  1
  O  O524  1  0.92662658  0.68486028  0.17533544  1
  O  O525  1  0.92593448  0.68638001  0.42486449  1
  O  O526  1  0.92652494  0.68603606  0.67527246  1
  O  O527  1  0.92649248  0.68811824  0.92489415  1
  O  O528  1  0.17660405  0.02194916  0.19989289  1
  O  O529  1  0.17675421  0.02163295  0.44983759  1
  O  O530  1  0.17846430  0.02054295  0.69896557  1
  O  O531  1  0.17729044  0.02240522  0.95036253  1
  O  O532  1  0.17798217  0.35291819  0.19768324  1
  O  O533  1  0.17710513  0.35160650  0.44923530  1
  O  O534  1  0.17777556  0.35381420  0.70087411  1
  O  O535  1  0.17721457  0.35446222  0.95012464  1
  O  O536  1  0.17651034  0.68829150  0.20063022  1
  O  O537  1  0.17726022  0.68772263  0.44960055  1
  O  O538  1  0.17606308  0.68630134  0.70040265  1
  O  O539  1  0.17619817  0.68674174  0.95158472  1
  O  O540  1  0.67645746  0.02024235  0.20054382  1
  O  O541  1  0.67641996  0.02138449  0.44949360  1
  O  O542  1  0.67627398  0.01952565  0.70006774  1
  O  O543  1  0.67568890  0.01955616  0.95129715  1
  O  O544  1  0.67632863  0.35150085  0.19980044  1
  O  O545  1  0.67668718  0.35474237  0.45010156  1
  O  O546  1  0.67783021  0.35308528  0.69812860  1
  O  O547  1  0.67676235  0.35107319  0.94882747  1
  O  O548  1  0.67619211  0.68662699  0.19934430  1
  O  O549  1  0.67754343  0.68562273  0.44719604  1
  O  O550  1  0.67649003  0.68473590  0.69849234  1
  O  O551  1  0.67754209  0.68507927  0.94738003  1
  O  O552  1  0.32210144  0.31443740  0.05219077  1
  O  O553  1  0.32261229  0.31388237  0.30125221  1
  O  O554  1  0.32422054  0.31230535  0.55052627  1
  O  O555  1  0.32425289  0.31243825  0.80050495  1
  O  O556  1  0.32333586  0.64569102  0.04976875  1
  O  O557  1  0.32399260  0.64702364  0.29913204  1
  O  O558  1  0.32371855  0.64569672  0.55068532  1
  O  O559  1  0.32314207  0.64558292  0.80048351  1
  O  O560  1  0.32359001  0.97978145  0.05106273  1
  O  O561  1  0.32302626  0.97981579  0.29945186  1
  O  O562  1  0.32319738  0.98207113  0.55032385  1
  O  O563  1  0.32431058  0.98092361  0.80055952  1
  O  O564  1  0.82199467  0.31323634  0.05223544  1
  O  O565  1  0.82304766  0.31220948  0.29976476  1
  O  O566  1  0.82368135  0.31541437  0.55051858  1
  O  O567  1  0.82320837  0.31519212  0.80194803  1
  O  O568  1  0.82336524  0.64636204  0.04948824  1
  O  O569  1  0.82065232  0.64678443  0.30134591  1
  O  O570  1  0.82226257  0.64720471  0.55058516  1
  O  O571  1  0.82289712  0.64733275  0.80023517  1
  O  O572  1  0.82266509  0.97765947  0.04959926  1
  O  O573  1  0.82310430  0.97855252  0.29901825  1
  O  O574  1  0.82322574  0.97983602  0.54883908  1
  O  O575  1  0.82279856  0.97840122  0.80087517  1
  O  O576  1  0.42750797  0.14631757  0.17769804  1
  O  O577  1  0.42750431  0.14529426  0.42546296  1
  O  O578  1  0.42762976  0.14471934  0.67495829  1
  O  O579  1  0.42664951  0.14741382  0.92682155  1
  O  O580  1  0.42761895  0.48158051  0.17547245  1
  O  O581  1  0.42672111  0.48119436  0.42573355  1
  O  O582  1  0.42711945  0.48111656  0.67616271  1
  O  O583  1  0.42712532  0.48168387  0.92583880  1
  O  O584  1  0.42616379  0.81286159  0.17390248  1
  O  O585  1  0.42713168  0.81454398  0.42629044  1
  O  O586  1  0.42727502  0.81321337  0.67637230  1
  O  O587  1  0.42745435  0.81324775  0.92552243  1
  O  O588  1  0.92587275  0.14664058  0.17344918  1
  O  O589  1  0.92569579  0.14712436  0.42518418  1
  O  O590  1  0.92626498  0.14592605  0.67654629  1
  O  O591  1  0.92783704  0.14791637  0.92606651  1
  O  O592  1  0.92556936  0.47995955  0.17401684  1
  O  O593  1  0.92683053  0.48207029  0.42653179  1
  O  O594  1  0.92720586  0.47927774  0.67632339  1
  O  O595  1  0.92755691  0.48090969  0.92616811  1
  O  O596  1  0.92659777  0.81209266  0.17518022  1
  O  O597  1  0.92679182  0.81325587  0.42398825  1
  O  O598  1  0.92566160  0.81311436  0.67470702  1
  O  O599  1  0.92678037  0.81540008  0.92589045  1
  O  O600  1  0.07182499  0.18671246  0.07277453  1
  O  O601  1  0.07375696  0.18738144  0.32465859  1
  O  O602  1  0.07353261  0.18648858  0.57636048  1
  O  O603  1  0.07324493  0.18846768  0.82617717  1
  O  O604  1  0.07321897  0.51907073  0.07460627  1
  O  O605  1  0.07332324  0.52094631  0.32397460  1
  O  O606  1  0.07328685  0.51814381  0.57413212  1
  O  O607  1  0.07441163  0.52034664  0.82595026  1
  O  O608  1  0.07194933  0.85290477  0.07264766  1
  O  O609  1  0.07440313  0.85375006  0.32436425  1
  O  O610  1  0.07417311  0.85383647  0.57579934  1
  O  O611  1  0.07318048  0.85567596  0.82546861  1
  O  O612  1  0.57174653  0.18453691  0.07503397  1
  O  O613  1  0.57228863  0.18493201  0.32428445  1
  O  O614  1  0.57457940  0.18643351  0.57565434  1
  O  O615  1  0.57428929  0.18654989  0.82618691  1
  O  O616  1  0.57305479  0.51955286  0.07236868  1
  O  O617  1  0.57306763  0.51891413  0.32336138  1
  O  O618  1  0.57295337  0.51889133  0.57400774  1
  O  O619  1  0.57278460  0.51991629  0.82336514  1
  O  O620  1  0.57305098  0.85194982  0.07350063  1
  O  O621  1  0.57300402  0.85389494  0.32446005  1
  O  O622  1  0.57244645  0.85207321  0.57321779  1
  O  O623  1  0.57256787  0.85249967  0.82306723  1
  O  O624  1  0.32274141  0.18719518  0.05258592  1
  O  O625  1  0.32222180  0.18662361  0.30152064  1
  O  O626  1  0.32381502  0.18548529  0.55077102  1
  O  O627  1  0.32372949  0.18534528  0.80169366  1
  O  O628  1  0.32311448  0.51854981  0.05149593  1
  O  O629  1  0.32410866  0.52009613  0.29950085  1
  O  O630  1  0.32326152  0.51834069  0.55079976  1
  O  O631  1  0.32315298  0.51847289  0.80156538  1
  O  O632  1  0.32226843  0.85249053  0.05107905  1
  O  O633  1  0.32315511  0.85269169  0.30128789  1
  O  O634  1  0.32312541  0.85487053  0.55051220  1
  O  O635  1  0.32366889  0.85402918  0.79921072  1
  O  O636  1  0.82112135  0.18577609  0.05144958  1
  O  O637  1  0.82261624  0.18523138  0.30075468  1
  O  O638  1  0.82336041  0.18823538  0.55087377  1
  O  O639  1  0.82346185  0.18805600  0.80069441  1
  O  O640  1  0.82323952  0.51955102  0.04885243  1
  O  O641  1  0.82204529  0.51925473  0.30117755  1
  O  O642  1  0.82136137  0.52009421  0.55162465  1
  O  O643  1  0.82322039  0.52045531  0.79954917  1
  O  O644  1  0.82209457  0.85058436  0.05080165  1
  O  O645  1  0.82261803  0.85136445  0.30056876  1
  O  O646  1  0.82359131  0.85289637  0.54890053  1
  O  O647  1  0.82252636  0.85115301  0.80058732  1
  O  O648  1  0.17668496  0.14900707  0.19911892  1
  O  O649  1  0.17724499  0.14851525  0.44981107  1
  O  O650  1  0.17813621  0.14798262  0.69887295  1
  O  O651  1  0.17764271  0.14948597  0.94940821  1
  O  O652  1  0.17783889  0.48031410  0.19913764  1
  O  O653  1  0.17743809  0.47869117  0.44922385  1
  O  O654  1  0.17760746  0.48093381  0.69877896  1
  O  O655  1  0.17791058  0.48134737  0.94954723  1
  O  O656  1  0.17706056  0.81541387  0.19882270  1
  O  O657  1  0.17720726  0.81512339  0.44974280  1
  O  O658  1  0.17594803  0.81333785  0.70084967  1
  O  O659  1  0.17641329  0.81371434  0.95033266  1
  O  O660  1  0.67692785  0.14735906  0.19879620  1
  O  O661  1  0.67706333  0.14872245  0.44935919  1
  O  O662  1  0.67594976  0.14665784  0.70081113  1
  O  O663  1  0.67624037  0.14645650  0.95090667  1
  O  O664  1  0.67637881  0.47860436  0.19888757  1
  O  O665  1  0.67686284  0.48161764  0.44958043  1
  O  O666  1  0.67867592  0.48045477  0.69819771  1
  O  O667  1  0.67657764  0.47813719  0.94951247  1
  O  O668  1  0.67597334  0.81363900  0.19845825  1
  O  O669  1  0.67727209  0.81301100  0.44827840  1
  O  O670  1  0.67691186  0.81162660  0.69892591  1
  O  O671  1  0.67729976  0.81244356  0.94683390  1
