# generated using pymatgen
data_Na2MnFe(PO4)2
_symmetry_space_group_name_H-M   'P 1'
_cell_length_a   22.34229075
_cell_length_b   20.09374636
_cell_length_c   19.45064299
_cell_angle_alpha   89.99686920
_cell_angle_beta   90.02847980
_cell_angle_gamma   90.03234067
_symmetry_Int_Tables_number   1
_chemical_formula_structural   Na2MnFe(PO4)2
_chemical_formula_sum   'Na96 Mn48 Fe48 P96 O384'
_cell_volume   8732.17547019
_cell_formula_units_Z   48
loop_
 _symmetry_equiv_pos_site_id
 _symmetry_equiv_pos_as_xyz
  1  'x, y, z'
loop_
 _atom_site_type_symbol
 _atom_site_label
 _atom_site_symmetry_multiplicity
 _atom_site_fract_x
 _atom_site_fract_y
 _atom_site_fract_z
 _atom_site_occupancy
  Na  Na0  1  0.13995371  0.24901183  0.24343536  1
  Na  Na1  1  0.14005805  0.24861663  0.49199953  1
  Na  Na2  1  0.14035442  0.24810842  0.74342827  1
  Na  Na3  1  0.14029528  0.25013833  0.99349467  1
  Na  Na4  1  0.14089491  0.58438937  0.24429962  1
  Na  Na5  1  0.14061668  0.58409359  0.49336674  1
  Na  Na6  1  0.13996058  0.58357390  0.74340959  1
  Na  Na7  1  0.14076910  0.58449959  0.99308286  1
  Na  Na8  1  0.14093091  0.91838450  0.24316917  1
  Na  Na9  1  0.14120008  0.91803301  0.49444307  1
  Na  Na10  1  0.14076379  0.91797618  0.74394176  1
  Na  Na11  1  0.14018907  0.91864338  0.99369215  1
  Na  Na12  1  0.63966428  0.24884984  0.24403078  1
  Na  Na13  1  0.63970313  0.25031512  0.49323719  1
  Na  Na14  1  0.63960958  0.24875118  0.74375428  1
  Na  Na15  1  0.63986356  0.24906108  0.99157864  1
  Na  Na16  1  0.64002280  0.58249753  0.24420998  1
  Na  Na17  1  0.63990470  0.58262161  0.49393677  1
  Na  Na18  1  0.63982336  0.58225709  0.74363617  1
  Na  Na19  1  0.63975924  0.58188586  0.99294340  1
  Na  Na20  1  0.64033025  0.91660010  0.24459575  1
  Na  Na21  1  0.64026352  0.91738258  0.49536756  1
  Na  Na22  1  0.64040398  0.91613959  0.74387171  1
  Na  Na23  1  0.63999690  0.91749318  0.99414200  1
  Na  Na24  1  0.35988822  0.08325944  0.00762464  1
  Na  Na25  1  0.35978773  0.08327963  0.25780067  1
  Na  Na26  1  0.35994517  0.08244029  0.50675158  1
  Na  Na27  1  0.35989910  0.08264111  0.75582277  1
  Na  Na28  1  0.35969398  0.41679171  0.00562891  1
  Na  Na29  1  0.35952079  0.41555644  0.25713683  1
  Na  Na30  1  0.36020582  0.41486182  0.50704141  1
  Na  Na31  1  0.35985852  0.41585099  0.75696250  1
  Na  Na32  1  0.35924286  0.75114048  0.00570741  1
  Na  Na33  1  0.35932489  0.75133340  0.25682402  1
  Na  Na34  1  0.35960730  0.75111368  0.50682648  1
  Na  Na35  1  0.35986549  0.74997747  0.75685678  1
  Na  Na36  1  0.86026552  0.08402701  0.00518591  1
  Na  Na37  1  0.86011722  0.08458515  0.25505173  1
  Na  Na38  1  0.86028574  0.08454160  0.50633064  1
  Na  Na39  1  0.86035054  0.08375005  0.75729363  1
  Na  Na40  1  0.85953611  0.41574048  0.00453529  1
  Na  Na41  1  0.85972456  0.41592329  0.25626108  1
  Na  Na42  1  0.85972482  0.41712433  0.50560183  1
  Na  Na43  1  0.85977257  0.41612929  0.75673438  1
  Na  Na44  1  0.85932753  0.75113449  0.00613094  1
  Na  Na45  1  0.85955873  0.74939540  0.25585984  1
  Na  Na46  1  0.85944685  0.75049969  0.50653378  1
  Na  Na47  1  0.85913365  0.74983359  0.75626753  1
  Na  Na48  1  0.11012612  0.08454491  0.11742669  1
  Na  Na49  1  0.11046551  0.08509590  0.36796157  1
  Na  Na50  1  0.11038164  0.08484703  0.61801212  1
  Na  Na51  1  0.11058537  0.08422342  0.86867166  1
  Na  Na52  1  0.10967615  0.41523760  0.11890122  1
  Na  Na53  1  0.10971893  0.41506140  0.36864073  1
  Na  Na54  1  0.10933502  0.41713250  0.61854586  1
  Na  Na55  1  0.10951422  0.41585346  0.86838573  1
  Na  Na56  1  0.10980201  0.75189792  0.11826132  1
  Na  Na57  1  0.10980201  0.75074551  0.36948867  1
  Na  Na58  1  0.10977593  0.75128586  0.61918446  1
  Na  Na59  1  0.10939027  0.75223779  0.86863347  1
  Na  Na60  1  0.60948927  0.08251385  0.11882787  1
  Na  Na61  1  0.60948846  0.08301751  0.36968989  1
  Na  Na62  1  0.60976827  0.08387425  0.61913184  1
  Na  Na63  1  0.60961706  0.08358978  0.86816512  1
  Na  Na64  1  0.60921135  0.41528838  0.11875440  1
  Na  Na65  1  0.60964825  0.41610106  0.36864201  1
  Na  Na66  1  0.60899734  0.41562784  0.61917442  1
  Na  Na67  1  0.60901460  0.41633741  0.86704106  1
  Na  Na68  1  0.60883672  0.74822560  0.11940732  1
  Na  Na69  1  0.60916728  0.75033296  0.36947604  1
  Na  Na70  1  0.60916943  0.74929225  0.61920728  1
  Na  Na71  1  0.60877763  0.74885640  0.86794638  1
  Na  Na72  1  0.39030009  0.24779294  0.13185115  1
  Na  Na73  1  0.39039685  0.24890840  0.38283829  1
  Na  Na74  1  0.39044105  0.24985582  0.63067391  1
  Na  Na75  1  0.39023531  0.25008476  0.88098905  1
  Na  Na76  1  0.39033960  0.58211834  0.13038337  1
  Na  Na77  1  0.39087455  0.58280536  0.38148105  1
  Na  Na78  1  0.39098998  0.58215712  0.63222668  1
  Na  Na79  1  0.39004334  0.58273756  0.88039173  1
  Na  Na80  1  0.38970177  0.91638124  0.13343196  1
  Na  Na81  1  0.38969883  0.91785994  0.38210963  1
  Na  Na82  1  0.38993520  0.91685624  0.63257800  1
  Na  Na83  1  0.39029264  0.91628152  0.88173261  1
  Na  Na84  1  0.89039730  0.25015426  0.12929170  1
  Na  Na85  1  0.89040499  0.25046945  0.38041346  1
  Na  Na86  1  0.89089087  0.25055139  0.63102618  1
  Na  Na87  1  0.89049523  0.24886229  0.88130632  1
  Na  Na88  1  0.89074221  0.58224953  0.13082550  1
  Na  Na89  1  0.89049784  0.58235754  0.38166489  1
  Na  Na90  1  0.89043101  0.58423944  0.63088033  1
  Na  Na91  1  0.89046994  0.58232884  0.88121896  1
  Na  Na92  1  0.89029817  0.91843606  0.13005890  1
  Na  Na93  1  0.89089462  0.91746215  0.38128300  1
  Na  Na94  1  0.89076557  0.91870871  0.63217934  1
  Na  Na95  1  0.89075936  0.91886937  0.88168246  1
  Mn  Mn96  1  0.25062082  0.66878258  0.12417344  1
  Mn  Mn97  1  0.49977599  0.83313769  0.25083790  1
  Mn  Mn98  1  0.25076941  0.49935618  0.37481322  1
  Mn  Mn99  1  -0.00027889  0.83398641  0.25010954  1
  Mn  Mn100  1  0.24989053  0.33257442  0.12510963  1
  Mn  Mn101  1  0.74938960  0.50008873  0.62534362  1
  Mn  Mn102  1  0.49957990  0.83241239  0.00098458  1
  Mn  Mn103  1  0.25041975  0.66745561  0.62484898  1
  Mn  Mn104  1  0.49887173  0.66487305  -0.00100355  1
  Mn  Mn105  1  0.49937088  0.33140804  0.24977950  1
  Mn  Mn106  1  0.49973211  0.33247357  -0.00026938  1
  Mn  Mn107  1  0.75062599  0.00027437  0.37506325  1
  Mn  Mn108  1  0.75040426  0.83356306  0.62553700  1
  Mn  Mn109  1  0.49995740  0.00022234  0.00041813  1
  Mn  Mn110  1  0.74927181  0.16710333  0.37501759  1
  Mn  Mn111  1  0.74965832  0.33320844  0.62520904  1
  Mn  Mn112  1  0.75067305  0.16634778  0.62510296  1
  Mn  Mn113  1  0.25002088  0.49922991  0.62455527  1
  Mn  Mn114  1  0.00058186  0.00207065  0.50003793  1
  Mn  Mn115  1  0.00077178  0.49851671  0.00072797  1
  Mn  Mn116  1  0.49936230  0.49939839  0.24985597  1
  Mn  Mn117  1  0.75012469  0.16603493  0.12394799  1
  Mn  Mn118  1  0.74926151  0.83418551  0.12532297  1
  Mn  Mn119  1  0.00041164  0.66723279  0.00004310  1
  Mn  Mn120  1  0.00018735  0.66668230  0.24945734  1
  Mn  Mn121  1  0.49926040  0.83416018  0.49979090  1
  Mn  Mn122  1  0.24969387  0.50044199  0.12550153  1
  Mn  Mn123  1  0.00062991  0.00181808  0.24975713  1
  Mn  Mn124  1  0.74920712  0.66591189  0.37547341  1
  Mn  Mn125  1  0.25071854  0.00039446  0.87531743  1
  Mn  Mn126  1  0.00059452  0.33318398  0.74939293  1
  Mn  Mn127  1  0.25054410  0.66834724  0.37464586  1
  Mn  Mn128  1  0.24943643  0.66775064  0.87479335  1
  Mn  Mn129  1  0.00046811  0.50010173  0.49958959  1
  Mn  Mn130  1  0.24909585  0.33138338  0.62591124  1
  Mn  Mn131  1  -0.00049228  0.83522204  0.74965681  1
  Mn  Mn132  1  0.74938048  0.83386831  0.87529233  1
  Mn  Mn133  1  0.74948800  0.66578709  0.87557590  1
  Mn  Mn134  1  0.00079845  0.49860103  0.25064144  1
  Mn  Mn135  1  0.74918888  0.33319177  0.12401271  1
  Mn  Mn136  1  0.75013809  0.66609430  0.12506632  1
  Mn  Mn137  1  -0.00039379  0.66715702  0.75046183  1
  Mn  Mn138  1  0.25006164  0.33254028  0.87511213  1
  Mn  Mn139  1  0.49986595  0.00041932  0.75058403  1
  Mn  Mn140  1  0.49921270  0.66587599  0.50071165  1
  Mn  Mn141  1  0.74940311  0.49914767  0.12478940  1
  Mn  Mn142  1  0.00048854  0.83369399  0.50082098  1
  Mn  Mn143  1  0.75033749  0.83371712  0.37566335  1
  Fe  Fe144  1  0.00050588  0.16700390  -0.00042844  1
  Fe  Fe145  1  0.49972384  0.66572320  0.25014916  1
  Fe  Fe146  1  0.50025494  0.00054403  0.50109046  1
  Fe  Fe147  1  0.49996784  0.49911540  -0.00083167  1
  Fe  Fe148  1  0.49987981  0.83338009  0.75005430  1
  Fe  Fe149  1  0.75003874  0.33349442  0.37461800  1
  Fe  Fe150  1  0.75030515  0.00024813  0.62556057  1
  Fe  Fe151  1  0.75009653  0.00039998  0.12462142  1
  Fe  Fe152  1  0.25041460  0.16556744  0.62391239  1
  Fe  Fe153  1  0.50045759  0.16547533  0.25119586  1
  Fe  Fe154  1  0.49948564  0.16703206  0.74924756  1
  Fe  Fe155  1  0.50043591  0.49910721  0.50037431  1
  Fe  Fe156  1  -0.00010133  0.16770277  0.24881597  1
  Fe  Fe157  1  0.25076489  0.16678562  0.12562927  1
  Fe  Fe158  1  0.75016428  0.49974308  0.37498593  1
  Fe  Fe159  1  0.00074416  0.00192657  0.75055558  1
  Fe  Fe160  1  0.25040074  0.00073552  0.12534459  1
  Fe  Fe161  1  0.50000574  0.00026147  0.25121921  1
  Fe  Fe162  1  0.25057005  0.16603489  0.87497199  1
  Fe  Fe163  1  -0.00022992  0.33257043  -0.00069479  1
  Fe  Fe164  1  -0.00003986  0.33317794  0.49980272  1
  Fe  Fe165  1  0.50008615  0.33287879  0.50072145  1
  Fe  Fe166  1  0.74969160  0.66619378  0.62517384  1
  Fe  Fe167  1  0.75012462  0.49947953  0.87439242  1
  Fe  Fe168  1  0.25030191  0.83397541  0.62538917  1
  Fe  Fe169  1  0.49970932  0.16616039  0.00010934  1
  Fe  Fe170  1  0.49945088  0.49902906  0.74961259  1
  Fe  Fe171  1  0.25003032  0.00031639  0.37508666  1
  Fe  Fe172  1  0.00026236  0.00135138  -0.00027905  1
  Fe  Fe173  1  0.74961356  0.16584738  0.87437171  1
  Fe  Fe174  1  0.49974296  0.66580639  0.74972973  1
  Fe  Fe175  1  0.24964687  0.83498933  0.12559181  1
  Fe  Fe176  1  0.24988809  0.83487902  0.37556219  1
  Fe  Fe177  1  0.00073187  0.16709262  0.75023363  1
  Fe  Fe178  1  -0.00033997  0.33224531  0.24919871  1
  Fe  Fe179  1  0.74951019  0.33270811  0.87466997  1
  Fe  Fe180  1  0.49978426  0.33278946  0.74948104  1
  Fe  Fe181  1  0.50024854  0.16649897  0.50026105  1
  Fe  Fe182  1  -0.00031601  0.83472419  -0.00066474  1
  Fe  Fe183  1  0.25023805  0.16572781  0.37451399  1
  Fe  Fe184  1  -0.00001916  0.66683650  0.50015675  1
  Fe  Fe185  1  0.24945015  0.50005975  0.87493732  1
  Fe  Fe186  1  0.25004634  0.33207493  0.37538193  1
  Fe  Fe187  1  0.00002584  0.50024614  0.74968914  1
  Fe  Fe188  1  0.25041267  -0.00002530  0.62471180  1
  Fe  Fe189  1  0.74999012  -0.00005982  0.87485005  1
  Fe  Fe190  1  -0.00025949  0.16768567  0.49962541  1
  Fe  Fe191  1  0.25013339  0.83452869  0.87517936  1
  P  P192  1  0.04157282  0.25010800  0.10153319  1
  P  P193  1  0.04138577  0.24996904  0.35157915  1
  P  P194  1  0.04196089  0.25021936  0.60142354  1
  P  P195  1  0.04251179  0.24877923  0.85286796  1
  P  P196  1  0.04357259  0.58307391  0.10308626  1
  P  P197  1  0.04299109  0.58343507  0.35360018  1
  P  P198  1  0.04254968  0.58471372  0.60266938  1
  P  P199  1  0.04233086  0.58221690  0.85248022  1
  P  P200  1  0.04134717  0.91776253  0.10109673  1
  P  P201  1  0.04321289  0.91782729  0.35300153  1
  P  P202  1  0.04293428  0.91871088  0.60372759  1
  P  P203  1  0.04209270  0.91931781  0.85306533  1
  P  P204  1  0.54234014  0.24748868  0.10243851  1
  P  P205  1  0.54182248  0.24806076  0.35365632  1
  P  P206  1  0.54132891  0.24962226  0.60230785  1
  P  P207  1  0.54080358  0.24945947  0.85140099  1
  P  P208  1  0.54189898  0.58117831  0.10210254  1
  P  P209  1  0.54201983  0.58355901  0.35288671  1
  P  P210  1  0.54173618  0.58112455  0.60338445  1
  P  P211  1  0.54086430  0.58196052  0.85121558  1
  P  P212  1  0.54206026  0.91680153  0.10432665  1
  P  P213  1  0.54196237  0.91840290  0.35356338  1
  P  P214  1  0.54147814  0.91752394  0.60350311  1
  P  P215  1  0.54204087  0.91548694  0.85268345  1
  P  P216  1  0.45841161  0.08314840  0.14915044  1
  P  P217  1  0.45885099  0.08313149  0.39861567  1
  P  P218  1  0.45817087  0.08466920  0.64685907  1
  P  P219  1  0.45768587  0.08480738  0.89741777  1
  P  P220  1  0.45670486  0.41531519  0.14655750  1
  P  P221  1  0.45875307  0.41591337  0.39887918  1
  P  P222  1  0.45839160  0.41588260  0.64770400  1
  P  P223  1  0.45778533  0.41725217  0.89645885  1
  P  P224  1  0.45740743  0.74797435  0.14810254  1
  P  P225  1  0.45698725  0.74962744  0.39695670  1
  P  P226  1  0.45844036  0.74986953  0.64866738  1
  P  P227  1  0.45724601  0.74963658  0.89585568  1
  P  P228  1  0.95841615  0.08549138  0.14610138  1
  P  P229  1  0.95806485  0.08603978  0.39684108  1
  P  P230  1  0.95894567  0.08501680  0.64828704  1
  P  P231  1  0.95945117  0.08424223  0.89749337  1
  P  P232  1  0.95781092  0.41453742  0.14712861  1
  P  P233  1  0.95809929  0.41463511  0.39713580  1
  P  P234  1  0.95788827  0.41800202  0.64717724  1
  P  P235  1  0.95807984  0.41501457  0.89682674  1
  P  P236  1  0.95723527  0.75102300  0.14603881  1
  P  P237  1  0.95775935  0.74916246  0.39791347  1
  P  P238  1  0.95704692  0.75046718  0.64668832  1
  P  P239  1  0.95763833  0.75198403  0.89752124  1
  P  P240  1  0.20899385  0.08374508  0.22703807  1
  P  P241  1  0.20916746  0.08315681  0.47684876  1
  P  P242  1  0.20933023  0.08330470  0.72638579  1
  P  P243  1  0.20860616  0.08480642  0.97826447  1
  P  P244  1  0.20750212  0.41564782  0.22879510  1
  P  P245  1  0.20809486  0.41455983  0.47736870  1
  P  P246  1  0.20713229  0.41626350  0.72874855  1
  P  P247  1  0.20777615  0.41739831  0.97731627  1
  P  P248  1  0.20788636  0.75281040  0.22781888  1
  P  P249  1  0.20820427  0.75261079  0.47799233  1
  P  P250  1  0.20796104  0.75205909  0.72780880  1
  P  P251  1  0.20762061  0.75306254  0.97769702  1
  P  P252  1  0.70761709  0.08225337  0.22705623  1
  P  P253  1  0.70742923  0.08306965  0.47886661  1
  P  P254  1  0.70822422  0.08197122  0.72833822  1
  P  P255  1  0.70844692  0.08264912  0.97640493  1
  P  P256  1  0.70687675  0.41592608  0.22877030  1
  P  P257  1  0.70829819  0.41675327  0.47647256  1
  P  P258  1  0.70712952  0.41607814  0.72907790  1
  P  P259  1  0.70767623  0.41616502  0.97550377  1
  P  P260  1  0.70682825  0.74966640  0.22834112  1
  P  P261  1  0.70693008  0.74991774  0.47908735  1
  P  P262  1  0.70755376  0.74844936  0.72748641  1
  P  P263  1  0.70626282  0.75020099  0.97823077  1
  P  P264  1  0.29238323  0.24836059  0.02242879  1
  P  P265  1  0.29156780  0.24920958  0.27347523  1
  P  P266  1  0.29176868  0.24810692  0.52170216  1
  P  P267  1  0.29214208  0.24755222  0.77209944  1
  P  P268  1  0.29223737  0.58366987  0.02113364  1
  P  P269  1  0.29320294  0.58410588  0.27189011  1
  P  P270  1  0.29338513  0.58341228  0.52186563  1
  P  P271  1  0.29154268  0.58255701  0.77262977  1
  P  P272  1  0.29169587  0.91730553  0.02378314  1
  P  P273  1  0.29133703  0.91749199  0.27322976  1
  P  P274  1  0.29164665  0.91678355  0.52314652  1
  P  P275  1  0.29259035  0.91594782  0.77224139  1
  P  P276  1  0.79190246  0.24978270  0.02000994  1
  P  P277  1  0.79183655  0.25093717  0.27220083  1
  P  P278  1  0.79248890  0.25075604  0.52133322  1
  P  P279  1  0.79134716  0.24964583  0.77348596  1
  P  P280  1  0.79265353  0.58219762  0.02128780  1
  P  P281  1  0.79257600  0.58180338  0.27267500  1
  P  P282  1  0.79188960  0.58401318  0.52237177  1
  P  P283  1  0.79222396  0.58224664  0.77223106  1
  P  P284  1  0.79176964  0.91874222  0.02188853  1
  P  P285  1  0.79340633  0.91709774  0.27145915  1
  P  P286  1  0.79299791  0.91834058  0.52322851  1
  P  P287  1  0.79242463  0.91803029  0.77243240  1
  O  O288  1  0.03616153  0.25011607  0.18139205  1
  O  O289  1  0.03627208  0.24994912  0.43144945  1
  O  O290  1  0.03717234  0.24977152  0.68138591  1
  O  O291  1  0.03709305  0.24904282  0.93267823  1
  O  O292  1  0.03840711  0.58297530  0.18305807  1
  O  O293  1  0.03758806  0.58400647  0.43356939  1
  O  O294  1  0.03705297  0.58401199  0.68260089  1
  O  O295  1  0.03737820  0.58226017  0.93244444  1
  O  O296  1  0.03675055  0.91800865  0.18107639  1
  O  O297  1  0.03814812  0.91792298  0.43294856  1
  O  O298  1  0.03753900  0.91940948  0.68364271  1
  O  O299  1  0.03671371  0.91881402  0.93294056  1
  O  O300  1  0.53736851  0.24724082  0.18239849  1
  O  O301  1  0.53656721  0.24850499  0.43350743  1
  O  O302  1  0.53623581  0.24996248  0.68218334  1
  O  O303  1  0.53624110  0.24944889  0.93133452  1
  O  O304  1  0.53669134  0.58187263  0.18200812  1
  O  O305  1  0.53673082  0.58290068  0.43280817  1
  O  O306  1  0.53606397  0.58116757  0.68321437  1
  O  O307  1  0.53606480  0.58173107  0.93117327  1
  O  O308  1  0.53680714  0.91744466  0.18427410  1
  O  O309  1  0.53663426  0.91886285  0.43351579  1
  O  O310  1  0.53616193  0.91672553  0.68345029  1
  O  O311  1  0.53682380  0.91570518  0.93265608  1
  O  O312  1  0.46308446  0.08338553  0.06915347  1
  O  O313  1  0.46412564  0.08274574  0.31870569  1
  O  O314  1  0.46386553  0.08416472  0.56704911  1
  O  O315  1  0.46285667  0.08467699  0.81750396  1
  O  O316  1  0.46190167  0.41556895  0.06663038  1
  O  O317  1  0.46316239  0.41542879  0.31888447  1
  O  O318  1  0.46355147  0.41576994  0.56782613  1
  O  O319  1  0.46298994  0.41718001  0.81657804  1
  O  O320  1  0.46249515  0.74818300  0.06810677  1
  O  O321  1  0.46237210  0.74926936  0.31706905  1
  O  O322  1  0.46291267  0.74977326  0.56865602  1
  O  O323  1  0.46286839  0.75010275  0.81598014  1
  O  O324  1  0.96379535  0.08527582  0.06623852  1
  O  O325  1  0.96319651  0.08606188  0.31690670  1
  O  O326  1  0.96369658  0.08534646  0.56829168  1
  O  O327  1  0.96423255  0.08392566  0.81757338  1
  O  O328  1  0.96312984  0.41445887  0.06718179  1
  O  O329  1  0.96325453  0.41430942  0.31721210  1
  O  O330  1  0.96304474  0.41751615  0.56727512  1
  O  O331  1  0.96343403  0.41592503  0.81692251  1
  O  O332  1  0.96255368  0.75160099  0.06607928  1
  O  O333  1  0.96294598  0.74951336  0.31791544  1
  O  O334  1  0.96240582  0.74979743  0.56677582  1
  O  O335  1  0.96278641  0.75176674  0.81754317  1
  O  O336  1  0.21388307  0.08473198  0.05807664  1
  O  O337  1  0.21364144  0.08338150  0.30692349  1
  O  O338  1  0.21398703  0.08316712  0.55671555  1
  O  O339  1  0.21419757  0.08343554  0.80635017  1
  O  O340  1  0.21261871  0.41727544  0.05731379  1
  O  O341  1  0.21307568  0.41481919  0.30870640  1
  O  O342  1  0.21297340  0.41466296  0.55739424  1
  O  O343  1  0.21240312  0.41686392  0.80869768  1
  O  O344  1  0.21308588  0.75306167  0.05763341  1
  O  O345  1  0.21330878  0.75292604  0.30775803  1
  O  O346  1  0.21359562  0.75236954  0.55794366  1
  O  O347  1  0.21315757  0.75214730  0.80775586  1
  O  O348  1  0.71317941  0.08271786  0.05640021  1
  O  O349  1  0.71243216  0.08288525  0.30701970  1
  O  O350  1  0.71271625  0.08274542  0.55881323  1
  O  O351  1  0.71347820  0.08220492  0.80824959  1
  O  O352  1  0.71229990  0.41615813  0.05555673  1
  O  O353  1  0.71223575  0.41604145  0.30868258  1
  O  O354  1  0.71304882  0.41667664  0.55648987  1
  O  O355  1  0.71243228  0.41614573  0.80893324  1
  O  O356  1  0.71138646  0.75021159  0.05819358  1
  O  O357  1  0.71191719  0.74969864  0.30834229  1
  O  O358  1  0.71244236  0.74943094  0.55903523  1
  O  O359  1  0.71253855  0.74874956  0.80745614  1
  O  O360  1  0.28685323  0.24885111  0.19347433  1
  O  O361  1  0.28660513  0.24886164  0.44181566  1
  O  O362  1  0.28669664  0.24730668  0.69218205  1
  O  O363  1  0.28714780  0.24830151  0.94248100  1
  O  O364  1  0.28787813  0.58428995  0.19193092  1
  O  O365  1  0.28854833  0.58351786  0.44188239  1
  O  O366  1  0.28698023  0.58264271  0.69261083  1
  O  O367  1  0.28634532  0.58320398  0.94121365  1
  O  O368  1  0.28652756  0.91772565  0.19333532  1
  O  O369  1  0.28661346  0.91700027  0.44330154  1
  O  O370  1  0.28734875  0.91604389  0.69242454  1
  O  O371  1  0.28722873  0.91740354  0.94378829  1
  O  O372  1  0.78697700  0.25054388  0.19220893  1
  O  O373  1  0.78717834  0.25127071  0.44140462  1
  O  O374  1  0.78694656  0.24948046  0.69343667  1
  O  O375  1  0.78653655  0.24955302  0.94013510  1
  O  O376  1  0.78761580  0.58205706  0.19265976  1
  O  O377  1  0.78663633  0.58308340  0.44242819  1
  O  O378  1  0.78677480  0.58319032  0.69229088  1
  O  O379  1  0.78747752  0.58172683  0.94130441  1
  O  O380  1  0.78806565  0.91751385  0.19148743  1
  O  O381  1  0.78800797  0.91781533  0.44322410  1
  O  O382  1  0.78737867  0.91807429  0.69246659  1
  O  O383  1  0.78637224  0.91876368  0.94193292  1
  O  O384  1  0.22811349  0.24810123  0.05813983  1
  O  O385  1  0.22732574  0.24963351  0.30913238  1
  O  O386  1  0.22753986  0.24741903  0.55759815  1
  O  O387  1  0.22800342  0.24772101  0.80811307  1
  O  O388  1  0.22813992  0.58449146  0.05704124  1
  O  O389  1  0.22888380  0.58373539  0.30715995  1
  O  O390  1  0.22880777  0.58371134  0.55651468  1
  O  O391  1  0.22721072  0.58304745  0.80782661  1
  O  O392  1  0.22742169  0.91732490  0.05944058  1
  O  O393  1  0.22723356  0.91710897  0.30934492  1
  O  O394  1  0.22763811  0.91638549  0.55949117  1
  O  O395  1  0.22842900  0.91632241  0.80837186  1
  O  O396  1  0.72772325  0.24938501  0.05578988  1
  O  O397  1  0.72750588  0.25126573  0.30762326  1
  O  O398  1  0.72816943  0.24977816  0.55669177  1
  O  O399  1  0.72699656  0.25000003  0.80872791  1
  O  O400  1  0.72819015  0.58258201  0.05628033  1
  O  O401  1  0.72812840  0.58111825  0.30792165  1
  O  O402  1  0.72759850  0.58449221  0.55806802  1
  O  O403  1  0.72792804  0.58141663  0.80789873  1
  O  O404  1  0.72757973  0.91901670  0.05780649  1
  O  O405  1  0.72897187  0.91675727  0.30665000  1
  O  O406  1  0.72860357  0.91841902  0.55856216  1
  O  O407  1  0.72801250  0.91815031  0.80779359  1
  O  O408  1  0.27321377  0.08410763  0.19117099  1
  O  O409  1  0.27320400  0.08319441  0.44067762  1
  O  O410  1  0.27341513  0.08367755  0.69036352  1
  O  O411  1  0.27276437  0.08471854  0.94210380  1
  O  O412  1  0.27176049  0.41596524  0.19331480  1
  O  O413  1  0.27248657  0.41428655  0.44211570  1
  O  O414  1  0.27146092  0.41547272  0.69344728  1
  O  O415  1  0.27207287  0.41705407  0.94195045  1
  O  O416  1  0.27212995  0.75321073  0.19195528  1
  O  O417  1  0.27240168  0.75304485  0.44215124  1
  O  O418  1  0.27225847  0.75196816  0.69211545  1
  O  O419  1  0.27180495  0.75247900  0.94178588  1
  O  O420  1  0.77205385  0.08193930  0.19178767  1
  O  O421  1  0.77174533  0.08389304  0.44356183  1
  O  O422  1  0.77246340  0.08172473  0.69240688  1
  O  O423  1  0.77266748  0.08250413  0.94071922  1
  O  O424  1  0.77118138  0.41599006  0.19323069  1
  O  O425  1  0.77254427  0.41719861  0.44077336  1
  O  O426  1  0.77140408  0.41651673  0.69357206  1
  O  O427  1  0.77206725  0.41595605  0.94014873  1
  O  O428  1  0.77125955  0.75018947  0.19330510  1
  O  O429  1  0.77123790  0.74970324  0.44363834  1
  O  O430  1  0.77187644  0.74846462  0.69206780  1
  O  O431  1  0.77077668  0.75014455  0.94341896  1
  O  O432  1  0.02257777  0.08604086  0.18226235  1
  O  O433  1  0.02239518  0.08633861  0.43250688  1
  O  O434  1  0.02327141  0.08534513  0.68403691  1
  O  O435  1  0.02349737  0.08472660  0.93367591  1
  O  O436  1  0.02207791  0.41427101  0.18294598  1
  O  O437  1  0.02232007  0.41482836  0.43299343  1
  O  O438  1  0.02217135  0.41825431  0.68294074  1
  O  O439  1  0.02227526  0.41422283  0.93281683  1
  O  O440  1  0.02161648  0.75084188  0.18139302  1
  O  O441  1  0.02208750  0.74890960  0.43356429  1
  O  O442  1  0.02134727  0.75087023  0.68212167  1
  O  O443  1  0.02197759  0.75245478  0.93300461  1
  O  O444  1  0.52271751  0.08325822  0.18486974  1
  O  O445  1  0.52283399  0.08343558  0.43517021  1
  O  O446  1  0.52215098  0.08490100  0.68340691  1
  O  O447  1  0.52200640  0.08466111  0.93312545  1
  O  O448  1  0.52102645  0.41527735  0.18194416  1
  O  O449  1  0.52301235  0.41658880  0.43453743  1
  O  O450  1  0.52238336  0.41641819  0.68412263  1
  O  O451  1  0.52193419  0.41712591  0.93265489  1
  O  O452  1  0.52168330  0.74812578  0.18379307  1
  O  O453  1  0.52119140  0.74982125  0.43260619  1
  O  O454  1  0.52265094  0.75007538  0.68424970  1
  O  O455  1  0.52131996  0.74915492  0.93197195  1
  O  O456  1  0.47792494  0.24783328  0.06696645  1
  O  O457  1  0.47766429  0.24722367  0.31746493  1
  O  O458  1  0.47737020  0.24911731  0.56584194  1
  O  O459  1  0.47665026  0.24908517  0.81549481  1
  O  O460  1  0.47757431  0.58027836  0.06634992  1
  O  O461  1  0.47774981  0.58412881  0.31700701  1
  O  O462  1  0.47767473  0.58043671  0.56698784  1
  O  O463  1  0.47674357  0.58193186  0.81520392  1
  O  O464  1  0.47775342  0.91675599  0.06884236  1
  O  O465  1  0.47773627  0.91806778  0.31772340  1
  O  O466  1  0.47730799  0.91816243  0.56757679  1
  O  O467  1  0.47774668  0.91564941  0.81712124  1
  O  O468  1  0.97758508  0.24992257  0.06486503  1
  O  O469  1  0.97729514  0.24973468  0.31510574  1
  O  O470  1  0.97764772  0.25027328  0.56561623  1
  O  O471  1  0.97838531  0.24852285  0.81662582  1
  O  O472  1  0.97912604  0.58293429  0.06804771  1
  O  O473  1  0.97873064  0.58290544  0.31804927  1
  O  O474  1  0.97833049  0.58495465  0.56669844  1
  O  O475  1  0.97794595  0.58217109  0.81706658  1
  O  O476  1  0.97717281  0.91739546  0.06530124  1
  O  O477  1  0.97875844  0.91825475  0.31793819  1
  O  O478  1  0.97868322  0.91838721  0.56820090  1
  O  O479  1  0.97796621  0.91986877  0.81689605  1
  O  O480  1  0.07237872  0.31376775  0.07307444  1
  O  O481  1  0.07218449  0.31357309  0.32298796  1
  O  O482  1  0.07235242  0.31425742  0.57336333  1
  O  O483  1  0.07368128  0.31223509  0.82457023  1
  O  O484  1  0.07446049  0.64668286  0.07496371  1
  O  O485  1  0.07425833  0.64666458  0.32512549  1
  O  O486  1  0.07328983  0.64845289  0.57454638  1
  O  O487  1  0.07341215  0.64606985  0.82510021  1
  O  O488  1  0.07168014  0.98184873  0.07291307  1
  O  O489  1  0.07443495  0.98119414  0.32470683  1
  O  O490  1  0.07424348  0.98185305  0.57506455  1
  O  O491  1  0.07333543  0.98272112  0.82458605  1
  O  O492  1  0.57344152  0.31117590  0.07455234  1
  O  O493  1  0.57243343  0.31180558  0.32515509  1
  O  O494  1  0.57176653  0.31352799  0.57349828  1
  O  O495  1  0.57096918  0.31353467  0.82289137  1
  O  O496  1  0.57269794  0.64479267  0.07373754  1
  O  O497  1  0.57279845  0.64721550  0.32455719  1
  O  O498  1  0.57248352  0.64508304  0.57567625  1
  O  O499  1  0.57119177  0.64612252  0.82303430  1
  O  O500  1  0.57338589  0.97987637  0.07542822  1
  O  O501  1  0.57291880  0.98161874  0.32460340  1
  O  O502  1  0.57246820  0.98123942  0.57568204  1
  O  O503  1  0.57326026  0.97917043  0.82519333  1
  O  O504  1  0.42779804  0.01929486  0.17744523  1
  O  O505  1  0.42801232  0.01951328  0.42727032  1
  O  O506  1  0.42690510  0.02122689  0.67512235  1
  O  O507  1  0.42666552  0.02105521  0.92537288  1
  O  O508  1  0.42584038  0.35158770  0.17471207  1
  O  O509  1  0.42865188  0.35188339  0.42749105  1
  O  O510  1  0.42808543  0.35183822  0.67627364  1
  O  O511  1  0.42647056  0.35367621  0.92439584  1
  O  O512  1  0.42695866  0.68418939  0.17630719  1
  O  O513  1  0.42563804  0.68652098  0.42556151  1
  O  O514  1  0.42810496  0.68580340  0.67686728  1
  O  O515  1  0.42573730  0.68612676  0.92358520  1
  O  O516  1  0.92756895  0.02178483  0.17432139  1
  O  O517  1  0.92732192  0.02214835  0.42479710  1
  O  O518  1  0.92874290  0.02098488  0.67665231  1
  O  O519  1  0.92898920  0.02049929  0.92650433  1
  O  O520  1  0.92655509  0.35128602  0.17555987  1
  O  O521  1  0.92723587  0.35139700  0.42617697  1
  O  O522  1  0.92674060  0.35442836  0.67521327  1
  O  O523  1  0.92711406  0.35128684  0.92463879  1
  O  O524  1  0.92626699  0.68721421  0.17377562  1
  O  O525  1  0.92694064  0.68554156  0.42604260  1
  O  O526  1  0.92579025  0.68734506  0.67545362  1
  O  O527  1  0.92681823  0.68808756  0.92507601  1
  O  O528  1  0.17855312  0.02003657  0.19787325  1
  O  O529  1  0.17828274  0.01954646  0.44826003  1
  O  O530  1  0.17921647  0.01912591  0.69811565  1
  O  O531  1  0.17747221  0.02122456  0.95003610  1
  O  O532  1  0.17626893  0.35250852  0.19986722  1
  O  O533  1  0.17723638  0.35105142  0.44897010  1
  O  O534  1  0.17580351  0.35259093  0.70113730  1
  O  O535  1  0.17644106  0.35378590  0.94975002  1
  O  O536  1  0.17723809  0.68882467  0.20002574  1
  O  O537  1  0.17753988  0.68863903  0.45008437  1
  O  O538  1  0.17699558  0.68818907  0.70010364  1
  O  O539  1  0.17610359  0.68953807  0.95001980  1
  O  O540  1  0.67692820  0.01865152  0.19873199  1
  O  O541  1  0.67654451  0.01961884  0.45042846  1
  O  O542  1  0.67712857  0.01865223  0.69967300  1
  O  O543  1  0.67702490  0.01941467  0.94809543  1
  O  O544  1  0.67568815  0.35257271  0.20009079  1
  O  O545  1  0.67793817  0.35274966  0.44834222  1
  O  O546  1  0.67626842  0.35243883  0.70062597  1
  O  O547  1  0.67678769  0.35241807  0.94750596  1
  O  O548  1  0.67627520  0.68585418  0.20020581  1
  O  O549  1  0.67516958  0.68696671  0.45062057  1
  O  O550  1  0.67696769  0.68475955  0.69915438  1
  O  O551  1  0.67518874  0.68672617  0.95002078  1
  O  O552  1  0.32315832  0.31234391  0.05007043  1
  O  O553  1  0.32274012  0.31272497  0.30165678  1
  O  O554  1  0.32267914  0.31153130  0.55064811  1
  O  O555  1  0.32313807  0.31147320  0.79956490  1
  O  O556  1  0.32376708  0.64730004  0.04850847  1
  O  O557  1  0.32401367  0.64771207  0.30000314  1
  O  O558  1  0.32449087  0.64681064  0.55025165  1
  O  O559  1  0.32304671  0.64602497  0.80019638  1
  O  O560  1  0.32208529  0.98123256  0.05238883  1
  O  O561  1  0.32175746  0.98133635  0.30213717  1
  O  O562  1  0.32197602  0.98076600  0.55185702  1
  O  O563  1  0.32403795  0.97940948  0.80036029  1
  O  O564  1  0.82284706  0.31333585  0.04836743  1
  O  O565  1  0.82263294  0.31443389  0.30075851  1
  O  O566  1  0.82323270  0.31420150  0.55007791  1
  O  O567  1  0.82250992  0.31313008  0.80149552  1
  O  O568  1  0.82368716  0.64589917  0.04920025  1
  O  O569  1  0.82323502  0.64563710  0.30059515  1
  O  O570  1  0.82258605  0.64770898  0.55065816  1
  O  O571  1  0.82326700  0.64569307  0.80063056  1
  O  O572  1  0.82290360  0.98208671  0.05036354  1
  O  O573  1  0.82454276  0.98049874  0.29984911  1
  O  O574  1  0.82366231  0.98203118  0.55143367  1
  O  O575  1  0.82348871  0.98123611  0.80126051  1
  O  O576  1  0.42751190  0.14651697  0.17791239  1
  O  O577  1  0.42770130  0.14669020  0.42660579  1
  O  O578  1  0.42713869  0.14815354  0.67509339  1
  O  O579  1  0.42697456  0.14813566  0.92627412  1
  O  O580  1  0.42536680  0.47840129  0.17516157  1
  O  O581  1  0.42761432  0.47941763  0.42676996  1
  O  O582  1  0.42673372  0.47898014  0.67606375  1
  O  O583  1  0.42712186  0.48069858  0.92536616  1
  O  O584  1  0.42625827  0.81161329  0.17574125  1
  O  O585  1  0.42603903  0.81340593  0.42476052  1
  O  O586  1  0.42748399  0.81348630  0.67664140  1
  O  O587  1  0.42613954  0.81286327  0.92481031  1
  O  O588  1  0.92707400  0.14867713  0.17468324  1
  O  O589  1  0.92687591  0.14909613  0.42572826  1
  O  O590  1  0.92764208  0.14824752  0.67677483  1
  O  O591  1  0.92796390  0.14750278  0.92568678  1
  O  O592  1  0.92714932  0.47843401  0.17501759  1
  O  O593  1  0.92707376  0.47843068  0.42468606  1
  O  O594  1  0.92729021  0.48163421  0.67569898  1
  O  O595  1  0.92715521  0.47842144  0.92532875  1
  O  O596  1  0.92606719  0.81420701  0.17475309  1
  O  O597  1  0.92689369  0.81297402  0.42561963  1
  O  O598  1  0.92598223  0.81420393  0.67431445  1
  O  O599  1  0.92670768  0.81553959  0.92558903  1
  O  O600  1  0.07278741  0.18665218  0.07333812  1
  O  O601  1  0.07243940  0.18655274  0.32288773  1
  O  O602  1  0.07290251  0.18689496  0.57266007  1
  O  O603  1  0.07356518  0.18545681  0.82413783  1
  O  O604  1  0.07471988  0.51958877  0.07519478  1
  O  O605  1  0.07409610  0.51964447  0.32614606  1
  O  O606  1  0.07387109  0.52132722  0.57453153  1
  O  O607  1  0.07278896  0.51864679  0.82375492  1
  O  O608  1  0.07241153  0.85430766  0.07294932  1
  O  O609  1  0.07376575  0.85411865  0.32488817  1
  O  O610  1  0.07394379  0.85496701  0.57613084  1
  O  O611  1  0.07303221  0.85573509  0.82474512  1
  O  O612  1  0.57291850  0.18416017  0.07323754  1
  O  O613  1  0.57321773  0.18484183  0.32519330  1
  O  O614  1  0.57284286  0.18635328  0.57421024  1
  O  O615  1  0.57212954  0.18621793  0.82296423  1
  O  O616  1  0.57285510  0.51767024  0.07371139  1
  O  O617  1  0.57287886  0.51996611  0.32470009  1
  O  O618  1  0.57310696  0.51803546  0.57454832  1
  O  O619  1  0.57220294  0.51877918  0.82288886  1
  O  O620  1  0.57295008  0.85299959  0.07669777  1
  O  O621  1  0.57309827  0.85455113  0.32631371  1
  O  O622  1  0.57251918  0.85407792  0.57518476  1
  O  O623  1  0.57265779  0.85196417  0.82408152  1
  O  O624  1  0.32351912  0.18533207  0.05151238  1
  O  O625  1  0.32197432  0.18541122  0.30209002  1
  O  O626  1  0.32292195  0.18464263  0.54991143  1
  O  O627  1  0.32314792  0.18437679  0.80090959  1
  O  O628  1  0.32324924  0.52029786  0.04954979  1
  O  O629  1  0.32445196  0.52058114  0.29967646  1
  O  O630  1  0.32401344  0.51969211  0.55002407  1
  O  O631  1  0.32160669  0.51864359  0.80130168  1
  O  O632  1  0.32272656  0.85392504  0.05222312  1
  O  O633  1  0.32265257  0.85424580  0.30179866  1
  O  O634  1  0.32307898  0.85361455  0.55174434  1
  O  O635  1  0.32313490  0.85250360  0.80134030  1
  O  O636  1  0.82339625  0.18662913  0.04859446  1
  O  O637  1  0.82269717  0.18719644  0.30003605  1
  O  O638  1  0.82398767  0.18744372  0.54935086  1
  O  O639  1  0.82150971  0.18560060  0.80179658  1
  O  O640  1  0.82377405  0.51890752  0.04981438  1
  O  O641  1  0.82351489  0.51836380  0.30106826  1
  O  O642  1  0.82303147  0.52055843  0.55060809  1
  O  O643  1  0.82314173  0.51856130  0.80019264  1
  O  O644  1  0.82256422  0.85485113  0.04948175  1
  O  O645  1  0.82439405  0.85358839  0.29978670  1
  O  O646  1  0.82402425  0.85474333  0.55110178  1
  O  O647  1  0.82306301  0.85405343  0.80021860  1
  O  O648  1  0.17781851  0.14717394  0.19868875  1
  O  O649  1  0.17818588  0.14658417  0.44800598  1
  O  O650  1  0.17787021  0.14639050  0.69780536  1
  O  O651  1  0.17776929  0.14807837  0.94914602  1
  O  O652  1  0.17637868  0.47942276  0.20139849  1
  O  O653  1  0.17725461  0.47841248  0.44980702  1
  O  O654  1  0.17621678  0.47948987  0.69980322  1
  O  O655  1  0.17744840  0.48112770  0.94862900  1
  O  O656  1  0.17659918  0.81594665  0.19914806  1
  O  O657  1  0.17687211  0.81576515  0.44952406  1
  O  O658  1  0.17703163  0.81536877  0.69916253  1
  O  O659  1  0.17716246  0.81665016  0.94902328  1
  O  O660  1  0.67683207  0.14589145  0.19882205  1
  O  O661  1  0.67605217  0.14645590  0.45080909  1
  O  O662  1  0.67729151  0.14569979  0.70027043  1
  O  O663  1  0.67817167  0.14663294  0.94777958  1
  O  O664  1  0.67565537  0.47922147  0.20010516  1
  O  O665  1  0.67732377  0.48035149  0.44849805  1
  O  O666  1  0.67564065  0.47910805  0.70032124  1
  O  O667  1  0.67724686  0.47999055  0.94729884  1
  O  O668  1  0.67541122  0.81295765  0.20035478  1
  O  O669  1  0.67635681  0.81392308  0.45132307  1
  O  O670  1  0.67647324  0.81213352  0.69984432  1
  O  O671  1  0.67537594  0.81373551  0.94998358  1
