# generated using pymatgen
data_Na2MnFe(PO4)2
_symmetry_space_group_name_H-M   'P 1'
_cell_length_a   22.34268441
_cell_length_b   20.09327873
_cell_length_c   19.45036547
_cell_angle_alpha   89.96209892
_cell_angle_beta   89.99973866
_cell_angle_gamma   89.95741014
_symmetry_Int_Tables_number   1
_chemical_formula_structural   Na2MnFe(PO4)2
_chemical_formula_sum   'Na96 Mn48 Fe48 P96 O384'
_cell_volume   8731.99967727
_cell_formula_units_Z   48
loop_
 _symmetry_equiv_pos_site_id
 _symmetry_equiv_pos_as_xyz
  1  'x, y, z'
loop_
 _atom_site_type_symbol
 _atom_site_label
 _atom_site_symmetry_multiplicity
 _atom_site_fract_x
 _atom_site_fract_y
 _atom_site_fract_z
 _atom_site_occupancy
  Na  Na0  1  0.14026341  0.25060619  0.24409270  1
  Na  Na1  1  0.14042546  0.25062671  0.49449439  1
  Na  Na2  1  0.14112741  0.24927098  0.74417442  1
  Na  Na3  1  0.14070516  0.25101519  0.99337371  1
  Na  Na4  1  0.14023580  0.58373224  0.24245439  1
  Na  Na5  1  0.14082205  0.58449769  0.49260960  1
  Na  Na6  1  0.14075865  0.58306248  0.74390542  1
  Na  Na7  1  0.14040940  0.58402447  0.99386365  1
  Na  Na8  1  0.14040909  0.91620692  0.24383123  1
  Na  Na9  1  0.14003476  0.91709393  0.49423327  1
  Na  Na10  1  0.14064864  0.91797282  0.74334627  1
  Na  Na11  1  0.14105719  0.91767848  0.99421980  1
  Na  Na12  1  0.63990304  0.24713080  0.24327599  1
  Na  Na13  1  0.64002751  0.24942377  0.49474955  1
  Na  Na14  1  0.64049527  0.25030800  0.74517125  1
  Na  Na15  1  0.64001255  0.24882348  0.99357926  1
  Na  Na16  1  0.63978156  0.58329899  0.24250473  1
  Na  Na17  1  0.64040376  0.58409880  0.49392554  1
  Na  Na18  1  0.64022877  0.58476488  0.74442218  1
  Na  Na19  1  0.63995255  0.58431374  0.99212556  1
  Na  Na20  1  0.63969844  0.91469144  0.24326873  1
  Na  Na21  1  0.63958119  0.91696269  0.49326385  1
  Na  Na22  1  0.64021989  0.91821016  0.74366531  1
  Na  Na23  1  0.64051924  0.91575447  0.99359673  1
  Na  Na24  1  0.35981319  0.08464747  0.00733734  1
  Na  Na25  1  0.36017118  0.08270973  0.25719171  1
  Na  Na26  1  0.35938297  0.08269308  0.50779932  1
  Na  Na27  1  0.35974667  0.08379237  0.75639889  1
  Na  Na28  1  0.35971616  0.41766626  0.00645393  1
  Na  Na29  1  0.35939883  0.41731273  0.25533254  1
  Na  Na30  1  0.35893784  0.41670038  0.50581882  1
  Na  Na31  1  0.35908078  0.41570572  0.75734794  1
  Na  Na32  1  0.36057382  0.75010246  0.00766460  1
  Na  Na33  1  0.35996678  0.74938969  0.25683324  1
  Na  Na34  1  0.35972126  0.75107702  0.50576478  1
  Na  Na35  1  0.35983274  0.74974494  0.75644738  1
  Na  Na36  1  0.86042805  0.08242677  0.00647430  1
  Na  Na37  1  0.85982967  0.08100753  0.25673829  1
  Na  Na38  1  0.85971252  0.08359449  0.50719960  1
  Na  Na39  1  0.85959368  0.08332922  0.75653141  1
  Na  Na40  1  0.85945227  0.41665348  0.00611407  1
  Na  Na41  1  0.85986522  0.41552549  0.25636381  1
  Na  Na42  1  0.85925787  0.41583056  0.50517733  1
  Na  Na43  1  0.85911667  0.41676667  0.75563220  1
  Na  Na44  1  0.86009266  0.75016048  0.00523858  1
  Na  Na45  1  0.85969727  0.74887236  0.25512539  1
  Na  Na46  1  0.85971353  0.75048379  0.50499798  1
  Na  Na47  1  0.85951066  0.75106256  0.75678153  1
  Na  Na48  1  0.10944240  0.08350946  0.11923840  1
  Na  Na49  1  0.10939532  0.08437115  0.37058404  1
  Na  Na50  1  0.10990906  0.08305499  0.61894718  1
  Na  Na51  1  0.11027021  0.08396018  0.86921974  1
  Na  Na52  1  0.10948450  0.41631044  0.11845932  1
  Na  Na53  1  0.10927556  0.41762088  0.36754158  1
  Na  Na54  1  0.11001204  0.41591336  0.61872031  1
  Na  Na55  1  0.11024853  0.41727233  0.86818923  1
  Na  Na56  1  0.11051473  0.75030009  0.11869990  1
  Na  Na57  1  0.11015425  0.75050931  0.36693997  1
  Na  Na58  1  0.10977204  0.75099561  0.61829839  1
  Na  Na59  1  0.11016071  0.75067742  0.86917977  1
  Na  Na60  1  0.60958228  0.08177520  0.11923732  1
  Na  Na61  1  0.60918325  0.08185314  0.36847734  1
  Na  Na62  1  0.60943439  0.08215538  0.61865336  1
  Na  Na63  1  0.60968550  0.08351072  0.86936956  1
  Na  Na64  1  0.60891232  0.41614805  0.11725010  1
  Na  Na65  1  0.60905623  0.41604413  0.36858304  1
  Na  Na66  1  0.60953803  0.41605519  0.61941630  1
  Na  Na67  1  0.60961068  0.41685715  0.86916401  1
  Na  Na68  1  0.60956285  0.74889848  0.11787491  1
  Na  Na69  1  0.60940519  0.75139811  0.36813733  1
  Na  Na70  1  0.60959769  0.75095573  0.61914518  1
  Na  Na71  1  0.61003459  0.75097404  0.86839383  1
  Na  Na72  1  0.39020484  0.24997141  0.13062037  1
  Na  Na73  1  0.39055233  0.24849915  0.38149077  1
  Na  Na74  1  0.38966027  0.24935437  0.63285397  1
  Na  Na75  1  0.39002151  0.25087430  0.88290717  1
  Na  Na76  1  0.39043167  0.58436099  0.13140112  1
  Na  Na77  1  0.38977246  0.58496477  0.38105353  1
  Na  Na78  1  0.39027148  0.58352131  0.63063689  1
  Na  Na79  1  0.39078759  0.58409825  0.88259918  1
  Na  Na80  1  0.39103827  0.91572511  0.13246460  1
  Na  Na81  1  0.39003473  0.91599531  0.38111954  1
  Na  Na82  1  0.38984468  0.91548895  0.63118058  1
  Na  Na83  1  0.39083570  0.91713385  0.88105427  1
  Na  Na84  1  0.89092237  0.24893506  0.13145241  1
  Na  Na85  1  0.89019428  0.24941242  0.38182757  1
  Na  Na86  1  0.88959526  0.24838895  0.63168930  1
  Na  Na87  1  0.89034955  0.24952045  0.88137287  1
  Na  Na88  1  0.89052274  0.58327640  0.13079468  1
  Na  Na89  1  0.89034816  0.58346978  0.37894945  1
  Na  Na90  1  0.89053430  0.58359381  0.63092499  1
  Na  Na91  1  0.89047628  0.58449400  0.88068894  1
  Na  Na92  1  0.89036284  0.91661642  0.13062788  1
  Na  Na93  1  0.89033121  0.91711124  0.38117356  1
  Na  Na94  1  0.88994703  0.91598560  0.63170405  1
  Na  Na95  1  0.89051104  0.91729252  0.88162368  1
  Mn  Mn96  1  0.74999976  0.49992627  0.62489877  1
  Mn  Mn97  1  0.00033520  0.50019082  0.49901369  1
  Mn  Mn98  1  0.24999872  -0.00024836  0.12577229  1
  Mn  Mn99  1  0.75010291  0.50009595  0.87462686  1
  Mn  Mn100  1  0.74991467  -0.00089798  0.37562126  1
  Mn  Mn101  1  0.74994545  0.66707731  0.37457239  1
  Mn  Mn102  1  -0.00013331  0.50098664  0.74931754  1
  Mn  Mn103  1  0.49938938  0.33229182  0.24909717  1
  Mn  Mn104  1  -0.00038392  0.33303641  -0.00012778  1
  Mn  Mn105  1  -0.00055028  0.83434219  0.49931027  1
  Mn  Mn106  1  0.50002251  0.50037288  0.49986343  1
  Mn  Mn107  1  0.25062315  0.33414362  0.37514689  1
  Mn  Mn108  1  0.24956479  0.66667186  0.87497526  1
  Mn  Mn109  1  -0.00015720  0.50097289  -0.00045381  1
  Mn  Mn110  1  0.49969386  0.33351493  0.75109449  1
  Mn  Mn111  1  0.00045502  0.66695707  0.49905466  1
  Mn  Mn112  1  0.00038176  0.16531213  0.75061116  1
  Mn  Mn113  1  0.00015186  0.83420213  0.24935564  1
  Mn  Mn114  1  0.75017466  0.00029343  0.62475069  1
  Mn  Mn115  1  0.24965003  0.50049738  0.12484183  1
  Mn  Mn116  1  0.75016502  0.33182385  0.12564601  1
  Mn  Mn117  1  0.25031262  0.49936936  0.62456446  1
  Mn  Mn118  1  0.25039853  0.16714243  0.37572010  1
  Mn  Mn119  1  0.75062236  0.16421282  0.12401791  1
  Mn  Mn120  1  0.49988190  -0.00014319  0.00101448  1
  Mn  Mn121  1  0.50024847  0.83337991  0.75033434  1
  Mn  Mn122  1  0.74869584  0.33144768  0.37553815  1
  Mn  Mn123  1  0.75059445  0.16632020  0.87530293  1
  Mn  Mn124  1  0.49968144  0.16467338  0.50073135  1
  Mn  Mn125  1  0.24932244  -0.00080095  0.37607383  1
  Mn  Mn126  1  0.49939871  0.50076668  0.24907314  1
  Mn  Mn127  1  0.00068268  0.83368842  -0.00001266  1
  Mn  Mn128  1  0.50028889  0.16580447  0.75076933  1
  Mn  Mn129  1  0.75020184  0.66842081  0.62406009  1
  Mn  Mn130  1  0.25072232  0.66734758  0.62429606  1
  Mn  Mn131  1  0.49947863  0.50105585  0.75043137  1
  Mn  Mn132  1  0.50060518  0.66785130  0.50005610  1
  Mn  Mn133  1  0.00055298  0.83370254  0.75026176  1
  Mn  Mn134  1  0.25076038  0.83365283  0.87544063  1
  Mn  Mn135  1  0.75015924  0.83267222  0.12378185  1
  Mn  Mn136  1  0.24985082  0.16799639  0.12563937  1
  Mn  Mn137  1  0.49920930  0.33244292  0.49962208  1
  Mn  Mn138  1  -0.00104074  0.33274897  0.49953744  1
  Mn  Mn139  1  -0.00072991  0.16629619  0.25052389  1
  Mn  Mn140  1  0.74902222  0.49990465  0.12427969  1
  Mn  Mn141  1  0.74939603  0.49946283  0.37465035  1
  Mn  Mn142  1  0.25125271  0.00095153  0.87464042  1
  Mn  Mn143  1  0.00014722  0.33290096  0.74976885  1
  Fe  Fe144  1  0.24935896  0.83328149  0.62482416  1
  Fe  Fe145  1  0.25074121  0.83302933  0.12534594  1
  Fe  Fe146  1  0.24917398  0.50038179  0.37463939  1
  Fe  Fe147  1  -0.00020823  0.00041575  0.50054617  1
  Fe  Fe148  1  0.00015764  0.00058617  0.25029863  1
  Fe  Fe149  1  0.75011510  -0.00153618  0.12527195  1
  Fe  Fe150  1  0.74954867  0.33309412  0.62513321  1
  Fe  Fe151  1  0.24975650  0.33309736  0.62589446  1
  Fe  Fe152  1  0.74973363  0.83300228  0.37424546  1
  Fe  Fe153  1  0.00049703  0.66705501  -0.00004245  1
  Fe  Fe154  1  0.75034611  0.83398253  0.87496096  1
  Fe  Fe155  1  0.74996234  0.66670429  0.12404848  1
  Fe  Fe156  1  0.49946979  0.16605047  0.00027385  1
  Fe  Fe157  1  0.00058064  0.16612593  0.00060283  1
  Fe  Fe158  1  0.25038279  0.16727861  0.62589022  1
  Fe  Fe159  1  0.00001530  0.00006581  0.75048893  1
  Fe  Fe160  1  0.49992982  0.66750844  0.00053320  1
  Fe  Fe161  1  0.25007125  0.33358320  0.87479273  1
  Fe  Fe162  1  0.25008261  0.33432203  0.12436535  1
  Fe  Fe163  1  0.74966320  0.83422099  0.62544373  1
  Fe  Fe164  1  0.49994429  0.83317630  0.25006512  1
  Fe  Fe165  1  0.75013156  0.66739986  0.87403459  1
  Fe  Fe166  1  0.25013699  0.83314052  0.37518601  1
  Fe  Fe167  1  0.74980144  0.00003199  0.87451184  1
  Fe  Fe168  1  0.00002836  0.66704233  0.24889662  1
  Fe  Fe169  1  0.49978701  -0.00052952  0.75031302  1
  Fe  Fe170  1  0.24962467  0.66721069  0.37464902  1
  Fe  Fe171  1  0.50031194  0.83304035  0.00061015  1
  Fe  Fe172  1  -0.00002208  0.16653303  0.49992240  1
  Fe  Fe173  1  0.49965178  0.83388283  0.49955018  1
  Fe  Fe174  1  0.00066493  0.66720154  0.74955412  1
  Fe  Fe175  1  0.49962725  -0.00046738  0.25009853  1
  Fe  Fe176  1  0.75026444  0.33301279  0.87475332  1
  Fe  Fe177  1  0.49927859  -0.00131437  0.49922023  1
  Fe  Fe178  1  0.75000404  0.16567080  0.37560214  1
  Fe  Fe179  1  0.25013884  0.00007641  0.62534205  1
  Fe  Fe180  1  0.25031718  0.66686348  0.12556978  1
  Fe  Fe181  1  0.49972275  0.16588952  0.24992547  1
  Fe  Fe182  1  0.25061506  0.50003656  0.87515502  1
  Fe  Fe183  1  0.00037087  0.33304518  0.24980217  1
  Fe  Fe184  1  0.00089633  0.00025247  0.00045044  1
  Fe  Fe185  1  0.50027185  0.50075761  -0.00002821  1
  Fe  Fe186  1  0.74935945  0.16701935  0.62590881  1
  Fe  Fe187  1  0.50013042  0.33316958  0.00065870  1
  Fe  Fe188  1  0.50068509  0.66710600  0.24961153  1
  Fe  Fe189  1  0.25022489  0.16715357  0.87504524  1
  Fe  Fe190  1  -0.00020369  0.50014289  0.24913831  1
  Fe  Fe191  1  0.49999538  0.66731331  0.75073872  1
  P  P192  1  0.04216917  0.24888480  0.10290864  1
  P  P193  1  0.04200980  0.25067259  0.35269234  1
  P  P194  1  0.04188768  0.24829171  0.60238061  1
  P  P195  1  0.04288055  0.24936880  0.85369952  1
  P  P196  1  0.04208898  0.58463079  0.10295694  1
  P  P197  1  0.04157982  0.58379409  0.35027724  1
  P  P198  1  0.04331190  0.58385637  0.60275762  1
  P  P199  1  0.04253177  0.58542291  0.85244404  1
  P  P200  1  0.04270958  0.91822955  0.10290415  1
  P  P201  1  0.04219137  0.91892736  0.35275774  1
  P  P202  1  0.04177380  0.91813130  0.60291248  1
  P  P203  1  0.04285016  0.91850278  0.85306062  1
  P  P204  1  0.54123989  0.24858918  0.10187894  1
  P  P205  1  0.54186308  0.24780923  0.35220945  1
  P  P206  1  0.54224983  0.24906875  0.60352648  1
  P  P207  1  0.54228907  0.24993483  0.85478160  1
  P  P208  1  0.54149194  0.58410333  0.10154073  1
  P  P209  1  0.54220474  0.58488420  0.35198171  1
  P  P210  1  0.54308080  0.58398956  0.60372065  1
  P  P211  1  0.54187919  0.58533294  0.85377101  1
  P  P212  1  0.54211603  0.91466872  0.10340591  1
  P  P213  1  0.54102643  0.91642948  0.35188525  1
  P  P214  1  0.54108243  0.91641760  0.60166832  1
  P  P215  1  0.54244378  0.91793269  0.85302027  1
  P  P216  1  0.45842223  0.08319969  0.14827368  1
  P  P217  1  0.45715629  0.08107644  0.39696354  1
  P  P218  1  0.45787024  0.08084779  0.64759243  1
  P  P219  1  0.45758567  0.08389237  0.89785971  1
  P  P220  1  0.45752055  0.41663866  0.14537414  1
  P  P221  1  0.45672692  0.41679838  0.39637200  1
  P  P222  1  0.45677389  0.41684978  0.64739414  1
  P  P223  1  0.45889621  0.41705418  0.89917402  1
  P  P224  1  0.45881711  0.74994488  0.14805340  1
  P  P225  1  0.45808046  0.75206164  0.39667519  1
  P  P226  1  0.45768528  0.74917408  0.64770382  1
  P  P227  1  0.45869419  0.75054717  0.89863908  1
  P  P228  1  0.95789868  0.08186216  0.14719535  1
  P  P229  1  0.95805152  0.08324715  0.39862965  1
  P  P230  1  0.95766938  0.08148966  0.64729326  1
  P  P231  1  0.95898366  0.08293887  0.89873557  1
  P  P232  1  0.95852811  0.41625159  0.14818569  1
  P  P233  1  0.95718860  0.41671696  0.39525594  1
  P  P234  1  0.95699089  0.41646102  0.64648731  1
  P  P235  1  0.95720907  0.41715291  0.89666081  1
  P  P236  1  0.95820305  0.74918428  0.14652667  1
  P  P237  1  0.95768972  0.75029072  0.39540785  1
  P  P238  1  0.95766558  0.74941129  0.64747963  1
  P  P239  1  0.95869604  0.74917304  0.89712974  1
  P  P240  1  0.20717663  0.08343339  0.22871389  1
  P  P241  1  0.20788365  0.08372162  0.47983315  1
  P  P242  1  0.20914758  0.08397036  0.72707248  1
  P  P243  1  0.20849028  0.08500088  0.97754774  1
  P  P244  1  0.20761770  0.41620247  0.22727948  1
  P  P245  1  0.20715695  0.41803466  0.47744107  1
  P  P246  1  0.20802454  0.41515654  0.72831123  1
  P  P247  1  0.20865945  0.41702974  0.97659101  1
  P  P248  1  0.20900354  0.75008424  0.22744907  1
  P  P249  1  0.20829784  0.75074153  0.47663929  1
  P  P250  1  0.20764042  0.75103554  0.72727576  1
  P  P251  1  0.20798374  0.75024302  0.97937438  1
  P  P252  1  0.70797719  0.08064855  0.22775706  1
  P  P253  1  0.70760528  0.08438562  0.47816509  1
  P  P254  1  0.70773738  0.08435934  0.72794775  1
  P  P255  1  0.70799993  0.08096840  0.97762721  1
  P  P256  1  0.70636880  0.41566213  0.22779075  1
  P  P257  1  0.70654580  0.41585457  0.47864318  1
  P  P258  1  0.70771860  0.41539168  0.72796424  1
  P  P259  1  0.70778504  0.41523504  0.97705020  1
  P  P260  1  0.70766706  0.74874150  0.22674915  1
  P  P261  1  0.70750196  0.75205536  0.47742071  1
  P  P262  1  0.70795818  0.75218112  0.72819876  1
  P  P263  1  0.70900642  0.74988568  0.97606578  1
  P  P264  1  0.29186708  0.25212343  0.02172791  1
  P  P265  1  0.29316469  0.25072035  0.27170199  1
  P  P266  1  0.29171337  0.25054957  0.52415729  1
  P  P267  1  0.29177496  0.24992471  0.77324027  1
  P  P268  1  0.29221279  0.58463329  0.02266345  1
  P  P269  1  0.29071494  0.58366967  0.27309416  1
  P  P270  1  0.29268482  0.58353061  0.52070505  1
  P  P271  1  0.29271600  0.58208789  0.77279231  1
  P  P272  1  0.29309248  0.91598053  0.02327994  1
  P  P273  1  0.29186523  0.91485066  0.27259852  1
  P  P274  1  0.29083567  0.91616407  0.52346758  1
  P  P275  1  0.29282349  0.91677971  0.77093712  1
  P  P276  1  0.79302795  0.24939145  0.02146704  1
  P  P277  1  0.79207743  0.24715436  0.27286865  1
  P  P278  1  0.79102927  0.24923616  0.52362335  1
  P  P279  1  0.79237280  0.25103150  0.77200270  1
  P  P280  1  0.79184892  0.58485139  0.02150378  1
  P  P281  1  0.79203008  0.58320338  0.27071611  1
  P  P282  1  0.79298851  0.58364007  0.52148583  1
  P  P283  1  0.79232621  0.58494487  0.77215178  1
  P  P284  1  0.79239913  0.91768770  0.02138596  1
  P  P285  1  0.79211985  0.91485330  0.27205878  1
  P  P286  1  0.79199525  0.91524050  0.52221315  1
  P  P287  1  0.79142934  0.91712664  0.77302795  1
  O  O288  1  0.03659396  0.24956656  0.18283585  1
  O  O289  1  0.03649468  0.25000941  0.43258432  1
  O  O290  1  0.03712464  0.24832175  0.68236179  1
  O  O291  1  0.03761748  0.24884124  0.93362889  1
  O  O292  1  0.03660773  0.58427302  0.18281203  1
  O  O293  1  0.03717542  0.58338536  0.43029891  1
  O  O294  1  0.03830463  0.58444099  0.68273119  1
  O  O295  1  0.03711853  0.58552198  0.93241133  1
  O  O296  1  0.03731283  0.91828106  0.18282206  1
  O  O297  1  0.03661715  0.91874806  0.43270491  1
  O  O298  1  0.03677445  0.91796690  0.68289035  1
  O  O299  1  0.03770203  0.91843601  0.93302598  1
  O  O300  1  0.53595389  0.24817698  0.18183413  1
  O  O301  1  0.53642131  0.24796642  0.43215339  1
  O  O302  1  0.53735648  0.24918239  0.68351638  1
  O  O303  1  0.53683932  0.24987390  0.93467073  1
  O  O304  1  0.53692532  0.58402630  0.18152807  1
  O  O305  1  0.53724114  0.58471513  0.43195594  1
  O  O306  1  0.53776303  0.58449122  0.68369792  1
  O  O307  1  0.53641795  0.58524827  0.93366655  1
  O  O308  1  0.53656188  0.91437239  0.18319805  1
  O  O309  1  0.53613781  0.91682636  0.43180308  1
  O  O310  1  0.53627009  0.91663353  0.68163295  1
  O  O311  1  0.53754560  0.91752208  0.93290413  1
  O  O312  1  0.46329395  0.08334046  0.06828763  1
  O  O313  1  0.46233820  0.08166487  0.31708234  1
  O  O314  1  0.46296547  0.08051888  0.56761487  1
  O  O315  1  0.46279893  0.08328277  0.81796132  1
  O  O316  1  0.46333919  0.41671981  0.06551512  1
  O  O317  1  0.46179738  0.41667261  0.31634586  1
  O  O318  1  0.46185846  0.41664840  0.56740832  1
  O  O319  1  0.46336077  0.41740680  0.81916177  1
  O  O320  1  0.46389664  0.74981087  0.06814230  1
  O  O321  1  0.46361956  0.75206038  0.31685674  1
  O  O322  1  0.46280419  0.75001637  0.56781903  1
  O  O323  1  0.46372078  0.75021963  0.81869218  1
  O  O324  1  0.96362409  0.08227268  0.06738521  1
  O  O325  1  0.96294436  0.08308630  0.31866034  1
  O  O326  1  0.96286989  0.08188906  0.56743471  1
  O  O327  1  0.96399436  0.08240776  0.81877205  1
  O  O328  1  0.96318272  0.41661383  0.06816133  1
  O  O329  1  0.96264188  0.41641951  0.31533999  1
  O  O330  1  0.96192162  0.41650359  0.56647062  1
  O  O331  1  0.96233181  0.41715050  0.81674196  1
  O  O332  1  0.96366809  0.74914064  0.06659096  1
  O  O333  1  0.96313129  0.75009214  0.31547284  1
  O  O334  1  0.96259374  0.75008047  0.56746098  1
  O  O335  1  0.96398603  0.74922110  0.81720165  1
  O  O336  1  0.21342070  0.08467326  0.05748608  1
  O  O337  1  0.21219121  0.08325276  0.30868841  1
  O  O338  1  0.21356958  0.08390529  0.55969413  1
  O  O339  1  0.21422469  0.08424420  0.80705339  1
  O  O340  1  0.21367589  0.41691015  0.05656266  1
  O  O341  1  0.21275201  0.41703867  0.30717742  1
  O  O342  1  0.21225848  0.41733557  0.55733956  1
  O  O343  1  0.21361380  0.41533855  0.80817010  1
  O  O344  1  0.21341116  0.75012045  0.05930259  1
  O  O345  1  0.21386843  0.75016416  0.30740175  1
  O  O346  1  0.21320348  0.75079822  0.55660544  1
  O  O347  1  0.21268925  0.75066778  0.80724983  1
  O  O348  1  0.71321763  0.08035770  0.05755971  1
  O  O349  1  0.71306931  0.08139825  0.30768579  1
  O  O350  1  0.71275545  0.08463637  0.55812286  1
  O  O351  1  0.71316291  0.08345200  0.80785765  1
  O  O352  1  0.71285042  0.41553494  0.05700312  1
  O  O353  1  0.71103734  0.41573825  0.30782976  1
  O  O354  1  0.71204377  0.41559269  0.55859543  1
  O  O355  1  0.71335477  0.41534849  0.80790972  1
  O  O356  1  0.71373736  0.74950737  0.05603175  1
  O  O357  1  0.71261935  0.74955462  0.30667401  1
  O  O358  1  0.71272853  0.75253273  0.55738105  1
  O  O359  1  0.71365542  0.75164834  0.80804924  1
  O  O360  1  0.28801257  0.25115182  0.19175765  1
  O  O361  1  0.28700412  0.25069502  0.44415238  1
  O  O362  1  0.28639625  0.24977964  0.69333647  1
  O  O363  1  0.28642242  0.25170618  0.94185110  1
  O  O364  1  0.28578689  0.58433074  0.19311336  1
  O  O365  1  0.28704231  0.58357885  0.44084633  1
  O  O366  1  0.28779494  0.58224652  0.69284195  1
  O  O367  1  0.28730999  0.58409909  0.94277478  1
  O  O368  1  0.28670518  0.91468016  0.19266895  1
  O  O369  1  0.28586848  0.91596884  0.44350418  1
  O  O370  1  0.28709228  0.91653550  0.69110701  1
  O  O371  1  0.28840845  0.91662507  0.94326135  1
  O  O372  1  0.78738768  0.24715317  0.19287242  1
  O  O373  1  0.78578700  0.24841908  0.44366242  1
  O  O374  1  0.78652261  0.25069698  0.69216691  1
  O  O375  1  0.78793726  0.25023618  0.94152516  1
  O  O376  1  0.78666384  0.58366497  0.19074703  1
  O  O377  1  0.78766366  0.58346887  0.44151969  1
  O  O378  1  0.78715254  0.58481893  0.69222935  1
  O  O379  1  0.78664099  0.58498038  0.94153495  1
  O  O380  1  0.78714890  0.91557573  0.19209034  1
  O  O381  1  0.78673938  0.91511326  0.44227234  1
  O  O382  1  0.78658236  0.91663439  0.69303939  1
  O  O383  1  0.78703103  0.91800230  0.94153411  1
  O  O384  1  0.22778654  0.25251512  0.05806952  1
  O  O385  1  0.22878409  0.25065922  0.30694642  1
  O  O386  1  0.22746702  0.25039303  0.55990764  1
  O  O387  1  0.22775101  0.25008515  0.80969169  1
  O  O388  1  0.22790563  0.58521268  0.05826292  1
  O  O389  1  0.22658883  0.58309223  0.30905656  1
  O  O390  1  0.22859354  0.58360234  0.55676747  1
  O  O391  1  0.22829851  0.58167032  0.80813342  1
  O  O392  1  0.22860883  0.91552693  0.05830502  1
  O  O393  1  0.22762939  0.91474692  0.30840849  1
  O  O394  1  0.22676667  0.91587624  0.55957155  1
  O  O395  1  0.22875098  0.91715584  0.80702805  1
  O  O396  1  0.72863987  0.24874116  0.05662902  1
  O  O397  1  0.72756863  0.24666130  0.30796035  1
  O  O398  1  0.72693359  0.24961371  0.55987144  1
  O  O399  1  0.72836350  0.25113427  0.80854696  1
  O  O400  1  0.72751950  0.58506139  0.05715139  1
  O  O401  1  0.72777844  0.58338942  0.30629755  1
  O  O402  1  0.72862013  0.58392598  0.55667860  1
  O  O403  1  0.72805040  0.58495134  0.80779076  1
  O  O404  1  0.72824843  0.91764191  0.05758741  1
  O  O405  1  0.72780016  0.91484420  0.30768973  1
  O  O406  1  0.72773011  0.91548719  0.55801914  1
  O  O407  1  0.72724489  0.91754053  0.80882794  1
  O  O408  1  0.27160411  0.08367758  0.19370276  1
  O  O409  1  0.27195123  0.08313983  0.44367532  1
  O  O410  1  0.27315690  0.08422389  0.69091763  1
  O  O411  1  0.27282268  0.08545159  0.94204163  1
  O  O412  1  0.27188856  0.41577998  0.19150683  1
  O  O413  1  0.27149923  0.41909220  0.44177552  1
  O  O414  1  0.27212680  0.41480001  0.69205160  1
  O  O415  1  0.27281053  0.41701059  0.94052704  1
  O  O416  1  0.27313274  0.75001893  0.19126425  1
  O  O417  1  0.27250311  0.75078529  0.44077989  1
  O  O418  1  0.27201858  0.75195359  0.69186308  1
  O  O419  1  0.27219824  0.74978053  0.94362167  1
  O  O420  1  0.77230066  0.08001159  0.19204632  1
  O  O421  1  0.77191166  0.08398723  0.44250526  1
  O  O422  1  0.77191797  0.08473146  0.69202950  1
  O  O423  1  0.77227148  0.08106803  0.94188491  1
  O  O424  1  0.77097600  0.41614361  0.19321250  1
  O  O425  1  0.77079520  0.41554296  0.44301534  1
  O  O426  1  0.77181723  0.41506490  0.69179137  1
  O  O427  1  0.77209788  0.41527603  0.94152450  1
  O  O428  1  0.77198041  0.74832833  0.19108866  1
  O  O429  1  0.77179526  0.75180990  0.44168688  1
  O  O430  1  0.77204904  0.75276760  0.69183175  1
  O  O431  1  0.77315520  0.74957471  0.94025224  1
  O  O432  1  0.02196837  0.08208688  0.18355004  1
  O  O433  1  0.02222802  0.08354819  0.43461261  1
  O  O434  1  0.02197897  0.08089543  0.68317436  1
  O  O435  1  0.02316069  0.08362890  0.93476007  1
  O  O436  1  0.02274942  0.41573132  0.18382862  1
  O  O437  1  0.02140015  0.41613181  0.43107443  1
  O  O438  1  0.02149300  0.41680701  0.68138715  1
  O  O439  1  0.02159092  0.41704446  0.93180575  1
  O  O440  1  0.02236748  0.74935688  0.18247256  1
  O  O441  1  0.02193816  0.75090072  0.43097182  1
  O  O442  1  0.02212484  0.74921757  0.68277877  1
  O  O443  1  0.02285406  0.74939466  0.93307325  1
  O  O444  1  0.52250512  0.08372645  0.18430222  1
  O  O445  1  0.52141895  0.08072067  0.43285221  1
  O  O446  1  0.52213484  0.08098993  0.68335719  1
  O  O447  1  0.52183847  0.08419128  0.93364600  1
  O  O448  1  0.52153763  0.41662618  0.18156562  1
  O  O449  1  0.52116690  0.41638155  0.43143496  1
  O  O450  1  0.52120067  0.41709078  0.68247510  1
  O  O451  1  0.52309872  0.41638868  0.93470388  1
  O  O452  1  0.52294735  0.75003504  0.18416838  1
  O  O453  1  0.52218577  0.75247417  0.43294191  1
  O  O454  1  0.52196326  0.74863678  0.68356554  1
  O  O455  1  0.52288946  0.75059999  0.93460711  1
  O  O456  1  0.47716179  0.24893365  0.06565547  1
  O  O457  1  0.47758328  0.24761777  0.31649635  1
  O  O458  1  0.47777648  0.24880327  0.56856602  1
  O  O459  1  0.47807945  0.24951033  0.81901432  1
  O  O460  1  0.47722399  0.58445982  0.06600473  1
  O  O461  1  0.47785396  0.58542394  0.31650170  1
  O  O462  1  0.47877919  0.58408910  0.56824639  1
  O  O463  1  0.47775398  0.58579376  0.81752581  1
  O  O464  1  0.47802550  0.91452689  0.06714417  1
  O  O465  1  0.47697678  0.91595338  0.31572993  1
  O  O466  1  0.47687109  0.91626076  0.56567771  1
  O  O467  1  0.47812616  0.91783256  0.81736977  1
  O  O468  1  0.97802190  0.24796125  0.06685825  1
  O  O469  1  0.97780812  0.25139049  0.31678670  1
  O  O470  1  0.97748363  0.24800431  0.56707062  1
  O  O471  1  0.97855112  0.24922427  0.81835489  1
  O  O472  1  0.97798003  0.58508481  0.06671670  1
  O  O473  1  0.97732346  0.58427621  0.31477821  1
  O  O474  1  0.97885076  0.58364427  0.56769625  1
  O  O475  1  0.97831261  0.58575858  0.81651166  1
  O  O476  1  0.97855150  0.91811471  0.06696234  1
  O  O477  1  0.97801947  0.91876662  0.31673493  1
  O  O478  1  0.97748645  0.91822053  0.56725617  1
  O  O479  1  0.97850794  0.91827431  0.81743377  1
  O  O480  1  0.07292558  0.31258554  0.07475036  1
  O  O481  1  0.07315259  0.31405945  0.32434290  1
  O  O482  1  0.07272424  0.31203183  0.57456355  1
  O  O483  1  0.07356155  0.31319341  0.82573866  1
  O  O484  1  0.07322747  0.64792918  0.07434981  1
  O  O485  1  0.07269259  0.64741625  0.32249662  1
  O  O486  1  0.07435655  0.64713968  0.57391363  1
  O  O487  1  0.07379628  0.64852983  0.82374562  1
  O  O488  1  0.07370731  0.98151361  0.07420000  1
  O  O489  1  0.07304904  0.98243061  0.32448341  1
  O  O490  1  0.07273080  0.98140504  0.57421506  1
  O  O491  1  0.07357359  0.98186035  0.82419913  1
  O  O492  1  0.57197349  0.31257808  0.07413011  1
  O  O493  1  0.57279772  0.31152608  0.32444210  1
  O  O494  1  0.57300834  0.31257296  0.57511658  1
  O  O495  1  0.57315333  0.31352741  0.82638136  1
  O  O496  1  0.57277330  0.64740606  0.07323320  1
  O  O497  1  0.57308381  0.64843515  0.32366848  1
  O  O498  1  0.57447644  0.64711832  0.57514818  1
  O  O499  1  0.57288982  0.64862042  0.82490421  1
  O  O500  1  0.57305698  0.97855154  0.07584984  1
  O  O501  1  0.57136982  0.98024572  0.32285128  1
  O  O502  1  0.57203614  0.97981851  0.57307512  1
  O  O503  1  0.57269005  0.98169224  0.82426501  1
  O  O504  1  0.42847854  0.01883083  0.17637226  1
  O  O505  1  0.42622904  0.01760528  0.42558431  1
  O  O506  1  0.42711253  0.01750125  0.67645769  1
  O  O507  1  0.42642305  0.02051147  0.92619380  1
  O  O508  1  0.42621720  0.35326715  0.17356197  1
  O  O509  1  0.42554873  0.35332181  0.42445506  1
  O  O510  1  0.42597460  0.35333807  0.67585646  1
  O  O511  1  0.42757366  0.35364606  0.92709321  1
  O  O512  1  0.42821623  0.68616604  0.17674621  1
  O  O513  1  0.42710534  0.68835309  0.42453602  1
  O  O514  1  0.42687521  0.68560195  0.67604750  1
  O  O515  1  0.42750004  0.68726626  0.92720249  1
  O  O516  1  0.92722114  0.01830035  0.17587643  1
  O  O517  1  0.92716612  0.01971824  0.42697335  1
  O  O518  1  0.92646563  0.01835641  0.67625777  1
  O  O519  1  0.92842201  0.01923343  0.92720171  1
  O  O520  1  0.92734597  0.35275341  0.17612176  1
  O  O521  1  0.92546033  0.35369254  0.42386949  1
  O  O522  1  0.92636968  0.35275559  0.67459192  1
  O  O523  1  0.92606121  0.35380187  0.92490722  1
  O  O524  1  0.92725314  0.68589767  0.17521199  1
  O  O525  1  0.92671868  0.68683380  0.42366911  1
  O  O526  1  0.92706588  0.68577414  0.67569269  1
  O  O527  1  0.92787878  0.68586221  0.92595898  1
  O  O528  1  0.17640009  0.01986535  0.20050993  1
  O  O529  1  0.17628352  0.02046230  0.45179142  1
  O  O530  1  0.17888795  0.01984561  0.69897263  1
  O  O531  1  0.17785030  0.02118204  0.94961920  1
  O  O532  1  0.17697291  0.35258285  0.19895620  1
  O  O533  1  0.17658650  0.35425512  0.44927739  1
  O  O534  1  0.17705308  0.35171152  0.69968376  1
  O  O535  1  0.17740603  0.35375047  0.94837051  1
  O  O536  1  0.17816177  0.68643492  0.19907498  1
  O  O537  1  0.17794810  0.68686716  0.44803983  1
  O  O538  1  0.17740071  0.68708180  0.69919570  1
  O  O539  1  0.17639741  0.68720300  0.95082407  1
  O  O540  1  0.67711741  0.01705619  0.19962521  1
  O  O541  1  0.67657830  0.02057169  0.45061865  1
  O  O542  1  0.67664314  0.02101551  0.69945974  1
  O  O543  1  0.67681488  0.01802580  0.94853679  1
  O  O544  1  0.67584456  0.35182472  0.19984111  1
  O  O545  1  0.67505772  0.35265262  0.45042253  1
  O  O546  1  0.67645774  0.35223320  0.69946355  1
  O  O547  1  0.67718417  0.35160354  0.94886493  1
  O  O548  1  0.67697648  0.68516869  0.19836326  1
  O  O549  1  0.67648219  0.68817707  0.45009083  1
  O  O550  1  0.67703423  0.68858647  0.69994679  1
  O  O551  1  0.67750767  0.68688096  0.94746643  1
  O  O552  1  0.32271492  0.31560308  0.05023439  1
  O  O553  1  0.32440636  0.31389680  0.30018020  1
  O  O554  1  0.32219565  0.31437049  0.55229885  1
  O  O555  1  0.32292109  0.31338867  0.80148352  1
  O  O556  1  0.32314541  0.64795261  0.05142392  1
  O  O557  1  0.32117815  0.64739649  0.30178767  1
  O  O558  1  0.32388590  0.64703263  0.54898076  1
  O  O559  1  0.32339019  0.64593455  0.80055400  1
  O  O560  1  0.32383275  0.97968300  0.05143097  1
  O  O561  1  0.32258691  0.97874772  0.30028860  1
  O  O562  1  0.32110449  0.98022719  0.55166628  1
  O  O563  1  0.32425914  0.98010941  0.79911952  1
  O  O564  1  0.82412699  0.31246753  0.05045100  1
  O  O565  1  0.82250923  0.31111316  0.30069994  1
  O  O566  1  0.82186168  0.31319728  0.55105182  1
  O  O567  1  0.82339697  0.31439081  0.80049104  1
  O  O568  1  0.82291489  0.64799847  0.05032289  1
  O  O569  1  0.82351751  0.64630235  0.29909798  1
  O  O570  1  0.82406788  0.64725124  0.54918932  1
  O  O571  1  0.82303352  0.64849000  0.80047581  1
  O  O572  1  0.82339196  0.98064762  0.05082506  1
  O  O573  1  0.82341731  0.97798297  0.30074256  1
  O  O574  1  0.82287233  0.97915223  0.54976611  1
  O  O575  1  0.82240728  0.98084610  0.80078837  1
  O  O576  1  0.42673100  0.14628834  0.17645757  1
  O  O577  1  0.42600065  0.14449264  0.42556650  1
  O  O578  1  0.42687083  0.14468414  0.67517345  1
  O  O579  1  0.42682004  0.14754530  0.92616372  1
  O  O580  1  0.42611688  0.48008171  0.17347491  1
  O  O581  1  0.42611891  0.48056278  0.42435391  1
  O  O582  1  0.42565472  0.48033146  0.67545882  1
  O  O583  1  0.42877865  0.48125922  0.92733853  1
  O  O584  1  0.42759249  0.81329601  0.17641557  1
  O  O585  1  0.42691401  0.81521110  0.42575229  1
  O  O586  1  0.42669979  0.81265138  0.67609283  1
  O  O587  1  0.42817428  0.81453487  0.92669192  1
  O  O588  1  0.92628722  0.14515672  0.17537273  1
  O  O589  1  0.92742881  0.14716805  0.42671222  1
  O  O590  1  0.92694191  0.14521549  0.67572677  1
  O  O591  1  0.92795362  0.14666319  0.92657037  1
  O  O592  1  0.92831584  0.48042155  0.17627543  1
  O  O593  1  0.92644019  0.48047221  0.42344199  1
  O  O594  1  0.92579988  0.47987675  0.67460098  1
  O  O595  1  0.92623353  0.48076335  0.92467986  1
  O  O596  1  0.92704508  0.81302119  0.17391775  1
  O  O597  1  0.92630372  0.81370588  0.42343059  1
  O  O598  1  0.92672790  0.81297950  0.67577720  1
  O  O599  1  0.92755546  0.81300060  0.92464319  1
  O  O600  1  0.07340266  0.18541140  0.07494489  1
  O  O601  1  0.07302249  0.18701565  0.32475344  1
  O  O602  1  0.07259802  0.18474803  0.57388550  1
  O  O603  1  0.07435139  0.18630129  0.82510554  1
  O  O604  1  0.07307132  0.52086291  0.07486888  1
  O  O605  1  0.07172075  0.51979605  0.32169060  1
  O  O606  1  0.07422142  0.52016821  0.57473539  1
  O  O607  1  0.07321291  0.52133462  0.82494776  1
  O  O608  1  0.07382182  0.85447020  0.07530324  1
  O  O609  1  0.07338156  0.85530792  0.32487131  1
  O  O610  1  0.07265148  0.85435291  0.57491011  1
  O  O611  1  0.07399124  0.85479953  0.82529589  1
  O  O612  1  0.57232048  0.18509912  0.07360411  1
  O  O613  1  0.57274429  0.18427326  0.32394786  1
  O  O614  1  0.57332982  0.18551219  0.57558674  1
  O  O615  1  0.57388500  0.18677121  0.82636200  1
  O  O616  1  0.57178795  0.52010003  0.07297464  1
  O  O617  1  0.57298366  0.52111954  0.32409832  1
  O  O618  1  0.57387592  0.52020985  0.57573841  1
  O  O619  1  0.57286126  0.52151820  0.82599445  1
  O  O620  1  0.57330036  0.85160612  0.07412282  1
  O  O621  1  0.57255673  0.85316577  0.32369474  1
  O  O622  1  0.57169566  0.85254629  0.57349934  1
  O  O623  1  0.57375211  0.85460906  0.82476139  1
  O  O624  1  0.32299798  0.18852166  0.04991943  1
  O  O625  1  0.32398135  0.18699621  0.29994028  1
  O  O626  1  0.32267006  0.18684086  0.55213348  1
  O  O627  1  0.32261645  0.18621093  0.80172667  1
  O  O628  1  0.32305386  0.52094140  0.05085445  1
  O  O629  1  0.32188546  0.51996795  0.30076168  1
  O  O630  1  0.32408071  0.52029113  0.54921625  1
  O  O631  1  0.32351562  0.51865063  0.80158120  1
  O  O632  1  0.32386951  0.85240425  0.05165602  1
  O  O633  1  0.32295959  0.85161645  0.30138428  1
  O  O634  1  0.32221716  0.85282837  0.55166571  1
  O  O635  1  0.32405099  0.85343278  0.79958315  1
  O  O636  1  0.82407198  0.18556614  0.04905877  1
  O  O637  1  0.82306453  0.18380679  0.30157693  1
  O  O638  1  0.82197310  0.18577341  0.55233829  1
  O  O639  1  0.82368864  0.18738218  0.79997396  1
  O  O640  1  0.82261378  0.52079272  0.04912185  1
  O  O641  1  0.82287213  0.51939135  0.29857878  1
  O  O642  1  0.82397703  0.52015723  0.54975789  1
  O  O643  1  0.82346180  0.52124005  0.79982197  1
  O  O644  1  0.82345225  0.85374502  0.04893140  1
  O  O645  1  0.82259350  0.85089372  0.30000545  1
  O  O646  1  0.82304638  0.85211559  0.55117286  1
  O  O647  1  0.82211725  0.85354077  0.80193688  1
  O  O648  1  0.17595998  0.14684581  0.20060833  1
  O  O649  1  0.17692249  0.14726159  0.45131503  1
  O  O650  1  0.17759113  0.14721560  0.69888982  1
  O  O651  1  0.17753617  0.14846198  0.94916831  1
  O  O652  1  0.17652425  0.47964936  0.19881641  1
  O  O653  1  0.17605173  0.48142902  0.44887257  1
  O  O654  1  0.17684422  0.47871706  0.70020768  1
  O  O655  1  0.17821042  0.48115838  0.94858105  1
  O  O656  1  0.17804901  0.81366696  0.19887373  1
  O  O657  1  0.17702766  0.81412737  0.44836795  1
  O  O658  1  0.17630312  0.81436001  0.69909716  1
  O  O659  1  0.17708333  0.81389058  0.95101144  1
  O  O660  1  0.67705980  0.14413012  0.19914324  1
  O  O661  1  0.67683670  0.14764376  0.44905830  1
  O  O662  1  0.67683332  0.14811861  0.70017959  1
  O  O663  1  0.67720591  0.14506042  0.95030721  1
  O  O664  1  0.67506593  0.47888552  0.19921309  1
  O  O665  1  0.67570832  0.47963088  0.45066198  1
  O  O666  1  0.67687437  0.47949550  0.70063566  1
  O  O667  1  0.67667505  0.47897229  0.94934900  1
  O  O668  1  0.67662692  0.81216989  0.19820554  1
  O  O669  1  0.67670720  0.81529133  0.44819483  1
  O  O670  1  0.67667364  0.81560666  0.69989682  1
  O  O671  1  0.67890033  0.81425825  0.94812581  1
