# generated using pymatgen
data_Na2MnFe(PO4)2
_symmetry_space_group_name_H-M   'P 1'
_cell_length_a   22.34879511
_cell_length_b   20.10159130
_cell_length_c   19.44323666
_cell_angle_alpha   89.98756207
_cell_angle_beta   90.04845078
_cell_angle_gamma   90.02283480
_symmetry_Int_Tables_number   1
_chemical_formula_structural   Na2MnFe(PO4)2
_chemical_formula_sum   'Na96 Mn48 Fe48 P96 O384'
_cell_volume   8734.79898670
_cell_formula_units_Z   48
loop_
 _symmetry_equiv_pos_site_id
 _symmetry_equiv_pos_as_xyz
  1  'x, y, z'
loop_
 _atom_site_type_symbol
 _atom_site_label
 _atom_site_symmetry_multiplicity
 _atom_site_fract_x
 _atom_site_fract_y
 _atom_site_fract_z
 _atom_site_occupancy
  Na  Na0  1  0.14057291  0.25024145  0.24382231  1
  Na  Na1  1  0.14087026  0.24888205  0.49361798  1
  Na  Na2  1  0.14085653  0.24864085  0.74398190  1
  Na  Na3  1  0.14052853  0.25110154  0.99478871  1
  Na  Na4  1  0.14077228  0.58299033  0.24250828  1
  Na  Na5  1  0.14084980  0.58240935  0.49397158  1
  Na  Na6  1  0.14056218  0.58223203  0.74554972  1
  Na  Na7  1  0.14013198  0.58296873  0.99443841  1
  Na  Na8  1  0.14096259  0.91644098  0.24373300  1
  Na  Na9  1  0.14086994  0.91681534  0.49342547  1
  Na  Na10  1  0.14078650  0.91560128  0.74268963  1
  Na  Na11  1  0.14061971  0.91553986  0.99394999  1
  Na  Na12  1  0.63943814  0.24976281  0.24240499  1
  Na  Na13  1  0.63961227  0.25100029  0.49232400  1
  Na  Na14  1  0.63948415  0.25077003  0.74417779  1
  Na  Na15  1  0.63924394  0.24959271  0.99432801  1
  Na  Na16  1  0.63969369  0.58468866  0.24334482  1
  Na  Na17  1  0.63987341  0.58612141  0.49401946  1
  Na  Na18  1  0.63933158  0.58439576  0.74375900  1
  Na  Na19  1  0.63920906  0.58319874  0.99327831  1
  Na  Na20  1  0.63993403  0.91735554  0.24218188  1
  Na  Na21  1  0.64016416  0.91841996  0.49194246  1
  Na  Na22  1  0.64014113  0.91601235  0.74456323  1
  Na  Na23  1  0.63962759  0.91601808  0.99442760  1
  Na  Na24  1  0.36007368  0.08325801  0.00857759  1
  Na  Na25  1  0.36044957  0.08448361  0.25711899  1
  Na  Na26  1  0.36074230  0.08346275  0.50663964  1
  Na  Na27  1  0.36009461  0.08301697  0.75536242  1
  Na  Na28  1  0.35984868  0.41676449  0.00844592  1
  Na  Na29  1  0.35950221  0.41600053  0.25622454  1
  Na  Na30  1  0.35928118  0.41560907  0.50640652  1
  Na  Na31  1  0.36049002  0.41616326  0.75765579  1
  Na  Na32  1  0.36032364  0.74882039  0.00860419  1
  Na  Na33  1  0.36035962  0.74982769  0.25583170  1
  Na  Na34  1  0.36012796  0.74922598  0.50615933  1
  Na  Na35  1  0.36007116  0.74791530  0.75673870  1
  Na  Na36  1  0.85925840  0.08253846  0.00700819  1
  Na  Na37  1  0.85958254  0.08311807  0.25590465  1
  Na  Na38  1  0.85996655  0.08439529  0.50488074  1
  Na  Na39  1  0.85976911  0.08330891  0.75440802  1
  Na  Na40  1  0.85952427  0.41613399  0.00721159  1
  Na  Na41  1  0.85914843  0.41724106  0.25519024  1
  Na  Na42  1  0.85887048  0.41843713  0.50462789  1
  Na  Na43  1  0.85929812  0.41779090  0.75662439  1
  Na  Na44  1  0.85984431  0.74957064  0.00669611  1
  Na  Na45  1  0.85944854  0.74983388  0.25509496  1
  Na  Na46  1  0.85962165  0.75156239  0.50551640  1
  Na  Na47  1  0.86023872  0.75036571  0.75589332  1
  Na  Na48  1  0.10992307  0.08449492  0.11888451  1
  Na  Na49  1  0.11040439  0.08349254  0.36982132  1
  Na  Na50  1  0.11027587  0.08244755  0.61745823  1
  Na  Na51  1  0.10975277  0.08235261  0.86887298  1
  Na  Na52  1  0.10965314  0.41763752  0.11817521  1
  Na  Na53  1  0.10981424  0.41536824  0.36796345  1
  Na  Na54  1  0.10957846  0.41548207  0.61930550  1
  Na  Na55  1  0.10975381  0.41704127  0.87091364  1
  Na  Na56  1  0.10988699  0.74891753  0.11796785  1
  Na  Na57  1  0.11022933  0.74902295  0.36880015  1
  Na  Na58  1  0.11004635  0.75043254  0.61822613  1
  Na  Na59  1  0.10999396  0.74954524  0.87011004  1
  Na  Na60  1  0.60915803  0.08343058  0.11799458  1
  Na  Na61  1  0.60909212  0.08413362  0.36669853  1
  Na  Na62  1  0.60928601  0.08397195  0.61779618  1
  Na  Na63  1  0.60927784  0.08416485  0.87062388  1
  Na  Na64  1  0.60857288  0.41657571  0.11792205  1
  Na  Na65  1  0.60891504  0.41766008  0.36778472  1
  Na  Na66  1  0.60892264  0.41757263  0.61893529  1
  Na  Na67  1  0.60858697  0.41748403  0.86935786  1
  Na  Na68  1  0.60898099  0.75043627  0.11785780  1
  Na  Na69  1  0.60912004  0.75132088  0.36794671  1
  Na  Na70  1  0.60947965  0.75028058  0.61879847  1
  Na  Na71  1  0.60935443  0.74882164  0.86928736  1
  Na  Na72  1  0.39004127  0.24935547  0.13300787  1
  Na  Na73  1  0.39002447  0.24886318  0.38137137  1
  Na  Na74  1  0.39065688  0.24968650  0.63116787  1
  Na  Na75  1  0.39099877  0.25057730  0.88299893  1
  Na  Na76  1  0.39020682  0.58364200  0.13213589  1
  Na  Na77  1  0.38997949  0.58424764  0.38080983  1
  Na  Na78  1  0.39045239  0.58293314  0.63210909  1
  Na  Na79  1  0.39071394  0.58275172  0.88294226  1
  Na  Na80  1  0.39103309  0.91642985  0.13245699  1
  Na  Na81  1  0.39119262  0.91681338  0.38095886  1
  Na  Na82  1  0.39105586  0.91664169  0.63098292  1
  Na  Na83  1  0.39078497  0.91649269  0.88234295  1
  Na  Na84  1  0.89044023  0.25073606  0.13157152  1
  Na  Na85  1  0.88999259  0.24864880  0.38034067  1
  Na  Na86  1  0.89026943  0.24926734  0.62949504  1
  Na  Na87  1  0.89044915  0.25045445  0.88126974  1
  Na  Na88  1  0.88992698  0.58290770  0.13071166  1
  Na  Na89  1  0.89031068  0.58326449  0.38059373  1
  Na  Na90  1  0.89026845  0.58495545  0.63091837  1
  Na  Na91  1  0.89040729  0.58390972  0.88245744  1
  Na  Na92  1  0.89012902  0.91647434  0.13130428  1
  Na  Na93  1  0.89063869  0.91723180  0.38054300  1
  Na  Na94  1  0.89082743  0.91685840  0.62936622  1
  Na  Na95  1  0.89075754  0.91523772  0.88122020  1
  Mn  Mn96  1  0.74916268  0.50087605  0.87486998  1
  Mn  Mn97  1  0.25049462  -0.00057046  0.87546675  1
  Mn  Mn98  1  0.74958512  0.50230896  0.62556806  1
  Mn  Mn99  1  -0.00005242  0.33312593  0.74986657  1
  Mn  Mn100  1  0.49944939  0.16759645  0.75039323  1
  Mn  Mn101  1  -0.00091138  0.33206729  0.49874000  1
  Mn  Mn102  1  0.74972404  0.16638132  0.87481735  1
  Mn  Mn103  1  0.00006437  -0.00134658  0.74898628  1
  Mn  Mn104  1  0.25051857  0.16608739  0.87554158  1
  Mn  Mn105  1  0.24989334  0.49935330  0.62511884  1
  Mn  Mn106  1  0.00073554  0.66764676  0.75075054  1
  Mn  Mn107  1  0.74983837  0.33482283  0.62372655  1
  Mn  Mn108  1  0.74950249  0.66635461  0.12548178  1
  Mn  Mn109  1  -0.00042610  0.66573649  0.24922292  1
  Mn  Mn110  1  0.25087993  0.83201264  0.87445466  1
  Mn  Mn111  1  0.00127224  0.00072081  0.25046339  1
  Mn  Mn112  1  -0.00049220  0.16730319  -0.00051941  1
  Mn  Mn113  1  0.25085363  0.33355909  0.87568237  1
  Mn  Mn114  1  -0.00044723  0.49992374  0.75062317  1
  Mn  Mn115  1  0.25062001  0.83238377  0.37496205  1
  Mn  Mn116  1  0.74902897  0.33327130  0.12553493  1
  Mn  Mn117  1  0.74955679  0.00070458  0.62391242  1
  Mn  Mn118  1  0.49974905  0.50038956  0.24940060  1
  Mn  Mn119  1  0.00048444  0.16612672  0.74991072  1
  Mn  Mn120  1  0.50020203  0.83338109  0.49967001  1
  Mn  Mn121  1  0.25110188  0.00076302  0.37430098  1
  Mn  Mn122  1  0.75042205  0.83219185  0.87436978  1
  Mn  Mn123  1  0.74969300  -0.00052376  0.87548470  1
  Mn  Mn124  1  0.25002760  0.66491712  0.87660884  1
  Mn  Mn125  1  0.49933228  0.50110608  0.49949245  1
  Mn  Mn126  1  0.74977875  0.33332129  0.87558234  1
  Mn  Mn127  1  0.74969117  0.66782399  0.37407226  1
  Mn  Mn128  1  0.00060197  0.83310779  0.24994065  1
  Mn  Mn129  1  0.75016469  0.83346942  0.62442305  1
  Mn  Mn130  1  -0.00019380  0.33337098  0.25010387  1
  Mn  Mn131  1  0.25084690  0.83211592  0.62460895  1
  Mn  Mn132  1  0.24992408  0.33187745  0.62610715  1
  Mn  Mn133  1  0.25010073  0.49984158  0.37517344  1
  Mn  Mn134  1  0.74943449  0.16775140  0.62463676  1
  Mn  Mn135  1  0.49919120  0.33304810  0.49962607  1
  Mn  Mn136  1  0.50037023  0.83261203  0.75097102  1
  Mn  Mn137  1  0.50023274  0.00049246  0.75086344  1
  Mn  Mn138  1  0.74992829  0.00061823  0.37367901  1
  Mn  Mn139  1  0.00082136  0.66734477  0.50016039  1
  Mn  Mn140  1  0.74915176  0.33443362  0.37391088  1
  Mn  Mn141  1  0.00014686  0.49971989  0.49997861  1
  Mn  Mn142  1  -0.00008214  -0.00082027  -0.00053216  1
  Mn  Mn143  1  0.25015059  0.00003296  0.12548008  1
  Fe  Fe144  1  0.74903489  0.50011518  0.12452662  1
  Fe  Fe145  1  0.25018670  0.49993504  0.12620670  1
  Fe  Fe146  1  0.49981856  0.16660292  0.24971325  1
  Fe  Fe147  1  0.25054262  0.83278617  0.12534094  1
  Fe  Fe148  1  0.49978083  0.00023782  0.00110629  1
  Fe  Fe149  1  0.49934888  0.33304065  0.24943314  1
  Fe  Fe150  1  0.75009646  0.66789983  0.62417798  1
  Fe  Fe151  1  0.25013337  0.66635710  0.12531909  1
  Fe  Fe152  1  0.00024970  0.83349194  0.49942115  1
  Fe  Fe153  1  0.49969244  0.83327054  0.00074890  1
  Fe  Fe154  1  0.74932790  0.83293717  0.12456943  1
  Fe  Fe155  1  0.00007851  0.16656270  0.24991464  1
  Fe  Fe156  1  0.50003058  0.33391747  0.75091199  1
  Fe  Fe157  1  0.50010283  0.83358695  0.24989790  1
  Fe  Fe158  1  0.74979221  -0.00056682  0.12519961  1
  Fe  Fe159  1  0.24984909  0.33295409  0.37496360  1
  Fe  Fe160  1  0.24973089  0.16702716  0.12604811  1
  Fe  Fe161  1  0.75001945  0.66666060  0.87533168  1
  Fe  Fe162  1  0.50006089  0.66702305  0.24946092  1
  Fe  Fe163  1  -0.00042612  0.50002956  -0.00005630  1
  Fe  Fe164  1  0.49930562  0.16705412  0.00095714  1
  Fe  Fe165  1  -0.00018653  0.66667220  0.00011353  1
  Fe  Fe166  1  0.25007260  0.33320043  0.12586783  1
  Fe  Fe167  1  0.49970873  0.66699016  0.50007314  1
  Fe  Fe168  1  0.00040168  0.83314514  0.00022363  1
  Fe  Fe169  1  0.75005337  0.16632225  0.12459135  1
  Fe  Fe170  1  0.25051531  0.66539859  0.62547542  1
  Fe  Fe171  1  0.49934499  0.33336189  0.00038844  1
  Fe  Fe172  1  0.25023031  0.16691141  0.37564323  1
  Fe  Fe173  1  0.49941495  0.66645944  0.75071341  1
  Fe  Fe174  1  0.00065869  0.83340188  0.74968997  1
  Fe  Fe175  1  0.25040647  0.49942278  0.87632835  1
  Fe  Fe176  1  0.25011678  0.66626177  0.37441127  1
  Fe  Fe177  1  0.74941365  0.16706169  0.37369234  1
  Fe  Fe178  1  0.49934317  0.50015822  0.75072361  1
  Fe  Fe179  1  0.00012945  0.49992293  0.24921536  1
  Fe  Fe180  1  0.50064426  0.16662347  0.49958788  1
  Fe  Fe181  1  0.49980014  0.66670022  0.00018924  1
  Fe  Fe182  1  0.49963330  0.50013225  -0.00000820  1
  Fe  Fe183  1  0.50061749  0.00014866  0.49942777  1
  Fe  Fe184  1  0.74971446  0.83422042  0.37429430  1
  Fe  Fe185  1  0.25080193  0.16585664  0.62468114  1
  Fe  Fe186  1  0.25082444  -0.00040065  0.62455356  1
  Fe  Fe187  1  0.00027236  0.33380959  0.00067266  1
  Fe  Fe188  1  0.50009228  0.00043726  0.24984925  1
  Fe  Fe189  1  0.74936394  0.50156142  0.37496784  1
  Fe  Fe190  1  0.00048186  -0.00029255  0.49959822  1
  Fe  Fe191  1  0.00077977  0.16579631  0.49977114  1
  P  P192  1  0.04216539  0.25125793  0.10296465  1
  P  P193  1  0.04208925  0.24790062  0.35263346  1
  P  P194  1  0.04249288  0.24857450  0.60185309  1
  P  P195  1  0.04312808  0.25048986  0.85371974  1
  P  P196  1  0.04099285  0.58277788  0.10160832  1
  P  P197  1  0.04274355  0.58180726  0.35183022  1
  P  P198  1  0.04315510  0.58359802  0.60340874  1
  P  P199  1  0.04236078  0.58331429  0.85473045  1
  P  P200  1  0.04276756  0.91559838  0.10247904  1
  P  P201  1  0.04351997  0.91661946  0.35395443  1
  P  P202  1  0.04208635  0.91607843  0.60123505  1
  P  P203  1  0.04284393  0.91464441  0.85251508  1
  P  P204  1  0.54039080  0.25025809  0.10259606  1
  P  P205  1  0.54080143  0.25006167  0.35116278  1
  P  P206  1  0.54210694  0.24953316  0.60236013  1
  P  P207  1  0.54156303  0.25186123  0.85381932  1
  P  P208  1  0.54066472  0.58372220  0.10170731  1
  P  P209  1  0.54170978  0.58525878  0.35217084  1
  P  P210  1  0.54141742  0.58484501  0.60322509  1
  P  P211  1  0.54063984  0.58335852  0.85259433  1
  P  P212  1  0.54072754  0.91678115  0.10266885  1
  P  P213  1  0.54145562  0.91737736  0.35120480  1
  P  P214  1  0.54256042  0.91779193  0.60200666  1
  P  P215  1  0.54243291  0.91653805  0.85471305  1
  P  P216  1  0.45871246  0.08322387  0.14805129  1
  P  P217  1  0.45930302  0.08313446  0.39752095  1
  P  P218  1  0.45805058  0.08351187  0.64622521  1
  P  P219  1  0.45832408  0.08369371  0.89960542  1
  P  P220  1  0.45768444  0.41525187  0.14684903  1
  P  P221  1  0.45687458  0.41671007  0.39626841  1
  P  P222  1  0.45854097  0.41665672  0.64899114  1
  P  P223  1  0.45827102  0.41678912  0.89860273  1
  P  P224  1  0.45917019  0.75032989  0.14773821  1
  P  P225  1  0.45807807  0.74892380  0.39663166  1
  P  P226  1  0.45805915  0.74857873  0.64783116  1
  P  P227  1  0.45836760  0.74965815  0.89897927  1
  P  P228  1  0.95797319  0.08453408  0.14753002  1
  P  P229  1  0.95899218  0.08325823  0.39782823  1
  P  P230  1  0.95800162  0.08274320  0.64532808  1
  P  P231  1  0.95685294  0.08271706  0.89651164  1
  P  P232  1  0.95792784  0.41805023  0.14664377  1
  P  P233  1  0.95713408  0.41674227  0.39570006  1
  P  P234  1  0.95672435  0.41647971  0.64668994  1
  P  P235  1  0.95795019  0.41653309  0.89893955  1
  P  P236  1  0.95741061  0.74988977  0.14575604  1
  P  P237  1  0.95786466  0.75094649  0.39722396  1
  P  P238  1  0.95837109  0.75196688  0.64709489  1
  P  P239  1  0.95884465  0.75048692  0.89842162  1
  P  P240  1  0.20812886  0.08500919  0.22818642  1
  P  P241  1  0.20904557  0.08407512  0.47817908  1
  P  P242  1  0.20884676  0.08271852  0.72616538  1
  P  P243  1  0.20744308  0.08328427  0.97908506  1
  P  P244  1  0.20877776  0.41606250  0.22729242  1
  P  P245  1  0.20773340  0.41481461  0.47732695  1
  P  P246  1  0.20735656  0.41638291  0.72908719  1
  P  P247  1  0.20863686  0.41768385  0.97932246  1
  P  P248  1  0.20870759  0.74934054  0.22684955  1
  P  P249  1  0.20841156  0.74776208  0.47770027  1
  P  P250  1  0.20819891  0.74750104  0.72744689  1
  P  P251  1  0.20836304  0.74952795  0.97955743  1
  P  P252  1  0.70842687  0.08365842  0.22618271  1
  P  P253  1  0.70713816  0.08523453  0.47604264  1
  P  P254  1  0.70636493  0.08343347  0.72774475  1
  P  P255  1  0.70737623  0.08301395  0.97950774  1
  P  P256  1  0.70689953  0.41893188  0.22759041  1
  P  P257  1  0.70684739  0.41944775  0.47681518  1
  P  P258  1  0.70668980  0.41766836  0.72796823  1
  P  P259  1  0.70666856  0.41704247  0.97876195  1
  P  P260  1  0.70715946  0.75168704  0.22733905  1
  P  P261  1  0.70737555  0.75208970  0.47689128  1
  P  P262  1  0.70773690  0.74862138  0.72746119  1
  P  P263  1  0.70768557  0.74881911  0.97792795  1
  P  P264  1  0.29151745  0.25006706  0.02460960  1
  P  P265  1  0.29108515  0.24992472  0.27318938  1
  P  P266  1  0.29242828  0.24839886  0.52214052  1
  P  P267  1  0.29353263  0.24912056  0.77232787  1
  P  P268  1  0.29139705  0.58258837  0.02431542  1
  P  P269  1  0.29199990  0.58430278  0.27167089  1
  P  P270  1  0.29251805  0.58402097  0.52232699  1
  P  P271  1  0.29264668  0.58135967  0.77342358  1
  P  P272  1  0.29268019  0.91516065  0.02319457  1
  P  P273  1  0.29306729  0.91604861  0.27136894  1
  P  P274  1  0.29279060  0.91731455  0.52230392  1
  P  P275  1  0.29328631  0.91642767  0.77124327  1
  P  P276  1  0.79205428  0.24898881  0.02297151  1
  P  P277  1  0.79132267  0.24899736  0.27144589  1
  P  P278  1  0.79208144  0.25074324  0.52016481  1
  P  P279  1  0.79281344  0.25050185  0.77167567  1
  P  P280  1  0.79137828  0.58248920  0.02230348  1
  P  P281  1  0.79184941  0.58234494  0.27184444  1
  P  P282  1  0.79219423  0.58573405  0.52181209  1
  P  P283  1  0.79244589  0.58566266  0.77237135  1
  P  P284  1  0.79129368  0.91602299  0.02355488  1
  P  P285  1  0.79192870  0.91548591  0.27101097  1
  P  P286  1  0.79253835  0.91729330  0.52053258  1
  P  P287  1  0.79302099  0.91659310  0.77159338  1
  O  O288  1  0.03677932  0.25059608  0.18291448  1
  O  O289  1  0.03682643  0.24754469  0.43257522  1
  O  O290  1  0.03768160  0.24884788  0.68188043  1
  O  O291  1  0.03778152  0.25107355  0.93372728  1
  O  O292  1  0.03633064  0.58250105  0.18163038  1
  O  O293  1  0.03789587  0.58230846  0.43182311  1
  O  O294  1  0.03793253  0.58373822  0.68341447  1
  O  O295  1  0.03674789  0.58313041  0.93464401  1
  O  O296  1  0.03805271  0.91612768  0.18249084  1
  O  O297  1  0.03805120  0.91658440  0.43387204  1
  O  O298  1  0.03716955  0.91561579  0.68128329  1
  O  O299  1  0.03765735  0.91474644  0.93249264  1
  O  O300  1  0.53545418  0.25025793  0.18252608  1
  O  O301  1  0.53623789  0.24920427  0.43113832  1
  O  O302  1  0.53704371  0.25015122  0.68231022  1
  O  O303  1  0.53585940  0.25178228  0.93367007  1
  O  O304  1  0.53599060  0.58397756  0.18168003  1
  O  O305  1  0.53640353  0.58536301  0.43209501  1
  O  O306  1  0.53607505  0.58448761  0.68311329  1
  O  O307  1  0.53563791  0.58301346  0.93249207  1
  O  O308  1  0.53585844  0.91706443  0.18259461  1
  O  O309  1  0.53673316  0.91742021  0.43118770  1
  O  O310  1  0.53776476  0.91744002  0.68199075  1
  O  O311  1  0.53683124  0.91611535  0.93460077  1
  O  O312  1  0.46338485  0.08367840  0.06816755  1
  O  O313  1  0.46437026  0.08302707  0.31757578  1
  O  O314  1  0.46369935  0.08355474  0.56632461  1
  O  O315  1  0.46286536  0.08389112  0.81958711  1
  O  O316  1  0.46317120  0.41529660  0.06699885  1
  O  O317  1  0.46213909  0.41629389  0.31634339  1
  O  O318  1  0.46301979  0.41694142  0.56897686  1
  O  O319  1  0.46330192  0.41703920  0.81869954  1
  O  O320  1  0.46429791  0.75087345  0.06785535  1
  O  O321  1  0.46352371  0.74913968  0.31674565  1
  O  O322  1  0.46316647  0.74873245  0.56785563  1
  O  O323  1  0.46332595  0.74902272  0.81899766  1
  O  O324  1  0.96263473  0.08426934  0.06754301  1
  O  O325  1  0.96408516  0.08383699  0.31781876  1
  O  O326  1  0.96363662  0.08270343  0.56537796  1
  O  O327  1  0.96194792  0.08246869  0.81650626  1
  O  O328  1  0.96341764  0.41770510  0.06674886  1
  O  O329  1  0.96263629  0.41731784  0.31573250  1
  O  O330  1  0.96171282  0.41639183  0.56667494  1
  O  O331  1  0.96276988  0.41646653  0.81891341  1
  O  O332  1  0.96256884  0.75003501  0.06582734  1
  O  O333  1  0.96269773  0.75024027  0.31721859  1
  O  O334  1  0.96366070  0.75197583  0.56712841  1
  O  O335  1  0.96375042  0.75066837  0.81842904  1
  O  O336  1  0.21234435  0.08374446  0.05910827  1
  O  O337  1  0.21357376  0.08527696  0.30812024  1
  O  O338  1  0.21445959  0.08344127  0.55808335  1
  O  O339  1  0.21360406  0.08247451  0.80624322  1
  O  O340  1  0.21381112  0.41738862  0.05923367  1
  O  O341  1  0.21350674  0.41600744  0.30729347  1
  O  O342  1  0.21272588  0.41489541  0.55730943  1
  O  O343  1  0.21271239  0.41685004  0.80906777  1
  O  O344  1  0.21367852  0.74989645  0.05949961  1
  O  O345  1  0.21359532  0.74882268  0.30688845  1
  O  O346  1  0.21399488  0.74767278  0.55764004  1
  O  O347  1  0.21325828  0.74794862  0.80746902  1
  O  O348  1  0.71294984  0.08293601  0.05946579  1
  O  O349  1  0.71329779  0.08411008  0.30622585  1
  O  O350  1  0.71190128  0.08496426  0.55603696  1
  O  O351  1  0.71146773  0.08323917  0.80779462  1
  O  O352  1  0.71182370  0.41740467  0.05879173  1
  O  O353  1  0.71229241  0.41934010  0.30754215  1
  O  O354  1  0.71229500  0.41915955  0.55679959  1
  O  O355  1  0.71164419  0.41734751  0.80800571  1
  O  O356  1  0.71278950  0.74953539  0.05791940  1
  O  O357  1  0.71239969  0.75198596  0.30726927  1
  O  O358  1  0.71275834  0.75127176  0.55684448  1
  O  O359  1  0.71296000  0.74819334  0.80747082  1
  O  O360  1  0.28571964  0.24984784  0.19326415  1
  O  O361  1  0.28687842  0.24895936  0.44223456  1
  O  O362  1  0.28845294  0.24858607  0.69235075  1
  O  O363  1  0.28702891  0.25010989  0.94459767  1
  O  O364  1  0.28651332  0.58413079  0.19176013  1
  O  O365  1  0.28704418  0.58418955  0.44233647  1
  O  O366  1  0.28766538  0.58199024  0.69344623  1
  O  O367  1  0.28684915  0.58180979  0.94431654  1
  O  O368  1  0.28754633  0.91549652  0.19143762  1
  O  O369  1  0.28778257  0.91716998  0.44229463  1
  O  O370  1  0.28800126  0.91694910  0.69122622  1
  O  O371  1  0.28795357  0.91530485  0.94310970  1
  O  O372  1  0.78587221  0.24857894  0.19148540  1
  O  O373  1  0.78659050  0.25036451  0.44015533  1
  O  O374  1  0.78775576  0.25097953  0.69161432  1
  O  O375  1  0.78726007  0.24936304  0.94295576  1
  O  O376  1  0.78645926  0.58199216  0.19187826  1
  O  O377  1  0.78683690  0.58500461  0.44183622  1
  O  O378  1  0.78757541  0.58611515  0.69233402  1
  O  O379  1  0.78619418  0.58343467  0.94234461  1
  O  O380  1  0.78618503  0.91565015  0.19110894  1
  O  O381  1  0.78731730  0.91691105  0.44053897  1
  O  O382  1  0.78791233  0.91668873  0.69159443  1
  O  O383  1  0.78657502  0.91595537  0.94351809  1
  O  O384  1  0.22720067  0.24995223  0.05996998  1
  O  O385  1  0.22717199  0.24961793  0.30973659  1
  O  O386  1  0.22835411  0.24767854  0.55842188  1
  O  O387  1  0.22912412  0.24965766  0.80739569  1
  O  O388  1  0.22718698  0.58353700  0.05987358  1
  O  O389  1  0.22795199  0.58428075  0.30791281  1
  O  O390  1  0.22831640  0.58403880  0.55818813  1
  O  O391  1  0.22834249  0.58066069  0.80905779  1
  O  O392  1  0.22830453  0.91540538  0.05831761  1
  O  O393  1  0.22894040  0.91643782  0.30701182  1
  O  O394  1  0.22857130  0.91671916  0.55780666  1
  O  O395  1  0.22895452  0.91609010  0.80657381  1
  O  O396  1  0.72761201  0.24876081  0.05805053  1
  O  O397  1  0.72711129  0.24923552  0.30720556  1
  O  O398  1  0.72779990  0.25107847  0.55560667  1
  O  O399  1  0.72828180  0.25029959  0.80651032  1
  O  O400  1  0.72710971  0.58240542  0.05796697  1
  O  O401  1  0.72758937  0.58292286  0.30750543  1
  O  O402  1  0.72792171  0.58633171  0.55753964  1
  O  O403  1  0.72796352  0.58579570  0.80761268  1
  O  O404  1  0.72703755  0.91634676  0.05913346  1
  O  O405  1  0.72782883  0.91561017  0.30727208  1
  O  O406  1  0.72819884  0.91703013  0.55579972  1
  O  O407  1  0.72858761  0.91614199  0.80659102  1
  O  O408  1  0.27234490  0.08481702  0.19246890  1
  O  O409  1  0.27311035  0.08479553  0.44195620  1
  O  O410  1  0.27310058  0.08314765  0.69054079  1
  O  O411  1  0.27199733  0.08289138  0.94432028  1
  O  O412  1  0.27292202  0.41577819  0.19159203  1
  O  O413  1  0.27203815  0.41497403  0.44189671  1
  O  O414  1  0.27168181  0.41601595  0.69376463  1
  O  O415  1  0.27280223  0.41798875  0.94323525  1
  O  O416  1  0.27292067  0.74910696  0.19107246  1
  O  O417  1  0.27257301  0.74745553  0.44168363  1
  O  O418  1  0.27256194  0.74754442  0.69206051  1
  O  O419  1  0.27253460  0.74895567  0.94382792  1
  O  O420  1  0.77262003  0.08353643  0.19053698  1
  O  O421  1  0.77158236  0.08522511  0.44089199  1
  O  O422  1  0.77084874  0.08377615  0.69278803  1
  O  O423  1  0.77151570  0.08307605  0.94364182  1
  O  O424  1  0.77109925  0.41856018  0.19178262  1
  O  O425  1  0.77108690  0.41920729  0.44114403  1
  O  O426  1  0.77114846  0.41796120  0.69307015  1
  O  O427  1  0.77101338  0.41734454  0.94358226  1
  O  O428  1  0.77142894  0.75130854  0.19176754  1
  O  O429  1  0.77159878  0.75252158  0.44105697  1
  O  O430  1  0.77203262  0.74890280  0.69180802  1
  O  O431  1  0.77200384  0.74796297  0.94233488  1
  O  O432  1  0.02244859  0.08509436  0.18272251  1
  O  O433  1  0.02310814  0.08265151  0.43394371  1
  O  O434  1  0.02214847  0.08254381  0.68137401  1
  O  O435  1  0.02131992  0.08304068  0.93150151  1
  O  O436  1  0.02205740  0.41798258  0.18288964  1
  O  O437  1  0.02140927  0.41606771  0.43122883  1
  O  O438  1  0.02125386  0.41671300  0.68162453  1
  O  O439  1  0.02222585  0.41662379  0.93471852  1
  O  O440  1  0.02170490  0.74934596  0.18133489  1
  O  O441  1  0.02231652  0.75141613  0.43241523  1
  O  O442  1  0.02264053  0.75188555  0.68297647  1
  O  O443  1  0.02293251  0.75073762  0.93454928  1
  O  O444  1  0.52284420  0.08287776  0.18410042  1
  O  O445  1  0.52333543  0.08303835  0.43394070  1
  O  O446  1  0.52206808  0.08391529  0.68252568  1
  O  O447  1  0.52251202  0.08385105  0.93526440  1
  O  O448  1  0.52173804  0.41514364  0.18321308  1
  O  O449  1  0.52110306  0.41706796  0.43187826  1
  O  O450  1  0.52265114  0.41643483  0.68491559  1
  O  O451  1  0.52228925  0.41620637  0.93491382  1
  O  O452  1  0.52311279  0.74980185  0.18421357  1
  O  O453  1  0.52211933  0.74863890  0.43306813  1
  O  O454  1  0.52226976  0.74808630  0.68377051  1
  O  O455  1  0.52254913  0.75004269  0.93491302  1
  O  O456  1  0.47633779  0.25064270  0.06634272  1
  O  O457  1  0.47656743  0.25056004  0.31543606  1
  O  O458  1  0.47783760  0.24849130  0.56656117  1
  O  O459  1  0.47753194  0.25231250  0.81731243  1
  O  O460  1  0.47652044  0.58396553  0.06592286  1
  O  O461  1  0.47753763  0.58522526  0.31618826  1
  O  O462  1  0.47727751  0.58522141  0.56691568  1
  O  O463  1  0.47661995  0.58383293  0.81620778  1
  O  O464  1  0.47676611  0.91621138  0.06626971  1
  O  O465  1  0.47729973  0.91773697  0.31532657  1
  O  O466  1  0.47824945  0.91804703  0.56638913  1
  O  O467  1  0.47834252  0.91648945  0.81855937  1
  O  O468  1  0.97794834  0.25194095  0.06703337  1
  O  O469  1  0.97786087  0.24824491  0.31677672  1
  O  O470  1  0.97808328  0.24820032  0.56655304  1
  O  O471  1  0.97874775  0.24984718  0.81841817  1
  O  O472  1  0.97686979  0.58254319  0.06572020  1
  O  O473  1  0.97823396  0.58117904  0.31662207  1
  O  O474  1  0.97876293  0.58366821  0.56821228  1
  O  O475  1  0.97824841  0.58396163  0.81870925  1
  O  O476  1  0.97831525  0.91499110  0.06723750  1
  O  O477  1  0.97928327  0.91689088  0.31823196  1
  O  O478  1  0.97796395  0.91644195  0.56508727  1
  O  O479  1  0.97848192  0.91450685  0.81690813  1
  O  O480  1  0.07309574  0.31493817  0.07502316  1
  O  O481  1  0.07319722  0.31170040  0.32518534  1
  O  O482  1  0.07330286  0.31226653  0.57383026  1
  O  O483  1  0.07411093  0.31382025  0.82515471  1
  O  O484  1  0.07116318  0.64696305  0.07346876  1
  O  O485  1  0.07324998  0.64566121  0.32368164  1
  O  O486  1  0.07409450  0.64711078  0.57518779  1
  O  O487  1  0.07409607  0.64651248  0.82666422  1
  O  O488  1  0.07334818  0.97944389  0.07445780  1
  O  O489  1  0.07485467  0.97996954  0.32559973  1
  O  O490  1  0.07299773  0.97985916  0.57339119  1
  O  O491  1  0.07371699  0.97838642  0.82442018  1
  O  O492  1  0.57196778  0.31337440  0.07417432  1
  O  O493  1  0.57183299  0.31379352  0.32342606  1
  O  O494  1  0.57268054  0.31329764  0.57396939  1
  O  O495  1  0.57277798  0.31501369  0.82491646  1
  O  O496  1  0.57206953  0.64693856  0.07326595  1
  O  O497  1  0.57287172  0.64839101  0.32336210  1
  O  O498  1  0.57252479  0.64811778  0.57444843  1
  O  O499  1  0.57200270  0.64677433  0.82446951  1
  O  O500  1  0.57103053  0.98077166  0.07409978  1
  O  O501  1  0.57298460  0.98049671  0.32278478  1
  O  O502  1  0.57335714  0.98120978  0.57334316  1
  O  O503  1  0.57360426  0.98007071  0.82668738  1
  O  O504  1  0.42741062  0.01987608  0.17634900  1
  O  O505  1  0.42818313  0.01961973  0.42590936  1
  O  O506  1  0.42703475  0.01998700  0.67455710  1
  O  O507  1  0.42777301  0.01984647  0.92780864  1
  O  O508  1  0.42660510  0.35201681  0.17571360  1
  O  O509  1  0.42582954  0.35341540  0.42490806  1
  O  O510  1  0.42759584  0.35303440  0.67701788  1
  O  O511  1  0.42659638  0.35367569  0.92693690  1
  O  O512  1  0.42778426  0.68678853  0.17551631  1
  O  O513  1  0.42685328  0.68580748  0.42546653  1
  O  O514  1  0.42665356  0.68561562  0.67668535  1
  O  O515  1  0.42762654  0.68604670  0.92762721  1
  O  O516  1  0.92745843  0.02067159  0.17555264  1
  O  O517  1  0.92793982  0.01948957  0.42548975  1
  O  O518  1  0.92665116  0.01933321  0.67348538  1
  O  O519  1  0.92614396  0.01910764  0.92490932  1
  O  O520  1  0.92647084  0.35467770  0.17476372  1
  O  O521  1  0.92586472  0.35300030  0.42299988  1
  O  O522  1  0.92594929  0.35289451  0.67489757  1
  O  O523  1  0.92731909  0.35284359  0.92726180  1
  O  O524  1  0.92596896  0.68654345  0.17401944  1
  O  O525  1  0.92710409  0.68724890  0.42536727  1
  O  O526  1  0.92737926  0.68828117  0.67503920  1
  O  O527  1  0.92860899  0.68634853  0.92663725  1
  O  O528  1  0.17694160  0.02122747  0.20078852  1
  O  O529  1  0.17811189  0.02049605  0.44978678  1
  O  O530  1  0.17848811  0.01879798  0.69779401  1
  O  O531  1  0.17651884  0.01970311  0.95077090  1
  O  O532  1  0.17737440  0.35286046  0.19887892  1
  O  O533  1  0.17711611  0.35126846  0.44872052  1
  O  O534  1  0.17618825  0.35279050  0.70116355  1
  O  O535  1  0.17764825  0.35409223  0.95105556  1
  O  O536  1  0.17732717  0.68616375  0.19823203  1
  O  O537  1  0.17700107  0.68479557  0.44890916  1
  O  O538  1  0.17769257  0.68373528  0.69936948  1
  O  O539  1  0.17691746  0.68606167  0.95170141  1
  O  O540  1  0.67794416  0.01954756  0.19835774  1
  O  O541  1  0.67616470  0.02164543  0.44795754  1
  O  O542  1  0.67564152  0.01984006  0.69942474  1
  O  O543  1  0.67622069  0.01955693  0.95125443  1
  O  O544  1  0.67583494  0.35492672  0.20046488  1
  O  O545  1  0.67548670  0.35599316  0.44894812  1
  O  O546  1  0.67574741  0.35439295  0.69930401  1
  O  O547  1  0.67601800  0.35315004  0.95098523  1
  O  O548  1  0.67604982  0.68784916  0.19992010  1
  O  O549  1  0.67623717  0.68865532  0.44864109  1
  O  O550  1  0.67690024  0.68548860  0.69823754  1
  O  O551  1  0.67662207  0.68537822  0.94970596  1
  O  O552  1  0.32211427  0.31382309  0.05288585  1
  O  O553  1  0.32171739  0.31377586  0.30150608  1
  O  O554  1  0.32332452  0.31206145  0.55045759  1
  O  O555  1  0.32461737  0.31261832  0.80052496  1
  O  O556  1  0.32279778  0.64611960  0.05202464  1
  O  O557  1  0.32293231  0.64772531  0.30024649  1
  O  O558  1  0.32359454  0.64708360  0.55133515  1
  O  O559  1  0.32345236  0.64495332  0.80185182  1
  O  O560  1  0.32389893  0.97868970  0.05100763  1
  O  O561  1  0.32427614  0.97975365  0.29884365  1
  O  O562  1  0.32310129  0.98108002  0.55078765  1
  O  O563  1  0.32444909  0.97957694  0.80014573  1
  O  O564  1  0.82292427  0.31260460  0.05114698  1
  O  O565  1  0.82240494  0.31291778  0.29858444  1
  O  O566  1  0.82319414  0.31442389  0.54791732  1
  O  O567  1  0.82373127  0.31387842  0.80031355  1
  O  O568  1  0.82285074  0.64565349  0.05064380  1
  O  O569  1  0.82309968  0.64617408  0.29916013  1
  O  O570  1  0.82300514  0.64942081  0.54994200  1
  O  O571  1  0.82352353  0.64862379  0.80172971  1
  O  O572  1  0.82230104  0.97958052  0.05176608  1
  O  O573  1  0.82325714  0.97915030  0.29873467  1
  O  O574  1  0.82315802  0.98118403  0.54840146  1
  O  O575  1  0.82387079  0.98000585  0.79999637  1
  O  O576  1  0.42826310  0.14693691  0.17712419  1
  O  O577  1  0.42866088  0.14691327  0.42581249  1
  O  O578  1  0.42653628  0.14665272  0.67470649  1
  O  O579  1  0.42747162  0.14730629  0.92793626  1
  O  O580  1  0.42663271  0.47897240  0.17455403  1
  O  O581  1  0.42574798  0.48027272  0.42413559  1
  O  O582  1  0.42811698  0.48048761  0.67748590  1
  O  O583  1  0.42807119  0.48074604  0.92744299  1
  O  O584  1  0.42869193  0.81398104  0.17676128  1
  O  O585  1  0.42722590  0.81273663  0.42462612  1
  O  O586  1  0.42763015  0.81265548  0.67562399  1
  O  O587  1  0.42739935  0.81329611  0.92691537  1
  O  O588  1  0.92712129  0.14793803  0.17602008  1
  O  O589  1  0.92827387  0.14682613  0.42628836  1
  O  O590  1  0.92678025  0.14607542  0.67362803  1
  O  O591  1  0.92562529  0.14606405  0.92448361  1
  O  O592  1  0.92715313  0.48153431  0.17520845  1
  O  O593  1  0.92607809  0.47991729  0.42436436  1
  O  O594  1  0.92575735  0.47994268  0.67495894  1
  O  O595  1  0.92710863  0.48028902  0.92673851  1
  O  O596  1  0.92658168  0.81326515  0.17448162  1
  O  O597  1  0.92709943  0.81451562  0.42535368  1
  O  O598  1  0.92750172  0.81529861  0.67573283  1
  O  O599  1  0.92743368  0.81362626  0.92686330  1
  O  O600  1  0.07314641  0.18781329  0.07477559  1
  O  O601  1  0.07287222  0.18465169  0.32373363  1
  O  O602  1  0.07328755  0.18503941  0.57354991  1
  O  O603  1  0.07433719  0.18692142  0.82589792  1
  O  O604  1  0.07245735  0.51963890  0.07332643  1
  O  O605  1  0.07371272  0.51848316  0.32334588  1
  O  O606  1  0.07421875  0.52013932  0.57542373  1
  O  O607  1  0.07319868  0.51975023  0.82638468  1
  O  O608  1  0.07366689  0.85213650  0.07432599  1
  O  O609  1  0.07466698  0.85329204  0.32544261  1
  O  O610  1  0.07289260  0.85256518  0.57277762  1
  O  O611  1  0.07382282  0.85140630  0.82379313  1
  O  O612  1  0.57072851  0.18626103  0.07417556  1
  O  O613  1  0.57130964  0.18653141  0.32195490  1
  O  O614  1  0.57322690  0.18625741  0.57378634  1
  O  O615  1  0.57248170  0.18806195  0.82607183  1
  O  O616  1  0.57087205  0.51964046  0.07350889  1
  O  O617  1  0.57253842  0.52142294  0.32442700  1
  O  O618  1  0.57226378  0.52118280  0.57485628  1
  O  O619  1  0.57102278  0.51959171  0.82371945  1
  O  O620  1  0.57216951  0.85351454  0.07439810  1
  O  O621  1  0.57151868  0.85324601  0.32283945  1
  O  O622  1  0.57329723  0.85404334  0.57398779  1
  O  O623  1  0.57371371  0.85328600  0.82604992  1
  O  O624  1  0.32229583  0.18641751  0.05291072  1
  O  O625  1  0.32248646  0.18659018  0.30151551  1
  O  O626  1  0.32365772  0.18511801  0.55059981  1
  O  O627  1  0.32448442  0.18581954  0.80109288  1
  O  O628  1  0.32163603  0.51892477  0.05347993  1
  O  O629  1  0.32323691  0.52073830  0.29963368  1
  O  O630  1  0.32331150  0.51997487  0.54977958  1
  O  O631  1  0.32346921  0.51790500  0.80201307  1
  O  O632  1  0.32309724  0.85150516  0.05182407  1
  O  O633  1  0.32425464  0.85286436  0.29994897  1
  O  O634  1  0.32435445  0.85381715  0.54970406  1
  O  O635  1  0.32427084  0.85265892  0.79897860  1
  O  O636  1  0.82284744  0.18542908  0.05121189  1
  O  O637  1  0.82225442  0.18573800  0.30029578  1
  O  O638  1  0.82322016  0.18749408  0.54869636  1
  O  O639  1  0.82372907  0.18686887  0.79954669  1
  O  O640  1  0.82177192  0.51858931  0.05039954  1
  O  O641  1  0.82253492  0.51912353  0.30093025  1
  O  O642  1  0.82321644  0.52232339  0.55023732  1
  O  O643  1  0.82300681  0.52160394  0.80007540  1
  O  O644  1  0.82175906  0.85210414  0.05154223  1
  O  O645  1  0.82286573  0.85219578  0.29982926  1
  O  O646  1  0.82401769  0.85428903  0.54911714  1
  O  O647  1  0.82404444  0.85306966  0.79975852  1
  O  O648  1  0.17720888  0.14825306  0.19930098  1
  O  O649  1  0.17778980  0.14737549  0.44971992  1
  O  O650  1  0.17792687  0.14635823  0.69816015  1
  O  O651  1  0.17651361  0.14656717  0.95031690  1
  O  O652  1  0.17864252  0.48018112  0.19890203  1
  O  O653  1  0.17662166  0.47842257  0.44952031  1
  O  O654  1  0.17621377  0.47952025  0.70027183  1
  O  O655  1  0.17773962  0.48106630  0.95054376  1
  O  O656  1  0.17848226  0.81352668  0.19896085  1
  O  O657  1  0.17781020  0.81187082  0.45017355  1
  O  O658  1  0.17715797  0.81102505  0.69930482  1
  O  O659  1  0.17742552  0.81276191  0.95055133  1
  O  O660  1  0.67723511  0.14693252  0.19767071  1
  O  O661  1  0.67654616  0.14875136  0.44734902  1
  O  O662  1  0.67528430  0.14691485  0.69969833  1
  O  O663  1  0.67610926  0.14637709  0.95122077  1
  O  O664  1  0.67597188  0.48205684  0.19844284  1
  O  O665  1  0.67629639  0.48322431  0.44874173  1
  O  O666  1  0.67578906  0.48139700  0.70023422  1
  O  O667  1  0.67516493  0.48005703  0.95017872  1
  O  O668  1  0.67639118  0.81487614  0.19818591  1
  O  O669  1  0.67654843  0.81568481  0.44867750  1
  O  O670  1  0.67668364  0.81249186  0.70003874  1
  O  O671  1  0.67703455  0.81245729  0.94957971  1
