# generated using pymatgen
data_Na2MnFe(PO4)2
_symmetry_space_group_name_H-M   'P 1'
_cell_length_a   22.34156427
_cell_length_b   20.09495446
_cell_length_c   19.44991584
_cell_angle_alpha   89.94968567
_cell_angle_beta   90.01817715
_cell_angle_gamma   89.98600831
_symmetry_Int_Tables_number   1
_chemical_formula_structural   Na2MnFe(PO4)2
_chemical_formula_sum   'Na96 Mn48 Fe48 P96 O384'
_cell_volume   8732.08848828
_cell_formula_units_Z   48
loop_
 _symmetry_equiv_pos_site_id
 _symmetry_equiv_pos_as_xyz
  1  'x, y, z'
loop_
 _atom_site_type_symbol
 _atom_site_label
 _atom_site_symmetry_multiplicity
 _atom_site_fract_x
 _atom_site_fract_y
 _atom_site_fract_z
 _atom_site_occupancy
  Na  Na0  1  0.14083336  0.25083707  0.24476631  1
  Na  Na1  1  0.14113913  0.24996709  0.49276525  1
  Na  Na2  1  0.14026807  0.25090621  0.74330934  1
  Na  Na3  1  0.14069793  0.25054811  0.99421132  1
  Na  Na4  1  0.14049594  0.58169410  0.24332144  1
  Na  Na5  1  0.14068068  0.58236687  0.49288630  1
  Na  Na6  1  0.14059184  0.58462614  0.74285616  1
  Na  Na7  1  0.14069393  0.58170827  0.99460218  1
  Na  Na8  1  0.14035667  0.91645543  0.24589034  1
  Na  Na9  1  0.14055422  0.91737807  0.49386928  1
  Na  Na10  1  0.14033517  0.91749587  0.74369740  1
  Na  Na11  1  0.14034707  0.91659906  0.99394722  1
  Na  Na12  1  0.64052425  0.24884780  0.24402932  1
  Na  Na13  1  0.64061449  0.25104739  0.49472333  1
  Na  Na14  1  0.63975004  0.24946238  0.74287643  1
  Na  Na15  1  0.63985693  0.24939552  0.99301717  1
  Na  Na16  1  0.63964208  0.58284580  0.24358893  1
  Na  Na17  1  0.63990368  0.58409346  0.49313637  1
  Na  Na18  1  0.64008091  0.58336973  0.74226460  1
  Na  Na19  1  0.64030309  0.58334499  0.99292686  1
  Na  Na20  1  0.63982657  0.91668680  0.24440239  1
  Na  Na21  1  0.63939099  0.91850197  0.49407694  1
  Na  Na22  1  0.63973869  0.91787857  0.74228603  1
  Na  Na23  1  0.63956767  0.91752918  0.99298149  1
  Na  Na24  1  0.35965155  0.08379589  0.00616303  1
  Na  Na25  1  0.35941634  0.08245986  0.25773558  1
  Na  Na26  1  0.36009566  0.08222152  0.50626240  1
  Na  Na27  1  0.36018561  0.08380392  0.75748291  1
  Na  Na28  1  0.36024000  0.41551727  0.00658862  1
  Na  Na29  1  0.36031261  0.41584947  0.25720062  1
  Na  Na30  1  0.36067280  0.41702091  0.50598550  1
  Na  Na31  1  0.35987775  0.41720181  0.75752840  1
  Na  Na32  1  0.35968343  0.74818780  0.00554290  1
  Na  Na33  1  0.35973767  0.74937017  0.25752277  1
  Na  Na34  1  0.35977498  0.74993153  0.50696888  1
  Na  Na35  1  0.35993671  0.75013858  0.75600341  1
  Na  Na36  1  0.85935031  0.08293111  0.00436860  1
  Na  Na37  1  0.85922548  0.08216049  0.25707719  1
  Na  Na38  1  0.85981242  0.08402272  0.50837870  1
  Na  Na39  1  0.85985878  0.08355844  0.75600681  1
  Na  Na40  1  0.85966589  0.41618252  0.00508596  1
  Na  Na41  1  0.86006316  0.41610537  0.25715737  1
  Na  Na42  1  0.85986429  0.41709011  0.50529807  1
  Na  Na43  1  0.85989755  0.41570844  0.75537270  1
  Na  Na44  1  0.85910966  0.75137160  0.00532840  1
  Na  Na45  1  0.85900788  0.74917635  0.25646112  1
  Na  Na46  1  0.85899000  0.75106907  0.50613054  1
  Na  Na47  1  0.85924381  0.75143060  0.75625130  1
  Na  Na48  1  0.10978803  0.08376505  0.12040503  1
  Na  Na49  1  0.10995633  0.08450849  0.36957131  1
  Na  Na50  1  0.10974903  0.08328978  0.61897035  1
  Na  Na51  1  0.10951339  0.08480557  0.86820267  1
  Na  Na52  1  0.11066054  0.41660637  0.11988663  1
  Na  Na53  1  0.11047888  0.41765023  0.36746446  1
  Na  Na54  1  0.11019565  0.41557195  0.61805954  1
  Na  Na55  1  0.11037964  0.41645166  0.86799046  1
  Na  Na56  1  0.10941621  0.74909542  0.11999563  1
  Na  Na57  1  0.10952861  0.74988642  0.36896274  1
  Na  Na58  1  0.10944243  0.74991227  0.61861349  1
  Na  Na59  1  0.10967885  0.75027193  0.86824290  1
  Na  Na60  1  0.60936395  0.08279912  0.11885805  1
  Na  Na61  1  0.61001874  0.08409489  0.36910077  1
  Na  Na62  1  0.60988008  0.08279174  0.61858491  1
  Na  Na63  1  0.60883694  0.08212166  0.86718828  1
  Na  Na64  1  0.60973169  0.41638116  0.11926165  1
  Na  Na65  1  0.60939909  0.41855946  0.36811119  1
  Na  Na66  1  0.60955061  0.41619088  0.61932968  1
  Na  Na67  1  0.60923046  0.41513221  0.86714643  1
  Na  Na68  1  0.60906991  0.75039865  0.11892872  1
  Na  Na69  1  0.60925421  0.75160063  0.36842512  1
  Na  Na70  1  0.60929828  0.75069588  0.61844945  1
  Na  Na71  1  0.60908373  0.75058870  0.86682077  1
  Na  Na72  1  0.39047545  0.25103471  0.13204340  1
  Na  Na73  1  0.39065311  0.25126954  0.38180808  1
  Na  Na74  1  0.39080585  0.24969302  0.63267238  1
  Na  Na75  1  0.38998333  0.24893809  0.88192355  1
  Na  Na76  1  0.39089005  0.58183940  0.13205529  1
  Na  Na77  1  0.39062408  0.58381297  0.38133142  1
  Na  Na78  1  0.39071622  0.58233534  0.63220965  1
  Na  Na79  1  0.39049128  0.58257989  0.88057710  1
  Na  Na80  1  0.39028250  0.91643738  0.13166917  1
  Na  Na81  1  0.39022155  0.91716179  0.38261928  1
  Na  Na82  1  0.39043646  0.91605473  0.63123977  1
  Na  Na83  1  0.39033846  0.91599021  0.88029538  1
  Na  Na84  1  0.89029628  0.25063454  0.13116457  1
  Na  Na85  1  0.89070344  0.25021680  0.38259825  1
  Na  Na86  1  0.89067538  0.24884572  0.63178948  1
  Na  Na87  1  0.89001847  0.25034296  0.87939357  1
  Na  Na88  1  0.89046227  0.58253400  0.13159514  1
  Na  Na89  1  0.89039644  0.58307476  0.37996380  1
  Na  Na90  1  0.89083764  0.58188411  0.63004614  1
  Na  Na91  1  0.89059920  0.58391327  0.87973657  1
  Na  Na92  1  0.88955193  0.91644312  0.13102309  1
  Na  Na93  1  0.88986034  0.91727866  0.38272891  1
  Na  Na94  1  0.88987212  0.91724201  0.63231583  1
  Na  Na95  1  0.88964860  0.91752958  0.88032902  1
  Mn  Mn96  1  0.25022648  0.66688295  0.62427949  1
  Mn  Mn97  1  0.00026156  0.33371539  -0.00019779  1
  Mn  Mn98  1  0.25011682  0.49990506  0.87532834  1
  Mn  Mn99  1  0.24978779  -0.00005744  0.62537684  1
  Mn  Mn100  1  0.00054909  0.49957094  0.74935072  1
  Mn  Mn101  1  -0.00024152  0.66540599  0.49910428  1
  Mn  Mn102  1  0.25014793  0.83239839  0.87505898  1
  Mn  Mn103  1  0.75024082  0.16480707  0.12366570  1
  Mn  Mn104  1  0.24998706  0.00011709  0.12566869  1
  Mn  Mn105  1  0.74945297  0.16640864  0.87433601  1
  Mn  Mn106  1  0.75023994  0.66824493  0.62398199  1
  Mn  Mn107  1  0.25026499  0.00076827  0.87495910  1
  Mn  Mn108  1  0.49928437  0.83355713  -0.00080544  1
  Mn  Mn109  1  0.49941871  0.83429820  0.24976631  1
  Mn  Mn110  1  0.74975477  0.00032094  0.37586660  1
  Mn  Mn111  1  0.24983080  0.66563541  0.37546572  1
  Mn  Mn112  1  0.75000720  0.49993350  0.62444859  1
  Mn  Mn113  1  0.74908600  0.83438296  0.12518553  1
  Mn  Mn114  1  0.49961381  0.16702706  0.25006489  1
  Mn  Mn115  1  -0.00075901  0.83351319  0.50020522  1
  Mn  Mn116  1  -0.00019008  0.83331394  0.00013414  1
  Mn  Mn117  1  -0.00102996  0.16771394  0.25036784  1
  Mn  Mn118  1  0.49982975  0.16603038  0.00027457  1
  Mn  Mn119  1  -0.00014444  0.00034875  0.00010509  1
  Mn  Mn120  1  0.74981291  0.49916904  0.12370034  1
  Mn  Mn121  1  0.25138629  0.33431164  0.62433582  1
  Mn  Mn122  1  -0.00003209  0.16724387  -0.00027926  1
  Mn  Mn123  1  0.25077207  0.16717913  0.62470966  1
  Mn  Mn124  1  0.24998289  0.83247993  0.12523884  1
  Mn  Mn125  1  0.50059949  0.33448470  0.50126486  1
  Mn  Mn126  1  0.75007394  0.33216963  0.12538243  1
  Mn  Mn127  1  0.50007435  0.66685155  0.50032145  1
  Mn  Mn128  1  0.00001634  0.66655253  0.00009117  1
  Mn  Mn129  1  0.74953901  0.66686396  0.12463956  1
  Mn  Mn130  1  0.50033806  0.16647749  0.50054310  1
  Mn  Mn131  1  0.00020441  0.49983126  -0.00040499  1
  Mn  Mn132  1  0.75001206  0.33284875  0.37510617  1
  Mn  Mn133  1  -0.00010770  0.83299356  0.25107171  1
  Mn  Mn134  1  0.00006063  0.83361743  0.74952389  1
  Mn  Mn135  1  -0.00026604  0.00047809  0.25074945  1
  Mn  Mn136  1  0.74989653  0.66796464  0.87390715  1
  Mn  Mn137  1  0.24986148  0.66493192  0.12631375  1
  Mn  Mn138  1  0.50025206  0.66598316  -0.00058147  1
  Mn  Mn139  1  0.24980052  0.16761118  0.12634206  1
  Mn  Mn140  1  0.00036963  0.33332149  0.49984330  1
  Mn  Mn141  1  0.50081066  0.49870688  0.00040368  1
  Mn  Mn142  1  0.74893021  0.66705904  0.37511690  1
  Mn  Mn143  1  0.75011972  0.49940338  0.87392028  1
  Fe  Fe144  1  0.49990519  0.00033428  0.25004411  1
  Fe  Fe145  1  0.00069553  0.33396712  0.25064224  1
  Fe  Fe146  1  0.49965542  0.83377688  0.49996838  1
  Fe  Fe147  1  0.24986129  0.49994394  0.62475626  1
  Fe  Fe148  1  0.00024477  0.50001294  0.24970437  1
  Fe  Fe149  1  0.74914060  0.00007126  0.87421694  1
  Fe  Fe150  1  0.25095525  0.33318366  0.12542330  1
  Fe  Fe151  1  0.74908004  0.83474060  0.87495354  1
  Fe  Fe152  1  0.74998619  0.33356473  0.62422072  1
  Fe  Fe153  1  0.74974602  0.50000701  0.37497325  1
  Fe  Fe154  1  0.50012081  0.66603468  0.74920531  1
  Fe  Fe155  1  0.50021562  0.50059513  0.25009127  1
  Fe  Fe156  1  0.75008284  0.16739075  0.62554507  1
  Fe  Fe157  1  0.50018172  0.33258039  -0.00018003  1
  Fe  Fe158  1  -0.00030239  0.66622664  0.24997486  1
  Fe  Fe159  1  0.74972555  0.83421645  0.37544297  1
  Fe  Fe160  1  -0.00007676  0.66637258  0.74941587  1
  Fe  Fe161  1  0.24984742  0.83339778  0.62516648  1
  Fe  Fe162  1  0.50020334  0.49912335  0.75046253  1
  Fe  Fe163  1  0.25083441  0.16663785  0.37493474  1
  Fe  Fe164  1  0.24971400  0.16766247  0.87589281  1
  Fe  Fe165  1  0.49982292  0.66720564  0.25009087  1
  Fe  Fe166  1  0.75051104  0.16682932  0.37599224  1
  Fe  Fe167  1  0.74956087  -0.00031542  0.12511517  1
  Fe  Fe168  1  0.49987577  0.83322429  0.74917461  1
  Fe  Fe169  1  0.74930902  0.83484400  0.62531989  1
  Fe  Fe170  1  0.25050410  0.33350627  0.37477397  1
  Fe  Fe171  1  0.49959327  0.33257335  0.75037477  1
  Fe  Fe172  1  0.00086369  0.49968108  0.49907498  1
  Fe  Fe173  1  0.25026752  -0.00061276  0.37593391  1
  Fe  Fe174  1  0.00000735  0.00067295  0.50115514  1
  Fe  Fe175  1  0.49946882  -0.00027670  -0.00078172  1
  Fe  Fe176  1  0.74972582  0.33275564  0.87415494  1
  Fe  Fe177  1  0.24975165  0.33366407  0.87540221  1
  Fe  Fe178  1  0.24974354  0.66608237  0.87497254  1
  Fe  Fe179  1  0.24982870  0.83290472  0.37569426  1
  Fe  Fe180  1  0.75013116  0.00057669  0.62503380  1
  Fe  Fe181  1  0.25099542  0.49901530  0.37453959  1
  Fe  Fe182  1  0.25102700  0.49861480  0.12451938  1
  Fe  Fe183  1  0.50092034  0.33391544  0.25064239  1
  Fe  Fe184  1  0.49946765  0.00037486  0.50034864  1
  Fe  Fe185  1  0.49981825  0.16573956  0.75046993  1
  Fe  Fe186  1  0.00053881  0.16670187  0.50089913  1
  Fe  Fe187  1  0.50034200  0.50069479  0.50017808  1
  Fe  Fe188  1  -0.00006428  0.33290341  0.74864529  1
  Fe  Fe189  1  0.49933951  -0.00078351  0.74930800  1
  Fe  Fe190  1  0.00017669  0.16655722  0.74963276  1
  Fe  Fe191  1  0.00021183  0.00033004  0.75007835  1
  P  P192  1  0.04288830  0.25075172  0.10378131  1
  P  P193  1  0.04236435  0.25145802  0.35310536  1
  P  P194  1  0.04275401  0.24861596  0.60295500  1
  P  P195  1  0.04133619  0.25049740  0.85081170  1
  P  P196  1  0.04265277  0.58276537  0.10404229  1
  P  P197  1  0.04182527  0.58299062  0.35141407  1
  P  P198  1  0.04274253  0.58157195  0.60198120  1
  P  P199  1  0.04286515  0.58439645  0.85178179  1
  P  P200  1  0.04292562  0.91659398  0.10365762  1
  P  P201  1  0.04227281  0.91751271  0.35464301  1
  P  P202  1  0.04191475  0.91799435  0.60303963  1
  P  P203  1  0.04250533  0.91808252  0.85225854  1
  P  P204  1  0.54210184  0.25121194  0.10284584  1
  P  P205  1  0.54247936  0.25150684  0.35282241  1
  P  P206  1  0.54236158  0.24969969  0.60455598  1
  P  P207  1  0.54098509  0.24930651  0.85187028  1
  P  P208  1  0.54281191  0.58312149  0.10382399  1
  P  P209  1  0.54119681  0.58425407  0.35192427  1
  P  P210  1  0.54221175  0.58204410  0.60330826  1
  P  P211  1  0.54169372  0.58286990  0.85101071  1
  P  P212  1  0.54151280  0.91811672  0.10218597  1
  P  P213  1  0.54164924  0.91850003  0.35321730  1
  P  P214  1  0.54051027  0.91695028  0.60206083  1
  P  P215  1  0.54099571  0.91655410  0.85080372  1
  P  P216  1  0.45726421  0.08219746  0.14745387  1
  P  P217  1  0.45815974  0.08252867  0.39746490  1
  P  P218  1  0.45844928  0.08268954  0.64835974  1
  P  P219  1  0.45768976  0.08177145  0.89660480  1
  P  P220  1  0.45908716  0.41623463  0.14884588  1
  P  P221  1  0.45887357  0.41864229  0.39738808  1
  P  P222  1  0.45858642  0.41638456  0.64890392  1
  P  P223  1  0.45825743  0.41464708  0.89710202  1
  P  P224  1  0.45719833  0.74903120  0.14770181  1
  P  P225  1  0.45784171  0.75133892  0.39768332  1
  P  P226  1  0.45870194  0.74976647  0.64786815  1
  P  P227  1  0.45751269  0.74939318  0.89544377  1
  P  P228  1  0.95648752  0.08373150  0.14725480  1
  P  P229  1  0.95841539  0.08410402  0.39954073  1
  P  P230  1  0.95899580  0.08314458  0.64799471  1
  P  P231  1  0.95749856  0.08375302  0.89559711  1
  P  P232  1  0.95853219  0.41651179  0.14867309  1
  P  P233  1  0.95858579  0.41804141  0.39649103  1
  P  P234  1  0.95796373  0.41515829  0.64637853  1
  P  P235  1  0.95755491  0.41646315  0.89562001  1
  P  P236  1  0.95726347  0.74879401  0.14796219  1
  P  P237  1  0.95681611  0.74938995  0.39646602  1
  P  P238  1  0.95744852  0.74843655  0.64725258  1
  P  P239  1  0.95717278  0.74996192  0.89610152  1
  P  P240  1  0.20765611  0.08334405  0.22997750  1
  P  P241  1  0.20929476  0.08356599  0.47664087  1
  P  P242  1  0.20778111  0.08467390  0.72871354  1
  P  P243  1  0.20751988  0.08498893  0.97777241  1
  P  P244  1  0.20970238  0.41633368  0.22727703  1
  P  P245  1  0.20917852  0.41683925  0.47637000  1
  P  P246  1  0.20817681  0.41785844  0.72742778  1
  P  P247  1  0.20816004  0.41520295  0.97832191  1
  P  P248  1  0.20737003  0.74960778  0.22935255  1
  P  P249  1  0.20783759  0.75097175  0.47794634  1
  P  P250  1  0.20776176  0.75088775  0.72739036  1
  P  P251  1  0.20755401  0.74764617  0.97775305  1
  P  P252  1  0.70755966  0.08178522  0.22777589  1
  P  P253  1  0.70823228  0.08537380  0.47886688  1
  P  P254  1  0.70864431  0.08338425  0.72653415  1
  P  P255  1  0.70694889  0.08163778  0.97683253  1
  P  P256  1  0.70767144  0.41633139  0.22857441  1
  P  P257  1  0.70766356  0.41752835  0.47752620  1
  P  P258  1  0.70811001  0.41474016  0.72727398  1
  P  P259  1  0.70733451  0.41494551  0.97646995  1
  P  P260  1  0.70655519  0.75026626  0.22855071  1
  P  P261  1  0.70726629  0.75268309  0.47793353  1
  P  P262  1  0.70761254  0.75244680  0.72732822  1
  P  P263  1  0.70684090  0.75197946  0.97674134  1
  P  P264  1  0.29228922  0.25117147  0.02248226  1
  P  P265  1  0.29202191  0.25031168  0.27361204  1
  P  P266  1  0.29368766  0.25023885  0.52086028  1
  P  P267  1  0.29138815  0.25062982  0.77390556  1
  P  P268  1  0.29276627  0.58160784  0.02255434  1
  P  P269  1  0.29249282  0.58103568  0.27246518  1
  P  P270  1  0.29251636  0.58144427  0.52222913  1
  P  P271  1  0.29208933  0.58440989  0.77223443  1
  P  P272  1  0.29284282  0.91639820  0.02222525  1
  P  P273  1  0.29156905  0.91614492  0.27430591  1
  P  P274  1  0.29187753  0.91529263  0.52218952  1
  P  P275  1  0.29246863  0.91636942  0.77151726  1
  P  P276  1  0.79261347  0.24969232  0.02085861  1
  P  P277  1  0.79270483  0.24790739  0.27293441  1
  P  P278  1  0.79179269  0.25010153  0.52335555  1
  P  P279  1  0.79144704  0.25073789  0.77117192  1
  P  P280  1  0.79296076  0.58365628  0.02112617  1
  P  P281  1  0.79148870  0.58213847  0.27249480  1
  P  P282  1  0.79240356  0.58359984  0.52081022  1
  P  P283  1  0.79269575  0.58373642  0.77093016  1
  P  P284  1  0.79149490  0.91839652  0.02160860  1
  P  P285  1  0.79219832  0.91596976  0.27295684  1
  P  P286  1  0.79109097  0.91712288  0.52342748  1
  P  P287  1  0.79073135  0.91732534  0.77246387  1
  O  O288  1  0.03759968  0.25129795  0.18371975  1
  O  O289  1  0.03748307  0.25090441  0.43302744  1
  O  O290  1  0.03721192  0.24898992  0.68278174  1
  O  O291  1  0.03663583  0.25039272  0.93081391  1
  O  O292  1  0.03722607  0.58269619  0.18396334  1
  O  O293  1  0.03702246  0.58219312  0.43140794  1
  O  O294  1  0.03754535  0.58221327  0.68186807  1
  O  O295  1  0.03785011  0.58410606  0.93176545  1
  O  O296  1  0.03783401  0.91639088  0.18367004  1
  O  O297  1  0.03682109  0.91792311  0.43458752  1
  O  O298  1  0.03678476  0.91807094  0.68300477  1
  O  O299  1  0.03750426  0.91751134  0.93225045  1
  O  O300  1  0.53691633  0.25146559  0.18278456  1
  O  O301  1  0.53737957  0.25111450  0.43276985  1
  O  O302  1  0.53675207  0.24946433  0.68439724  1
  O  O303  1  0.53638833  0.24911113  0.93187284  1
  O  O304  1  0.53736763  0.58351192  0.18370442  1
  O  O305  1  0.53648714  0.58366204  0.43192657  1
  O  O306  1  0.53692641  0.58220185  0.68315428  1
  O  O307  1  0.53715912  0.58249197  0.93102544  1
  O  O308  1  0.53622411  0.91827431  0.18212942  1
  O  O309  1  0.53612072  0.91808482  0.43305760  1
  O  O310  1  0.53552860  0.91649694  0.68192321  1
  O  O311  1  0.53633033  0.91647999  0.93073611  1
  O  O312  1  0.46254713  0.08222367  0.06748728  1
  O  O313  1  0.46337154  0.08247540  0.31755045  1
  O  O314  1  0.46321690  0.08286995  0.56837997  1
  O  O315  1  0.46304186  0.08218577  0.81673823  1
  O  O316  1  0.46379952  0.41595256  0.06888050  1
  O  O317  1  0.46440029  0.41822702  0.31758454  1
  O  O318  1  0.46352683  0.41731229  0.56899171  1
  O  O319  1  0.46346556  0.41488255  0.81723606  1
  O  O320  1  0.46230176  0.74923762  0.06774867  1
  O  O321  1  0.46251067  0.75110775  0.31775473  1
  O  O322  1  0.46351119  0.75045046  0.56788927  1
  O  O323  1  0.46304282  0.74913844  0.81557023  1
  O  O324  1  0.96158632  0.08379482  0.06728034  1
  O  O325  1  0.96281135  0.08424937  0.31954151  1
  O  O326  1  0.96394543  0.08339373  0.56808182  1
  O  O327  1  0.96294488  0.08353061  0.81568690  1
  O  O328  1  0.96332073  0.41672378  0.06862419  1
  O  O329  1  0.96391471  0.41780523  0.31660317  1
  O  O330  1  0.96337353  0.41579135  0.56649070  1
  O  O331  1  0.96266007  0.41576060  0.81566906  1
  O  O332  1  0.96252466  0.74919982  0.06795263  1
  O  O333  1  0.96208312  0.74908436  0.31654662  1
  O  O334  1  0.96250342  0.74879123  0.56728934  1
  O  O335  1  0.96242708  0.74973828  0.81612540  1
  O  O336  1  0.21257078  0.08474763  0.05777990  1
  O  O337  1  0.21337732  0.08330656  0.30983678  1
  O  O338  1  0.21403374  0.08339538  0.55664950  1
  O  O339  1  0.21280094  0.08521765  0.80865588  1
  O  O340  1  0.21359326  0.41522498  0.05816893  1
  O  O341  1  0.21503527  0.41658355  0.30716077  1
  O  O342  1  0.21378448  0.41709744  0.55635283  1
  O  O343  1  0.21301193  0.41713165  0.80737035  1
  O  O344  1  0.21270388  0.74770985  0.05775245  1
  O  O345  1  0.21265576  0.75006616  0.30930953  1
  O  O346  1  0.21308091  0.75102538  0.55789445  1
  O  O347  1  0.21296941  0.74981571  0.80731758  1
  O  O348  1  0.71220244  0.08123677  0.05678167  1
  O  O349  1  0.71259661  0.08259215  0.30769699  1
  O  O350  1  0.71362561  0.08530904  0.55872672  1
  O  O351  1  0.71326099  0.08258843  0.80649638  1
  O  O352  1  0.71220789  0.41518894  0.05651583  1
  O  O353  1  0.71299914  0.41710268  0.30853841  1
  O  O354  1  0.71296490  0.41690857  0.55748029  1
  O  O355  1  0.71348365  0.41427031  0.80720011  1
  O  O356  1  0.71187696  0.75146484  0.05675071  1
  O  O357  1  0.71165689  0.75053878  0.30851940  1
  O  O358  1  0.71282823  0.75277530  0.55786928  1
  O  O359  1  0.71284071  0.75260751  0.80726433  1
  O  O360  1  0.28707535  0.25101680  0.19365807  1
  O  O361  1  0.28857633  0.25004160  0.44098788  1
  O  O362  1  0.28713579  0.25085872  0.69383818  1
  O  O363  1  0.28677025  0.25105705  0.94261129  1
  O  O364  1  0.28734697  0.58084548  0.19253411  1
  O  O365  1  0.28732516  0.58134562  0.44228328  1
  O  O366  1  0.28700158  0.58389955  0.69231499  1
  O  O367  1  0.28719058  0.58256442  0.94264233  1
  O  O368  1  0.28712124  0.91655651  0.19428596  1
  O  O369  1  0.28628802  0.91536315  0.44231826  1
  O  O370  1  0.28699180  0.91604173  0.69158310  1
  O  O371  1  0.28773483  0.91651087  0.94225737  1
  O  O372  1  0.78778129  0.24787381  0.19295916  1
  O  O373  1  0.78679167  0.24941031  0.44338515  1
  O  O374  1  0.78622838  0.25069327  0.69125923  1
  O  O375  1  0.78715672  0.25039408  0.94091278  1
  O  O376  1  0.78648709  0.58233011  0.19250301  1
  O  O377  1  0.78673835  0.58305248  0.44089261  1
  O  O378  1  0.78757218  0.58385103  0.69094943  1
  O  O379  1  0.78800551  0.58381007  0.94111724  1
  O  O380  1  0.78721080  0.91674004  0.19300869  1
  O  O381  1  0.78649337  0.91703662  0.44345707  1
  O  O382  1  0.78562991  0.91716525  0.69253719  1
  O  O383  1  0.78594691  0.91808058  0.94172425  1
  O  O384  1  0.22817632  0.25180266  0.05871493  1
  O  O385  1  0.22791159  0.24949129  0.30960585  1
  O  O386  1  0.22934134  0.25069078  0.55628757  1
  O  O387  1  0.22706780  0.25025585  0.80931324  1
  O  O388  1  0.22857564  0.58057820  0.05855016  1
  O  O389  1  0.22820750  0.58107740  0.30814096  1
  O  O390  1  0.22818471  0.58179677  0.55778109  1
  O  O391  1  0.22784615  0.58437486  0.80799281  1
  O  O392  1  0.22839546  0.91637355  0.05728275  1
  O  O393  1  0.22730298  0.91582975  0.30977362  1
  O  O394  1  0.22778411  0.91496731  0.55850070  1
  O  O395  1  0.22829616  0.91664390  0.80718092  1
  O  O396  1  0.72832340  0.24917023  0.05635474  1
  O  O397  1  0.72828214  0.24803584  0.30823943  1
  O  O398  1  0.72758936  0.25025725  0.55925171  1
  O  O399  1  0.72731456  0.25054816  0.80725113  1
  O  O400  1  0.72835973  0.58334311  0.05582299  1
  O  O401  1  0.72718817  0.58200697  0.30806493  1
  O  O402  1  0.72817363  0.58396499  0.55637522  1
  O  O403  1  0.72828901  0.58360483  0.80599234  1
  O  O404  1  0.72732406  0.91880655  0.05786902  1
  O  O405  1  0.72781027  0.91592416  0.30842764  1
  O  O406  1  0.72680053  0.91712694  0.55896172  1
  O  O407  1  0.72659377  0.91718816  0.80867112  1
  O  O408  1  0.27178501  0.08359277  0.19394950  1
  O  O409  1  0.27345233  0.08404506  0.44093331  1
  O  O410  1  0.27214377  0.08376037  0.69346490  1
  O  O411  1  0.27188488  0.08538162  0.94231378  1
  O  O412  1  0.27366494  0.41639245  0.19057244  1
  O  O413  1  0.27349779  0.41677329  0.44090119  1
  O  O414  1  0.27260240  0.41870391  0.69201252  1
  O  O415  1  0.27228510  0.41524985  0.94217265  1
  O  O416  1  0.27169212  0.74919330  0.19397606  1
  O  O417  1  0.27209137  0.75052073  0.44226849  1
  O  O418  1  0.27203400  0.75149120  0.69159218  1
  O  O419  1  0.27190398  0.74757491  0.94224636  1
  O  O420  1  0.77187312  0.08110696  0.19205455  1
  O  O421  1  0.77236937  0.08497655  0.44272602  1
  O  O422  1  0.77281449  0.08393386  0.69072547  1
  O  O423  1  0.77120562  0.08183740  0.94110563  1
  O  O424  1  0.77194720  0.41617115  0.19306213  1
  O  O425  1  0.77189398  0.41776238  0.44176841  1
  O  O426  1  0.77227032  0.41496571  0.69134067  1
  O  O427  1  0.77182037  0.41503545  0.94141577  1
  O  O428  1  0.77087778  0.75053029  0.19317289  1
  O  O429  1  0.77140294  0.75208028  0.44193793  1
  O  O430  1  0.77188053  0.75263735  0.69163259  1
  O  O431  1  0.77124003  0.75249236  0.94142858  1
  O  O432  1  0.02095379  0.08408881  0.18227416  1
  O  O433  1  0.02283027  0.08386673  0.43490508  1
  O  O434  1  0.02305243  0.08262787  0.68416182  1
  O  O435  1  0.02168201  0.08386808  0.93152501  1
  O  O436  1  0.02284478  0.41639703  0.18434029  1
  O  O437  1  0.02278895  0.41788002  0.43253918  1
  O  O438  1  0.02220877  0.41480743  0.68222673  1
  O  O439  1  0.02199721  0.41678503  0.93082357  1
  O  O440  1  0.02159161  0.74833336  0.18356643  1
  O  O441  1  0.02115418  0.74980903  0.43180670  1
  O  O442  1  0.02180752  0.74862821  0.68272098  1
  O  O443  1  0.02154123  0.75016085  0.93145783  1
  O  O444  1  0.52158044  0.08225822  0.18321900  1
  O  O445  1  0.52234553  0.08193806  0.43343267  1
  O  O446  1  0.52263106  0.08223901  0.68417345  1
  O  O447  1  0.52182039  0.08156472  0.93281065  1
  O  O448  1  0.52326261  0.41613457  0.18474486  1
  O  O449  1  0.52289524  0.41896022  0.43389283  1
  O  O450  1  0.52274775  0.41502649  0.68478730  1
  O  O451  1  0.52247781  0.41425989  0.93314391  1
  O  O452  1  0.52151688  0.74923367  0.18332623  1
  O  O453  1  0.52214123  0.75105880  0.43320652  1
  O  O454  1  0.52281324  0.74896227  0.68381122  1
  O  O455  1  0.52169577  0.74988994  0.93135280  1
  O  O456  1  0.47786152  0.25104460  0.06696378  1
  O  O457  1  0.47819768  0.25196905  0.31713739  1
  O  O458  1  0.47828100  0.25017763  0.56852973  1
  O  O459  1  0.47678544  0.24992339  0.81609988  1
  O  O460  1  0.47862049  0.58251150  0.06796588  1
  O  O461  1  0.47709996  0.58474977  0.31590955  1
  O  O462  1  0.47804771  0.58211496  0.56715632  1
  O  O463  1  0.47741037  0.58369241  0.81552178  1
  O  O464  1  0.47728314  0.91809371  0.06627077  1
  O  O465  1  0.47751571  0.91899361  0.31691567  1
  O  O466  1  0.47652884  0.91758253  0.56566755  1
  O  O467  1  0.47677787  0.91683080  0.81501945  1
  O  O468  1  0.97852363  0.25045794  0.06839248  1
  O  O469  1  0.97798207  0.25243023  0.31765452  1
  O  O470  1  0.97853833  0.24855405  0.56694848  1
  O  O471  1  0.97715322  0.25102966  0.81502595  1
  O  O472  1  0.97840487  0.58279278  0.06827887  1
  O  O473  1  0.97760197  0.58320939  0.31554651  1
  O  O474  1  0.97841558  0.58085722  0.56631792  1
  O  O475  1  0.97848616  0.58424893  0.81631611  1
  O  O476  1  0.97840619  0.91673837  0.06867051  1
  O  O477  1  0.97796302  0.91695034  0.31921341  1
  O  O478  1  0.97757819  0.91831539  0.56746952  1
  O  O479  1  0.97813537  0.91820988  0.81680010  1
  O  O480  1  0.07401526  0.31398846  0.07505016  1
  O  O481  1  0.07346403  0.31487586  0.32465313  1
  O  O482  1  0.07409939  0.31201063  0.57469690  1
  O  O483  1  0.07264815  0.31385613  0.82265498  1
  O  O484  1  0.07392241  0.64613270  0.07574558  1
  O  O485  1  0.07236841  0.64707894  0.32382014  1
  O  O486  1  0.07361646  0.64520206  0.57372974  1
  O  O487  1  0.07312160  0.64812056  0.82306922  1
  O  O488  1  0.07395266  0.98014632  0.07565504  1
  O  O489  1  0.07323914  0.98094539  0.32623754  1
  O  O490  1  0.07311301  0.98123160  0.57441080  1
  O  O491  1  0.07323261  0.98172687  0.82407753  1
  O  O492  1  0.57295930  0.31440840  0.07370422  1
  O  O493  1  0.57354996  0.31496412  0.32474505  1
  O  O494  1  0.57389631  0.31297964  0.57637094  1
  O  O495  1  0.57255322  0.31239997  0.82355698  1
  O  O496  1  0.57373220  0.64656168  0.07507842  1
  O  O497  1  0.57216390  0.64805426  0.32416623  1
  O  O498  1  0.57344686  0.64557210  0.57510100  1
  O  O499  1  0.57314836  0.64609439  0.82282608  1
  O  O500  1  0.57234985  0.98136239  0.07317274  1
  O  O501  1  0.57297186  0.98172338  0.32463977  1
  O  O502  1  0.57198466  0.98038154  0.57404503  1
  O  O503  1  0.57223917  0.97986281  0.82235777  1
  O  O504  1  0.42630479  0.01898398  0.17630842  1
  O  O505  1  0.42676319  0.01955937  0.42638661  1
  O  O506  1  0.42691213  0.01936908  0.67631181  1
  O  O507  1  0.42676979  0.01826810  0.92509008  1
  O  O508  1  0.42788061  0.35298036  0.17751482  1
  O  O509  1  0.42779860  0.35506093  0.42562701  1
  O  O510  1  0.42682626  0.35305422  0.67658669  1
  O  O511  1  0.42729812  0.35134121  0.92605735  1
  O  O512  1  0.42669796  0.68540280  0.17630798  1
  O  O513  1  0.42629628  0.68810214  0.42587321  1
  O  O514  1  0.42738457  0.68616419  0.67551857  1
  O  O515  1  0.42656031  0.68596869  0.92418372  1
  O  O516  1  0.92580281  0.02011006  0.17558989  1
  O  O517  1  0.92753659  0.02046055  0.42777227  1
  O  O518  1  0.92752968  0.01985347  0.67634922  1
  O  O519  1  0.92631218  0.02038863  0.92409830  1
  O  O520  1  0.92778099  0.35281429  0.17680817  1
  O  O521  1  0.92713288  0.35466728  0.42466896  1
  O  O522  1  0.92725138  0.35140791  0.67449721  1
  O  O523  1  0.92640495  0.35337119  0.92460420  1
  O  O524  1  0.92640381  0.68518006  0.17606980  1
  O  O525  1  0.92583142  0.68591826  0.42469590  1
  O  O526  1  0.92713368  0.68457238  0.67547419  1
  O  O527  1  0.92600119  0.68668377  0.92456044  1
  O  O528  1  0.17650751  0.01996627  0.20154547  1
  O  O529  1  0.17903822  0.01941700  0.44878017  1
  O  O530  1  0.17643064  0.02123153  0.70077863  1
  O  O531  1  0.17669468  0.02126631  0.94993403  1
  O  O532  1  0.17884081  0.35252928  0.19941027  1
  O  O533  1  0.17880581  0.35287929  0.44794703  1
  O  O534  1  0.17756351  0.35429068  0.69879609  1
  O  O535  1  0.17727572  0.35188654  0.94927707  1
  O  O536  1  0.17629955  0.68595522  0.20164889  1
  O  O537  1  0.17664070  0.68719759  0.45044456  1
  O  O538  1  0.17676126  0.68754861  0.69875472  1
  O  O539  1  0.17701041  0.68407865  0.94915690  1
  O  O540  1  0.67672643  0.01818492  0.19956571  1
  O  O541  1  0.67670734  0.02197387  0.45097278  1
  O  O542  1  0.67806085  0.01981838  0.69763555  1
  O  O543  1  0.67596409  0.01864666  0.94757886  1
  O  O544  1  0.67693363  0.35230583  0.20116860  1
  O  O545  1  0.67647013  0.35398452  0.44972029  1
  O  O546  1  0.67712013  0.35163869  0.69822713  1
  O  O547  1  0.67683570  0.35132606  0.94796128  1
  O  O548  1  0.67586365  0.68658177  0.20033040  1
  O  O549  1  0.67575597  0.68905236  0.45066980  1
  O  O550  1  0.67687014  0.68853737  0.69961910  1
  O  O551  1  0.67602545  0.68832893  0.94857786  1
  O  O552  1  0.32362555  0.31428846  0.05130793  1
  O  O553  1  0.32232327  0.31413101  0.30227041  1
  O  O554  1  0.32496991  0.31351303  0.54944236  1
  O  O555  1  0.32166269  0.31456042  0.80218790  1
  O  O556  1  0.32366229  0.64500788  0.05111108  1
  O  O557  1  0.32332205  0.64482840  0.30031661  1
  O  O558  1  0.32369506  0.64518049  0.54976401  1
  O  O559  1  0.32247288  0.64817811  0.80065330  1
  O  O560  1  0.32375351  0.97988519  0.05046523  1
  O  O561  1  0.32186841  0.98002703  0.30296255  1
  O  O562  1  0.32281180  0.97912739  0.54993266  1
  O  O563  1  0.32359786  0.97997552  0.79925238  1
  O  O564  1  0.82380436  0.31279199  0.04974448  1
  O  O565  1  0.82372885  0.31156357  0.30071766  1
  O  O566  1  0.82240299  0.31426766  0.55063955  1
  O  O567  1  0.82221682  0.31414137  0.80003271  1
  O  O568  1  0.82358037  0.64721662  0.04962234  1
  O  O569  1  0.82245113  0.64582550  0.30018768  1
  O  O570  1  0.82351916  0.64730597  0.54837418  1
  O  O571  1  0.82361549  0.64725299  0.79897262  1
  O  O572  1  0.82259215  0.98163284  0.05035729  1
  O  O573  1  0.82352413  0.97913561  0.30160801  1
  O  O574  1  0.82142179  0.98113316  0.55182368  1
  O  O575  1  0.82153271  0.98110659  0.80052466  1
  O  O576  1  0.42638316  0.14611589  0.17507608  1
  O  O577  1  0.42766397  0.14664388  0.42500453  1
  O  O578  1  0.42825061  0.14667296  0.67704388  1
  O  O579  1  0.42657094  0.14521118  0.92508582  1
  O  O580  1  0.42878014  0.48029230  0.17707358  1
  O  O581  1  0.42786710  0.48204714  0.42602446  1
  O  O582  1  0.42864158  0.48032461  0.67794119  1
  O  O583  1  0.42742007  0.47840159  0.92521896  1
  O  O584  1  0.42595984  0.81259266  0.17544347  1
  O  O585  1  0.42772599  0.81517081  0.42657958  1
  O  O586  1  0.42840816  0.81362098  0.67655376  1
  O  O587  1  0.42605153  0.81271162  0.92364675  1
  O  O588  1  0.92527720  0.14706720  0.17547070  1
  O  O589  1  0.92802900  0.14795710  0.42787992  1
  O  O590  1  0.92864312  0.14708155  0.67660887  1
  O  O591  1  0.92625899  0.14723010  0.92366931  1
  O  O592  1  0.92778675  0.48023441  0.17676439  1
  O  O593  1  0.92792463  0.48156313  0.42521754  1
  O  O594  1  0.92668193  0.47848887  0.67448889  1
  O  O595  1  0.92664972  0.48020237  0.92348917  1
  O  O596  1  0.92633555  0.81250825  0.17571399  1
  O  O597  1  0.92558241  0.81279628  0.42464492  1
  O  O598  1  0.92618987  0.81202083  0.67486362  1
  O  O599  1  0.92618597  0.81360943  0.92415731  1
  O  O600  1  0.07390312  0.18713397  0.07579393  1
  O  O601  1  0.07294940  0.18774245  0.32489640  1
  O  O602  1  0.07361498  0.18513299  0.57431953  1
  O  O603  1  0.07148260  0.18639777  0.82264400  1
  O  O604  1  0.07378691  0.51937684  0.07550373  1
  O  O605  1  0.07282156  0.51964389  0.32271032  1
  O  O606  1  0.07365304  0.51805179  0.57363392  1
  O  O607  1  0.07415761  0.52087597  0.82408393  1
  O  O608  1  0.07378935  0.85305836  0.07536729  1
  O  O609  1  0.07357853  0.85401904  0.32688143  1
  O  O610  1  0.07260194  0.85402381  0.57543795  1
  O  O611  1  0.07362517  0.85457516  0.82420814  1
  O  O612  1  0.57311243  0.18733005  0.07535583  1
  O  O613  1  0.57315214  0.18771100  0.32481293  1
  O  O614  1  0.57335650  0.18627727  0.57598441  1
  O  O615  1  0.57094057  0.18505219  0.82344326  1
  O  O616  1  0.57431047  0.51983152  0.07556966  1
  O  O617  1  0.57172753  0.52060133  0.32316444  1
  O  O618  1  0.57300371  0.51862102  0.57448467  1
  O  O619  1  0.57166730  0.51860043  0.82285275  1
  O  O620  1  0.57243673  0.85419548  0.07470819  1
  O  O621  1  0.57251284  0.85482547  0.32490384  1
  O  O622  1  0.57082936  0.85308995  0.57319441  1
  O  O623  1  0.57126331  0.85265761  0.82209885  1
  O  O624  1  0.32315348  0.18744702  0.05075814  1
  O  O625  1  0.32342647  0.18674830  0.30126423  1
  O  O626  1  0.32461020  0.18681334  0.54978043  1
  O  O627  1  0.32230667  0.18698621  0.80210135  1
  O  O628  1  0.32392624  0.51790632  0.05024583  1
  O  O629  1  0.32356915  0.51778281  0.30117030  1
  O  O630  1  0.32314374  0.51811920  0.55141326  1
  O  O631  1  0.32349766  0.52110708  0.80054150  1
  O  O632  1  0.32375408  0.85270451  0.05020028  1
  O  O633  1  0.32263893  0.85254840  0.30234467  1
  O  O634  1  0.32310413  0.85208106  0.55100004  1
  O  O635  1  0.32373510  0.85305924  0.79978901  1
  O  O636  1  0.82372555  0.18592055  0.04841673  1
  O  O637  1  0.82323342  0.18439774  0.30183171  1
  O  O638  1  0.82287261  0.18686847  0.55232484  1
  O  O639  1  0.82273395  0.18714876  0.79909992  1
  O  O640  1  0.82402017  0.52007586  0.04920429  1
  O  O641  1  0.82229082  0.51858154  0.30098758  1
  O  O642  1  0.82375009  0.52039360  0.54925029  1
  O  O643  1  0.82377437  0.52012262  0.79874587  1
  O  O644  1  0.82249623  0.85470340  0.04981420  1
  O  O645  1  0.82256961  0.85210536  0.30136361  1
  O  O646  1  0.82235637  0.85386709  0.55193738  1
  O  O647  1  0.82180195  0.85392551  0.80123277  1
  O  O648  1  0.17627986  0.14673998  0.20170863  1
  O  O649  1  0.17803170  0.14700354  0.44863802  1
  O  O650  1  0.17710127  0.14808593  0.69980378  1
  O  O651  1  0.17670597  0.14858174  0.94938997  1
  O  O652  1  0.17863758  0.47975655  0.19861464  1
  O  O653  1  0.17805565  0.48011868  0.44764334  1
  O  O654  1  0.17726333  0.48140256  0.69901235  1
  O  O655  1  0.17677195  0.47866776  0.95019982  1
  O  O656  1  0.17628227  0.81290477  0.20068579  1
  O  O657  1  0.17699244  0.81435399  0.44925819  1
  O  O658  1  0.17683874  0.81461575  0.69950290  1
  O  O659  1  0.17651728  0.81142844  0.95011805  1
  O  O660  1  0.67664553  0.14526147  0.19907833  1
  O  O661  1  0.67762723  0.14889838  0.44982766  1
  O  O662  1  0.67753349  0.14711348  0.69889530  1
  O  O663  1  0.67595475  0.14558246  0.94932389  1
  O  O664  1  0.67620384  0.47925939  0.19968741  1
  O  O665  1  0.67694187  0.48121648  0.44915661  1
  O  O666  1  0.67703505  0.47874684  0.70013943  1
  O  O667  1  0.67622230  0.47859898  0.94849597  1
  O  O668  1  0.67511251  0.81349900  0.20019404  1
  O  O669  1  0.67671709  0.81625973  0.44924923  1
  O  O670  1  0.67639689  0.81565061  0.69860671  1
  O  O671  1  0.67590065  0.81554674  0.94856229  1
