# generated using pymatgen
data_Na2MnFe(PO4)2
_symmetry_space_group_name_H-M   'P 1'
_cell_length_a   22.34371634
_cell_length_b   20.09239923
_cell_length_c   19.45095253
_cell_angle_alpha   89.96035912
_cell_angle_beta   90.02584371
_cell_angle_gamma   89.98365654
_symmetry_Int_Tables_number   1
_chemical_formula_structural   Na2MnFe(PO4)2
_chemical_formula_sum   'Na96 Mn48 Fe48 P96 O384'
_cell_volume   8732.28529686
_cell_formula_units_Z   48
loop_
 _symmetry_equiv_pos_site_id
 _symmetry_equiv_pos_as_xyz
  1  'x, y, z'
loop_
 _atom_site_type_symbol
 _atom_site_label
 _atom_site_symmetry_multiplicity
 _atom_site_fract_x
 _atom_site_fract_y
 _atom_site_fract_z
 _atom_site_occupancy
  Na  Na0  1  0.14040202  0.25133065  0.24390531  1
  Na  Na1  1  0.14066354  0.24981176  0.49411878  1
  Na  Na2  1  0.14070109  0.24964630  0.74370788  1
  Na  Na3  1  0.14035545  0.25020061  0.99416232  1
  Na  Na4  1  0.14026584  0.58289154  0.24331207  1
  Na  Na5  1  0.13985437  0.58241323  0.49388602  1
  Na  Na6  1  0.13929714  0.58474986  0.74301470  1
  Na  Na7  1  0.13958869  0.58359488  0.99263591  1
  Na  Na8  1  0.13993840  0.91653848  0.24396907  1
  Na  Na9  1  0.14064168  0.91769652  0.49456082  1
  Na  Na10  1  0.14141657  0.91753105  0.74420735  1
  Na  Na11  1  0.14072982  0.91589555  0.99410276  1
  Na  Na12  1  0.64012600  0.24945371  0.24402294  1
  Na  Na13  1  0.63978917  0.25044697  0.49368380  1
  Na  Na14  1  0.64055407  0.24857218  0.74354585  1
  Na  Na15  1  0.64045922  0.25087720  0.99412258  1
  Na  Na16  1  0.64012250  0.58327215  0.24205041  1
  Na  Na17  1  0.64009793  0.58413716  0.49334635  1
  Na  Na18  1  0.63947718  0.58195418  0.74392181  1
  Na  Na19  1  0.63952884  0.58398657  0.99288868  1
  Na  Na20  1  0.64022173  0.91592963  0.24436367  1
  Na  Na21  1  0.64007343  0.91754613  0.49298913  1
  Na  Na22  1  0.64013912  0.91641012  0.74401610  1
  Na  Na23  1  0.64045991  0.91789908  0.99362829  1
  Na  Na24  1  0.36047747  0.08313184  0.00721539  1
  Na  Na25  1  0.36031849  0.08417382  0.25752897  1
  Na  Na26  1  0.35974606  0.08282170  0.50756284  1
  Na  Na27  1  0.36036406  0.08211158  0.75638917  1
  Na  Na28  1  0.35971223  0.41707901  0.00617497  1
  Na  Na29  1  0.35933908  0.41562790  0.25528446  1
  Na  Na30  1  0.35966337  0.41462472  0.50635213  1
  Na  Na31  1  0.35970287  0.41843724  0.75570943  1
  Na  Na32  1  0.35982340  0.74883966  0.00535486  1
  Na  Na33  1  0.36029398  0.74960773  0.25607700  1
  Na  Na34  1  0.35987618  0.75034119  0.50721004  1
  Na  Na35  1  0.35934285  0.75087375  0.75687165  1
  Na  Na36  1  0.85966568  0.08431613  0.00603888  1
  Na  Na37  1  0.85985835  0.08251357  0.25714770  1
  Na  Na38  1  0.85963793  0.08461490  0.50592934  1
  Na  Na39  1  0.85965418  0.08255377  0.75623564  1
  Na  Na40  1  0.85969789  0.41806261  0.00718030  1
  Na  Na41  1  0.85965599  0.41685957  0.25544826  1
  Na  Na42  1  0.85944172  0.41762710  0.50551728  1
  Na  Na43  1  0.85965640  0.41580823  0.75667010  1
  Na  Na44  1  0.85971987  0.74907187  0.00629982  1
  Na  Na45  1  0.85983806  0.74908083  0.25645987  1
  Na  Na46  1  0.85967647  0.75025854  0.50502618  1
  Na  Na47  1  0.85959278  0.74830515  0.75640387  1
  Na  Na48  1  0.10932703  0.08326564  0.11991793  1
  Na  Na49  1  0.10980325  0.08408928  0.36870243  1
  Na  Na50  1  0.11034640  0.08429163  0.61888547  1
  Na  Na51  1  0.11020354  0.08311145  0.86832954  1
  Na  Na52  1  0.10968177  0.41713095  0.11781452  1
  Na  Na53  1  0.10964909  0.41796026  0.36839543  1
  Na  Na54  1  0.10938490  0.41861078  0.61861385  1
  Na  Na55  1  0.10920932  0.41674759  0.86945989  1
  Na  Na56  1  0.10929012  0.74887372  0.11879000  1
  Na  Na57  1  0.10930235  0.75021158  0.36928349  1
  Na  Na58  1  0.10957325  0.74929378  0.61945706  1
  Na  Na59  1  0.10993450  0.74822359  0.86806082  1
  Na  Na60  1  0.60927467  0.08346673  0.11994935  1
  Na  Na61  1  0.60940023  0.08355876  0.36954129  1
  Na  Na62  1  0.60956336  0.08233882  0.61767784  1
  Na  Na63  1  0.60986529  0.08360846  0.86910445  1
  Na  Na64  1  0.60980462  0.41661906  0.11702765  1
  Na  Na65  1  0.60905637  0.41562566  0.36801195  1
  Na  Na66  1  0.60943056  0.41601634  0.61871342  1
  Na  Na67  1  0.60971288  0.41806509  0.86881976  1
  Na  Na68  1  0.60966377  0.74926256  0.11820682  1
  Na  Na69  1  0.60963316  0.75137030  0.36777812  1
  Na  Na70  1  0.60908760  0.75024308  0.61864072  1
  Na  Na71  1  0.60936744  0.74961681  0.86835472  1
  Na  Na72  1  0.39050849  0.24903060  0.13212927  1
  Na  Na73  1  0.38998484  0.24875018  0.38236019  1
  Na  Na74  1  0.39054467  0.24913325  0.63080721  1
  Na  Na75  1  0.39096235  0.25011326  0.88160879  1
  Na  Na76  1  0.39022454  0.58288493  0.13021773  1
  Na  Na77  1  0.39091692  0.58391389  0.38101545  1
  Na  Na78  1  0.39051897  0.58288740  0.63153398  1
  Na  Na79  1  0.39009649  0.58384109  0.88092904  1
  Na  Na80  1  0.39107738  0.91719016  0.13071435  1
  Na  Na81  1  0.39112094  0.91800058  0.38233624  1
  Na  Na82  1  0.39018526  0.91579766  0.63224320  1
  Na  Na83  1  0.39020485  0.91725014  0.88191761  1
  Na  Na84  1  0.89038048  0.25050536  0.13143541  1
  Na  Na85  1  0.89026215  0.25145674  0.38105145  1
  Na  Na86  1  0.89027535  0.25138501  0.63144401  1
  Na  Na87  1  0.89047278  0.24992454  0.88115333  1
  Na  Na88  1  0.88972040  0.58320963  0.13122210  1
  Na  Na89  1  0.89003102  0.58448371  0.37995265  1
  Na  Na90  1  0.89025424  0.58346443  0.63022101  1
  Na  Na91  1  0.89030105  0.58165518  0.88185142  1
  Na  Na92  1  0.89093026  0.91537492  0.13191508  1
  Na  Na93  1  0.89064835  0.91565582  0.38105738  1
  Na  Na94  1  0.89030892  0.91670112  0.63167701  1
  Na  Na95  1  0.89049924  0.91517808  0.88124152  1
  Mn  Mn96  1  0.00050405  0.00047654  0.75061649  1
  Mn  Mn97  1  0.49957963  0.50021682  0.24955043  1
  Mn  Mn98  1  -0.00020905  0.16758519  0.24983452  1
  Mn  Mn99  1  0.75046599  -0.00022423  0.87497062  1
  Mn  Mn100  1  0.25033899  0.83283055  0.12445140  1
  Mn  Mn101  1  0.25029973  0.33390393  0.87436381  1
  Mn  Mn102  1  0.00082004  0.83156666  0.00068271  1
  Mn  Mn103  1  0.24929919  0.66603539  0.12504182  1
  Mn  Mn104  1  0.49980440  0.83401315  0.24954668  1
  Mn  Mn105  1  0.25024040  0.83364138  0.37579756  1
  Mn  Mn106  1  0.74981480  0.16758256  0.12538615  1
  Mn  Mn107  1  0.00029648  0.33406807  0.74995223  1
  Mn  Mn108  1  -0.00036297  0.16702343  0.00049304  1
  Mn  Mn109  1  0.00020101  -0.00058904  0.00025919  1
  Mn  Mn110  1  0.75010137  0.16650565  0.62504723  1
  Mn  Mn111  1  0.00022925  0.83182200  0.75068427  1
  Mn  Mn112  1  0.74995656  0.33352117  0.87533836  1
  Mn  Mn113  1  0.25018801  0.66604228  0.37548805  1
  Mn  Mn114  1  0.74932284  0.33331676  0.37475122  1
  Mn  Mn115  1  0.25114445  0.16608759  0.87500988  1
  Mn  Mn116  1  0.00002760  0.50041903  0.24941946  1
  Mn  Mn117  1  0.00042674  0.33572846  0.50114538  1
  Mn  Mn118  1  0.24948297  0.16744699  0.12539339  1
  Mn  Mn119  1  0.75016165  0.00021090  0.37485691  1
  Mn  Mn120  1  0.50049235  0.16572587  0.75034029  1
  Mn  Mn121  1  0.24996591  0.33301654  0.62520124  1
  Mn  Mn122  1  0.74937725  0.66656200  0.62504765  1
  Mn  Mn123  1  0.74944478  0.83371025  0.62468999  1
  Mn  Mn124  1  0.25064271  0.00010807  0.12534310  1
  Mn  Mn125  1  0.50057629  0.33390167  0.75062906  1
  Mn  Mn126  1  0.50040834  0.66767005  0.50017101  1
  Mn  Mn127  1  0.25059955  0.00069141  0.37553831  1
  Mn  Mn128  1  0.49977500  0.33198835  0.24905505  1
  Mn  Mn129  1  0.00041479  0.83249708  0.50033814  1
  Mn  Mn130  1  0.24893030  0.50123113  0.87540960  1
  Mn  Mn131  1  0.50000166  0.33303849  -0.00022128  1
  Mn  Mn132  1  0.50058113  0.49962586  0.49958599  1
  Mn  Mn133  1  0.24999532  0.66691241  0.62487013  1
  Mn  Mn134  1  0.25077217  0.49847798  0.37414922  1
  Mn  Mn135  1  0.75010366  0.49893417  0.62414097  1
  Mn  Mn136  1  -0.00022409  0.00034446  0.50016663  1
  Mn  Mn137  1  0.75048507  -0.00004553  0.12497744  1
  Mn  Mn138  1  0.50003594  0.83338902  0.75042415  1
  Mn  Mn139  1  0.74983329  0.66619634  0.87504464  1
  Mn  Mn140  1  -0.00008786  0.16803833  0.49918904  1
  Mn  Mn141  1  0.74885363  0.50071505  0.37457642  1
  Mn  Mn142  1  0.75044638  0.83250556  0.12473394  1
  Mn  Mn143  1  0.50046920  0.83335642  0.00009829  1
  Fe  Fe144  1  0.49989692  -0.00012621  0.50035618  1
  Fe  Fe145  1  0.75031264  0.83341769  0.37503565  1
  Fe  Fe146  1  0.74951650  0.66705821  0.37378742  1
  Fe  Fe147  1  0.49990301  0.16583363  0.25122939  1
  Fe  Fe148  1  0.25067348  0.16636796  0.62510236  1
  Fe  Fe149  1  -0.00010730  0.83249227  0.25019840  1
  Fe  Fe150  1  0.49957178  0.50026858  0.74959626  1
  Fe  Fe151  1  0.00017184  0.33325171  -0.00043831  1
  Fe  Fe152  1  0.50021882  0.00052089  0.25081618  1
  Fe  Fe153  1  0.25017752  0.83370118  0.87500060  1
  Fe  Fe154  1  0.75016906  0.16665664  0.87467569  1
  Fe  Fe155  1  0.49994217  0.16611747  0.50031246  1
  Fe  Fe156  1  0.49961230  0.66641251  0.74962563  1
  Fe  Fe157  1  0.25009532  0.49965675  0.12441882  1
  Fe  Fe158  1  0.25047707  0.33328525  0.12507681  1
  Fe  Fe159  1  0.50034562  -0.00041250  0.74994276  1
  Fe  Fe160  1  0.74947375  0.50060991  0.12524480  1
  Fe  Fe161  1  0.25032105  0.00003367  0.62581418  1
  Fe  Fe162  1  0.24992967  0.49996569  0.62476296  1
  Fe  Fe163  1  0.75022735  0.16721786  0.37534621  1
  Fe  Fe164  1  0.75033169  0.33377785  0.12463033  1
  Fe  Fe165  1  0.74965840  0.33281191  0.62533856  1
  Fe  Fe166  1  0.24968020  0.16692265  0.37583383  1
  Fe  Fe167  1  0.49950219  0.83384964  0.49990399  1
  Fe  Fe168  1  -0.00062983  0.50037272  0.75025498  1
  Fe  Fe169  1  0.24966310  0.83374714  0.62622288  1
  Fe  Fe170  1  -0.00028398  0.66653331  0.49969509  1
  Fe  Fe171  1  0.75005983  0.83313133  0.87502474  1
  Fe  Fe172  1  0.75023393  -0.00015848  0.62495582  1
  Fe  Fe173  1  -0.00060780  0.66571423  -0.00009312  1
  Fe  Fe174  1  0.50039092  0.16588662  0.00079623  1
  Fe  Fe175  1  0.49954559  0.33286310  0.49978885  1
  Fe  Fe176  1  0.50019066  0.66678492  0.24921069  1
  Fe  Fe177  1  0.74924050  0.66673718  0.12461324  1
  Fe  Fe178  1  0.49980271  0.66629211  -0.00098019  1
  Fe  Fe179  1  -0.00066799  0.66537969  0.74964567  1
  Fe  Fe180  1  -0.00011972  0.33447504  0.24983738  1
  Fe  Fe181  1  -0.00027129  -0.00031910  0.24992204  1
  Fe  Fe182  1  0.00004273  0.49992311  -0.00012907  1
  Fe  Fe183  1  0.00000403  0.16720020  0.75023465  1
  Fe  Fe184  1  0.74976089  0.49990402  0.87564968  1
  Fe  Fe185  1  0.24920894  0.33293768  0.37499383  1
  Fe  Fe186  1  -0.00045310  0.50142462  0.49924881  1
  Fe  Fe187  1  0.50034445  0.00059687  0.00090276  1
  Fe  Fe188  1  0.00054052  0.66622744  0.24986255  1
  Fe  Fe189  1  0.25019563  0.00000088  0.87505152  1
  Fe  Fe190  1  0.25012991  0.66721855  0.87419627  1
  Fe  Fe191  1  0.49951183  0.50049786  -0.00074204  1
  P  P192  1  0.04206952  0.25186194  0.10289440  1
  P  P193  1  0.04210414  0.25261070  0.35232754  1
  P  P194  1  0.04282789  0.25063355  0.60370615  1
  P  P195  1  0.04252414  0.24943843  0.85274243  1
  P  P196  1  0.04127472  0.58335683  0.10157727  1
  P  P197  1  0.04246333  0.58461205  0.35268727  1
  P  P198  1  0.04111805  0.58363366  0.60191509  1
  P  P199  1  0.04124417  0.58273983  0.85218455  1
  P  P200  1  0.04272461  0.91574232  0.10439059  1
  P  P201  1  0.04134102  0.91636432  0.35155314  1
  P  P202  1  0.04278420  0.91659253  0.60345157  1
  P  P203  1  0.04327033  0.91565884  0.85342164  1
  P  P204  1  0.54212078  0.24799201  0.10289695  1
  P  P205  1  0.54168171  0.24836574  0.35343413  1
  P  P206  1  0.54119559  0.24984835  0.60164773  1
  P  P207  1  0.54309861  0.24970402  0.85372795  1
  P  P208  1  0.54121972  0.58355195  0.10116783  1
  P  P209  1  0.54247361  0.58476953  0.35177725  1
  P  P210  1  0.54266298  0.58325298  0.60358301  1
  P  P211  1  0.54080066  0.58344098  0.85184930  1
  P  P212  1  0.54256992  0.91822618  0.10298466  1
  P  P213  1  0.54195909  0.91827272  0.35325624  1
  P  P214  1  0.54144630  0.91639365  0.60179924  1
  P  P215  1  0.54207214  0.91836374  0.85317675  1
  P  P216  1  0.45853408  0.08320125  0.14867306  1
  P  P217  1  0.45862731  0.08317025  0.39859912  1
  P  P218  1  0.45850608  0.08136004  0.64703571  1
  P  P219  1  0.45864569  0.08325604  0.89871917  1
  P  P220  1  0.45755145  0.41673288  0.14589441  1
  P  P221  1  0.45764851  0.41512778  0.39720411  1
  P  P222  1  0.45793580  0.41714979  0.64705197  1
  P  P223  1  0.45785774  0.41843308  0.89702468  1
  P  P224  1  0.45804871  0.74863269  0.14667629  1
  P  P225  1  0.45768223  0.75185584  0.39723818  1
  P  P226  1  0.45761730  0.74923839  0.64755752  1
  P  P227  1  0.45814076  0.74890899  0.89691725  1
  P  P228  1  0.95746885  0.08232452  0.14784457  1
  P  P229  1  0.95729567  0.08346395  0.39607925  1
  P  P230  1  0.95784177  0.08512447  0.64774662  1
  P  P231  1  0.95745401  0.08354547  0.89669477  1
  P  P232  1  0.95809317  0.41583592  0.14647137  1
  P  P233  1  0.95758064  0.41876541  0.39707292  1
  P  P234  1  0.95749434  0.41922994  0.64742798  1
  P  P235  1  0.95850243  0.41672551  0.89822174  1
  P  P236  1  0.95845650  0.74876292  0.14831390  1
  P  P237  1  0.95811872  0.74870380  0.39655420  1
  P  P238  1  0.95754103  0.74792218  0.64734140  1
  P  P239  1  0.95785412  0.74743628  0.89737408  1
  P  P240  1  0.20746323  0.08402157  0.22902530  1
  P  P241  1  0.20803394  0.08462110  0.47862763  1
  P  P242  1  0.20932437  0.08324523  0.72713281  1
  P  P243  1  0.20795178  0.08227017  0.97751249  1
  P  P244  1  0.20841837  0.41615328  0.22630854  1
  P  P245  1  0.20777968  0.41515469  0.47753356  1
  P  P246  1  0.20736237  0.41840826  0.72726307  1
  P  P247  1  0.20739934  0.41658805  0.97887420  1
  P  P248  1  0.20717317  0.74994461  0.22827530  1
  P  P249  1  0.20729873  0.75009203  0.47909273  1
  P  P250  1  0.20811689  0.75153770  0.72849884  1
  P  P251  1  0.20844994  0.74979409  0.97604980  1
  P  P252  1  0.70761663  0.08338266  0.22874476  1
  P  P253  1  0.70801431  0.08488136  0.47769597  1
  P  P254  1  0.70767731  0.08163722  0.72749465  1
  P  P255  1  0.70802532  0.08500249  0.97735551  1
  P  P256  1  0.70811719  0.41641534  0.22606678  1
  P  P257  1  0.70647410  0.41648840  0.47807340  1
  P  P258  1  0.70769316  0.41498197  0.72775805  1
  P  P259  1  0.70779655  0.41827300  0.97847107  1
  P  P260  1  0.70765575  0.74845935  0.22777174  1
  P  P261  1  0.70816195  0.75027301  0.47598145  1
  P  P262  1  0.70688728  0.75008669  0.72854285  1
  P  P263  1  0.70751911  0.75086468  0.97740331  1
  P  P264  1  0.29291787  0.25114069  0.02275702  1
  P  P265  1  0.29138304  0.25039568  0.27362191  1
  P  P266  1  0.29200307  0.24832406  0.52213507  1
  P  P267  1  0.29340772  0.24975404  0.77136957  1
  P  P268  1  0.29156069  0.58260701  0.02191739  1
  P  P269  1  0.29298417  0.58251838  0.27119359  1
  P  P270  1  0.29262663  0.58159262  0.52253741  1
  P  P271  1  0.29168419  0.58478668  0.77192527  1
  P  P272  1  0.29309097  0.91649818  0.02095082  1
  P  P273  1  0.29343743  0.91678288  0.27236876  1
  P  P274  1  0.29138336  0.91661817  0.52449303  1
  P  P275  1  0.29169862  0.91699585  0.77318716  1
  P  P276  1  0.79248571  0.25173418  0.02225584  1
  P  P277  1  0.79223459  0.24938397  0.27228789  1
  P  P278  1  0.79222015  0.25134641  0.52244062  1
  P  P279  1  0.79215522  0.24885243  0.77233506  1
  P  P280  1  0.79063183  0.58347247  0.02323923  1
  P  P281  1  0.79132265  0.58444437  0.27123124  1
  P  P282  1  0.79215494  0.58410046  0.52095515  1
  P  P283  1  0.79191907  0.58119810  0.77277846  1
  P  P284  1  0.79330038  0.91632359  0.02139147  1
  P  P285  1  0.79250362  0.91495699  0.27259910  1
  P  P286  1  0.79239159  0.91799745  0.52221913  1
  P  P287  1  0.79253691  0.91511703  0.77221441  1
  O  O288  1  0.03667077  0.25206794  0.18281366  1
  O  O289  1  0.03703271  0.25250330  0.43229089  1
  O  O290  1  0.03768931  0.24993233  0.68365658  1
  O  O291  1  0.03714693  0.25002803  0.93268726  1
  O  O292  1  0.03678479  0.58356777  0.18152706  1
  O  O293  1  0.03702675  0.58423388  0.43251085  1
  O  O294  1  0.03577501  0.58321879  0.68179849  1
  O  O295  1  0.03620033  0.58281319  0.93207410  1
  O  O296  1  0.03699938  0.91580549  0.18428555  1
  O  O297  1  0.03635289  0.91637908  0.43158030  1
  O  O298  1  0.03768139  0.91649623  0.68336723  1
  O  O299  1  0.03833022  0.91554166  0.93340672  1
  O  O300  1  0.53669522  0.24769173  0.18283738  1
  O  O301  1  0.53626152  0.24918223  0.43329948  1
  O  O302  1  0.53657000  0.24970517  0.68165363  1
  O  O303  1  0.53787290  0.24933341  0.93364684  1
  O  O304  1  0.53642986  0.58390791  0.18114923  1
  O  O305  1  0.53762548  0.58444498  0.43172667  1
  O  O306  1  0.53709389  0.58315049  0.68347358  1
  O  O307  1  0.53540235  0.58340309  0.93177351  1
  O  O308  1  0.53705649  0.91822390  0.18288736  1
  O  O309  1  0.53634407  0.91769571  0.43309344  1
  O  O310  1  0.53669323  0.91629613  0.68180545  1
  O  O311  1  0.53687193  0.91863217  0.93308544  1
  O  O312  1  0.46401741  0.08326258  0.06880204  1
  O  O313  1  0.46345115  0.08341928  0.31870255  1
  O  O314  1  0.46386556  0.08145902  0.56719540  1
  O  O315  1  0.46363240  0.08295639  0.81877153  1
  O  O316  1  0.46291473  0.41733832  0.06598600  1
  O  O317  1  0.46269503  0.41532030  0.31721733  1
  O  O318  1  0.46329506  0.41624756  0.56710529  1
  O  O319  1  0.46327808  0.41868175  0.81708446  1
  O  O320  1  0.46348272  0.74846591  0.06674287  1
  O  O321  1  0.46274565  0.75159389  0.31732440  1
  O  O322  1  0.46289581  0.75023075  0.56764195  1
  O  O323  1  0.46351009  0.74889881  0.81700449  1
  O  O324  1  0.96250476  0.08259439  0.06785697  1
  O  O325  1  0.96254525  0.08277930  0.31612787  1
  O  O326  1  0.96281274  0.08494065  0.56772610  1
  O  O327  1  0.96280581  0.08423669  0.81674456  1
  O  O328  1  0.96339627  0.41567721  0.06663991  1
  O  O329  1  0.96270484  0.41786028  0.31712519  1
  O  O330  1  0.96273215  0.41959865  0.56749902  1
  O  O331  1  0.96327862  0.41764117  0.81824652  1
  O  O332  1  0.96344882  0.74846726  0.06833913  1
  O  O333  1  0.96381434  0.74921593  0.31672381  1
  O  O334  1  0.96278708  0.74811263  0.56738695  1
  O  O335  1  0.96297069  0.74735418  0.81744716  1
  O  O336  1  0.21285786  0.08280959  0.05751847  1
  O  O337  1  0.21269712  0.08462694  0.30899575  1
  O  O338  1  0.21332678  0.08435217  0.55851452  1
  O  O339  1  0.21428882  0.08252297  0.80708704  1
  O  O340  1  0.21300470  0.41638444  0.05874397  1
  O  O341  1  0.21339761  0.41555981  0.30630230  1
  O  O342  1  0.21293872  0.41591373  0.55742675  1
  O  O343  1  0.21239749  0.41832232  0.80721697  1
  O  O344  1  0.21314716  0.74947823  0.05606751  1
  O  O345  1  0.21216712  0.74979809  0.30823127  1
  O  O346  1  0.21246484  0.75060300  0.55907791  1
  O  O347  1  0.21394059  0.75112620  0.80834596  1
  O  O348  1  0.71321892  0.08472920  0.05728754  1
  O  O349  1  0.71298980  0.08388598  0.30865782  1
  O  O350  1  0.71323812  0.08413797  0.55761298  1
  O  O351  1  0.71281937  0.08211860  0.80740296  1
  O  O352  1  0.71311049  0.41804680  0.05832440  1
  O  O353  1  0.71240352  0.41679004  0.30609284  1
  O  O354  1  0.71172761  0.41576830  0.55799858  1
  O  O355  1  0.71290611  0.41549617  0.80768564  1
  O  O356  1  0.71284637  0.75000480  0.05733789  1
  O  O357  1  0.71284959  0.74833086  0.30764857  1
  O  O358  1  0.71289066  0.75035445  0.55600397  1
  O  O359  1  0.71214628  0.75050155  0.80846595  1
  O  O360  1  0.28649460  0.25081612  0.19361650  1
  O  O361  1  0.28631606  0.24848669  0.44229605  1
  O  O362  1  0.28804402  0.24921655  0.69143864  1
  O  O363  1  0.28823883  0.25067273  0.94276117  1
  O  O364  1  0.28748462  0.58223940  0.19124601  1
  O  O365  1  0.28764995  0.58172897  0.44254081  1
  O  O366  1  0.28674036  0.58404737  0.69198968  1
  O  O367  1  0.28645247  0.58375532  0.94196968  1
  O  O368  1  0.28865044  0.91677043  0.19237978  1
  O  O369  1  0.28682527  0.91706325  0.44452344  1
  O  O370  1  0.28627604  0.91688728  0.69330735  1
  O  O371  1  0.28764473  0.91663971  0.94103713  1
  O  O372  1  0.78695419  0.25020833  0.19237097  1
  O  O373  1  0.78702153  0.25062765  0.44249847  1
  O  O374  1  0.78681989  0.24961393  0.69242330  1
  O  O375  1  0.78737256  0.25114994  0.94234666  1
  O  O376  1  0.78601942  0.58431673  0.19132550  1
  O  O377  1  0.78656615  0.58485081  0.44104378  1
  O  O378  1  0.78696920  0.58147337  0.69285082  1
  O  O379  1  0.78605715  0.58262840  0.94326346  1
  O  O380  1  0.78758980  0.91520034  0.19263681  1
  O  O381  1  0.78739096  0.91761586  0.44229005  1
  O  O382  1  0.78716520  0.91596659  0.69227477  1
  O  O383  1  0.78808762  0.91591472  0.94143907  1
  O  O384  1  0.22842701  0.25192200  0.05786981  1
  O  O385  1  0.22715782  0.25032772  0.30953531  1
  O  O386  1  0.22799640  0.24815110  0.55857229  1
  O  O387  1  0.22906801  0.24963058  0.80666915  1
  O  O388  1  0.22730916  0.58187407  0.05754569  1
  O  O389  1  0.22868922  0.58262209  0.30662679  1
  O  O390  1  0.22821665  0.58183070  0.55782768  1
  O  O391  1  0.22734531  0.58563372  0.80738621  1
  O  O392  1  0.22885150  0.91670153  0.05666498  1
  O  O393  1  0.22890172  0.91712519  0.30711496  1
  O  O394  1  0.22715280  0.91616547  0.56003622  1
  O  O395  1  0.22775836  0.91714328  0.80981234  1
  O  O396  1  0.72815572  0.25226153  0.05783352  1
  O  O397  1  0.72793634  0.24849920  0.30799190  1
  O  O398  1  0.72792598  0.25151887  0.55813110  1
  O  O399  1  0.72795626  0.24871921  0.80817791  1
  O  O400  1  0.72639214  0.58413595  0.05880940  1
  O  O401  1  0.72713425  0.58481244  0.30717444  1
  O  O402  1  0.72794467  0.58329881  0.55659386  1
  O  O403  1  0.72756147  0.58146766  0.80817932  1
  O  O404  1  0.72890293  0.91647934  0.05656827  1
  O  O405  1  0.72818382  0.91511673  0.30802269  1
  O  O406  1  0.72795526  0.91847644  0.55758041  1
  O  O407  1  0.72831921  0.91476587  0.80812520  1
  O  O408  1  0.27180550  0.08419198  0.19373124  1
  O  O409  1  0.27225264  0.08488680  0.44270939  1
  O  O410  1  0.27343633  0.08373340  0.69115766  1
  O  O411  1  0.27241915  0.08150907  0.94235229  1
  O  O412  1  0.27259658  0.41645903  0.19031040  1
  O  O413  1  0.27206100  0.41412748  0.44185367  1
  O  O414  1  0.27173582  0.41816340  0.69190838  1
  O  O415  1  0.27155080  0.41723863  0.94298018  1
  O  O416  1  0.27161552  0.74940689  0.19331053  1
  O  O417  1  0.27174568  0.74993848  0.44402163  1
  O  O418  1  0.27210083  0.75159227  0.69200040  1
  O  O419  1  0.27269743  0.74976376  0.94041070  1
  O  O420  1  0.77191061  0.08353405  0.19333645  1
  O  O421  1  0.77221493  0.08505962  0.44185413  1
  O  O422  1  0.77199080  0.08169976  0.69188045  1
  O  O423  1  0.77229364  0.08481552  0.94169625  1
  O  O424  1  0.77244579  0.41602857  0.19074763  1
  O  O425  1  0.77079529  0.41701318  0.44275289  1
  O  O426  1  0.77196157  0.41446700  0.69195930  1
  O  O427  1  0.77197054  0.41832292  0.94241768  1
  O  O428  1  0.77189315  0.74794426  0.19187707  1
  O  O429  1  0.77241506  0.75008494  0.44030872  1
  O  O430  1  0.77120109  0.75011870  0.69320601  1
  O  O431  1  0.77178600  0.75110760  0.94164292  1
  O  O432  1  0.02177977  0.08251229  0.18329904  1
  O  O433  1  0.02163299  0.08377613  0.43146357  1
  O  O434  1  0.02222316  0.08558783  0.68319286  1
  O  O435  1  0.02176445  0.08352683  0.93212166  1
  O  O436  1  0.02223177  0.41594113  0.18268750  1
  O  O437  1  0.02186566  0.41962351  0.43285296  1
  O  O438  1  0.02177714  0.41915120  0.68315949  1
  O  O439  1  0.02263354  0.41625414  0.93419007  1
  O  O440  1  0.02264600  0.74898112  0.18429245  1
  O  O441  1  0.02210388  0.74813881  0.43316962  1
  O  O442  1  0.02178651  0.74756621  0.68316709  1
  O  O443  1  0.02218495  0.74694905  0.93301698  1
  O  O444  1  0.52251161  0.08321996  0.18540724  1
  O  O445  1  0.52267845  0.08251568  0.43481387  1
  O  O446  1  0.52262928  0.08119052  0.68329911  1
  O  O447  1  0.52286026  0.08353518  0.93475416  1
  O  O448  1  0.52177455  0.41642165  0.18151190  1
  O  O449  1  0.52200809  0.41474856  0.43265233  1
  O  O450  1  0.52213495  0.41802798  0.68297276  1
  O  O451  1  0.52199595  0.41814411  0.93303247  1
  O  O452  1  0.52218974  0.74899570  0.18277401  1
  O  O453  1  0.52200831  0.75235244  0.43289436  1
  O  O454  1  0.52183991  0.74880412  0.68337895  1
  O  O455  1  0.52228787  0.74882032  0.93294407  1
  O  O456  1  0.47798302  0.24802847  0.06683585  1
  O  O457  1  0.47756348  0.24813814  0.31716687  1
  O  O458  1  0.47702994  0.25010665  0.56587716  1
  O  O459  1  0.47880973  0.24979344  0.81829005  1
  O  O460  1  0.47702729  0.58344113  0.06521380  1
  O  O461  1  0.47802981  0.58490339  0.31651555  1
  O  O462  1  0.47853212  0.58341213  0.56765999  1
  O  O463  1  0.47686526  0.58348589  0.81513921  1
  O  O464  1  0.47844125  0.91797391  0.06687802  1
  O  O465  1  0.47791372  0.91871580  0.31685075  1
  O  O466  1  0.47717588  0.91641340  0.56598002  1
  O  O467  1  0.47788629  0.91823977  0.81719542  1
  O  O468  1  0.97783953  0.25189171  0.06700664  1
  O  O469  1  0.97778387  0.25238140  0.31679480  1
  O  O470  1  0.97847122  0.25132960  0.56840885  1
  O  O471  1  0.97828589  0.24907939  0.81683022  1
  O  O472  1  0.97699594  0.58369063  0.06588540  1
  O  O473  1  0.97831138  0.58470226  0.31646000  1
  O  O474  1  0.97713265  0.58374462  0.56519627  1
  O  O475  1  0.97704884  0.58266275  0.81597521  1
  O  O476  1  0.97860108  0.91535344  0.06835887  1
  O  O477  1  0.97720445  0.91615775  0.31562507  1
  O  O478  1  0.97838491  0.91633495  0.56828222  1
  O  O479  1  0.97881150  0.91590499  0.81847986  1
  O  O480  1  0.07307192  0.31491852  0.07374660  1
  O  O481  1  0.07254320  0.31632166  0.32390864  1
  O  O482  1  0.07397498  0.31440687  0.57618125  1
  O  O483  1  0.07360886  0.31301813  0.82466770  1
  O  O484  1  0.07264072  0.64650747  0.07299260  1
  O  O485  1  0.07346186  0.64796047  0.32400700  1
  O  O486  1  0.07210518  0.64733533  0.57386658  1
  O  O487  1  0.07197165  0.64630834  0.82335934  1
  O  O488  1  0.07380606  0.97925073  0.07606649  1
  O  O489  1  0.07199319  0.98030669  0.32368692  1
  O  O490  1  0.07354681  0.98027837  0.57535098  1
  O  O491  1  0.07436354  0.97915708  0.82535324  1
  O  O492  1  0.57306748  0.31189602  0.07542908  1
  O  O493  1  0.57300942  0.31162182  0.32466818  1
  O  O494  1  0.57212169  0.31344922  0.57356003  1
  O  O495  1  0.57405272  0.31342738  0.82583785  1
  O  O496  1  0.57215650  0.64701616  0.07256620  1
  O  O497  1  0.57291750  0.64841916  0.32319588  1
  O  O498  1  0.57402086  0.64668423  0.57539645  1
  O  O499  1  0.57185077  0.64707490  0.82365589  1
  O  O500  1  0.57345785  0.98162191  0.07441185  1
  O  O501  1  0.57313615  0.98169695  0.32498003  1
  O  O502  1  0.57243739  0.97989097  0.57352401  1
  O  O503  1  0.57296102  0.98154805  0.82402594  1
  O  O504  1  0.42761101  0.01956802  0.17699690  1
  O  O505  1  0.42706662  0.01995023  0.42696312  1
  O  O506  1  0.42766598  0.01795156  0.67595372  1
  O  O507  1  0.42786868  0.01971606  0.92729044  1
  O  O508  1  0.42648977  0.35302177  0.17362277  1
  O  O509  1  0.42680589  0.35167995  0.42570925  1
  O  O510  1  0.42697566  0.35367395  0.67549596  1
  O  O511  1  0.42668095  0.35461513  0.92441366  1
  O  O512  1  0.42736574  0.68519101  0.17553974  1
  O  O513  1  0.42671850  0.68822287  0.42532526  1
  O  O514  1  0.42679197  0.68552626  0.67554161  1
  O  O515  1  0.42699625  0.68562120  0.92539930  1
  O  O516  1  0.92694969  0.01859249  0.17617098  1
  O  O517  1  0.92609400  0.02030280  0.42488147  1
  O  O518  1  0.92718287  0.02115220  0.67542865  1
  O  O519  1  0.92656953  0.01969546  0.92430419  1
  O  O520  1  0.92720674  0.35263308  0.17577508  1
  O  O521  1  0.92670758  0.35531939  0.42572996  1
  O  O522  1  0.92674667  0.35526405  0.67514222  1
  O  O523  1  0.92754235  0.35287328  0.92570837  1
  O  O524  1  0.92761662  0.68517962  0.17667387  1
  O  O525  1  0.92689100  0.68539451  0.42496949  1
  O  O526  1  0.92641015  0.68464070  0.67591300  1
  O  O527  1  0.92651369  0.68433015  0.92609563  1
  O  O528  1  0.17673978  0.02025780  0.20111918  1
  O  O529  1  0.17697679  0.02096149  0.45050471  1
  O  O530  1  0.17870845  0.01957641  0.69841251  1
  O  O531  1  0.17684390  0.01899174  0.94914068  1
  O  O532  1  0.17758982  0.35267480  0.19779432  1
  O  O533  1  0.17665797  0.35170679  0.44932403  1
  O  O534  1  0.17619094  0.35476831  0.69975554  1
  O  O535  1  0.17662158  0.35313468  0.95008320  1
  O  O536  1  0.17579627  0.68669398  0.20002827  1
  O  O537  1  0.17660744  0.68626047  0.45119705  1
  O  O538  1  0.17668378  0.68819240  0.70036555  1
  O  O539  1  0.17761117  0.68615469  0.94782387  1
  O  O540  1  0.67700409  0.01947658  0.20085775  1
  O  O541  1  0.67663911  0.02157013  0.44961722  1
  O  O542  1  0.67739536  0.01784368  0.69890104  1
  O  O543  1  0.67673062  0.02149664  0.94968824  1
  O  O544  1  0.67715440  0.35280401  0.19814185  1
  O  O545  1  0.67539810  0.35328742  0.44931472  1
  O  O546  1  0.67694963  0.35127583  0.69951581  1
  O  O547  1  0.67645993  0.35486289  0.95037750  1
  O  O548  1  0.67643428  0.68548733  0.19842525  1
  O  O549  1  0.67707820  0.68682203  0.44789485  1
  O  O550  1  0.67613397  0.68627060  0.70065070  1
  O  O551  1  0.67627757  0.68749513  0.94916144  1
  O  O552  1  0.32397149  0.31444003  0.05114855  1
  O  O553  1  0.32227602  0.31392117  0.30202031  1
  O  O554  1  0.32318266  0.31192776  0.55003421  1
  O  O555  1  0.32405223  0.31370754  0.79903884  1
  O  O556  1  0.32273425  0.64595403  0.05024415  1
  O  O557  1  0.32402605  0.64599354  0.29946627  1
  O  O558  1  0.32387351  0.64513277  0.55020530  1
  O  O559  1  0.32267181  0.64832551  0.80018384  1
  O  O560  1  0.32443007  0.97965822  0.04962133  1
  O  O561  1  0.32446680  0.98018544  0.30072831  1
  O  O562  1  0.32164987  0.98058303  0.55293790  1
  O  O563  1  0.32272753  0.98057261  0.80146151  1
  O  O564  1  0.82314673  0.31537156  0.05071317  1
  O  O565  1  0.82303016  0.31308158  0.30041745  1
  O  O566  1  0.82277840  0.31510035  0.55075183  1
  O  O567  1  0.82368511  0.31203447  0.80052455  1
  O  O568  1  0.82172806  0.64719993  0.05085273  1
  O  O569  1  0.82245241  0.64762425  0.30008628  1
  O  O570  1  0.82308439  0.64737240  0.54975860  1
  O  O571  1  0.82311140  0.64472771  0.80065687  1
  O  O572  1  0.82414159  0.98003506  0.04942516  1
  O  O573  1  0.82372697  0.97841110  0.30039429  1
  O  O574  1  0.82306005  0.98155420  0.55091225  1
  O  O575  1  0.82380367  0.97854151  0.80026545  1
  O  O576  1  0.42749209  0.14676568  0.17704978  1
  O  O577  1  0.42840039  0.14708299  0.42747181  1
  O  O578  1  0.42741821  0.14500375  0.67497728  1
  O  O579  1  0.42785880  0.14705967  0.92681525  1
  O  O580  1  0.42628562  0.47989075  0.17444223  1
  O  O581  1  0.42688347  0.47900233  0.42484152  1
  O  O582  1  0.42688023  0.48074525  0.67504672  1
  O  O583  1  0.42686609  0.48177436  0.92560326  1
  O  O584  1  0.42675882  0.81236170  0.17405789  1
  O  O585  1  0.42681823  0.81530340  0.42595224  1
  O  O586  1  0.42647527  0.81260053  0.67600456  1
  O  O587  1  0.42732348  0.81277189  0.92459162  1
  O  O588  1  0.92621457  0.14596848  0.17534025  1
  O  O589  1  0.92634236  0.14728472  0.42371043  1
  O  O590  1  0.92684845  0.14853134  0.67608400  1
  O  O591  1  0.92602358  0.14663652  0.92530850  1
  O  O592  1  0.92690995  0.47953508  0.17423338  1
  O  O593  1  0.92657862  0.48244848  0.42482026  1
  O  O594  1  0.92633751  0.48227720  0.67630580  1
  O  O595  1  0.92801608  0.48030625  0.92736758  1
  O  O596  1  0.92770242  0.81256470  0.17644342  1
  O  O597  1  0.92714537  0.81234004  0.42480907  1
  O  O598  1  0.92671155  0.81173017  0.67525986  1
  O  O599  1  0.92732108  0.81136127  0.92535807  1
  O  O600  1  0.07301795  0.18781575  0.07567653  1
  O  O601  1  0.07332405  0.18900767  0.32470487  1
  O  O602  1  0.07379710  0.18749533  0.57465342  1
  O  O603  1  0.07340368  0.18587176  0.82452494  1
  O  O604  1  0.07131547  0.51920632  0.07321977  1
  O  O605  1  0.07361811  0.52111965  0.32430800  1
  O  O606  1  0.07206101  0.52017421  0.57316981  1
  O  O607  1  0.07225221  0.51920025  0.82374524  1
  O  O608  1  0.07422423  0.85242242  0.07615124  1
  O  O609  1  0.07228126  0.85263186  0.32372151  1
  O  O610  1  0.07394773  0.85318722  0.57536365  1
  O  O611  1  0.07403433  0.85205850  0.82534855  1
  O  O612  1  0.57324468  0.18475678  0.07432977  1
  O  O613  1  0.57255814  0.18472587  0.32527632  1
  O  O614  1  0.57162488  0.18581810  0.57363978  1
  O  O615  1  0.57432070  0.18655686  0.82502656  1
  O  O616  1  0.57185432  0.51964819  0.07313321  1
  O  O617  1  0.57339899  0.52101611  0.32392849  1
  O  O618  1  0.57392277  0.51995831  0.57507279  1
  O  O619  1  0.57180709  0.51980439  0.82365097  1
  O  O620  1  0.57372584  0.85447205  0.07540846  1
  O  O621  1  0.57304071  0.85482533  0.32476135  1
  O  O622  1  0.57201676  0.85259790  0.57338908  1
  O  O623  1  0.57304335  0.85447011  0.82571970  1
  O  O624  1  0.32326468  0.18718985  0.05102713  1
  O  O625  1  0.32199032  0.18649702  0.30179225  1
  O  O626  1  0.32317768  0.18504326  0.55090558  1
  O  O627  1  0.32493912  0.18672953  0.80008578  1
  O  O628  1  0.32234972  0.51885145  0.05003862  1
  O  O629  1  0.32423998  0.51908859  0.29931001  1
  O  O630  1  0.32296034  0.51777320  0.55100081  1
  O  O631  1  0.32249478  0.52124219  0.80040290  1
  O  O632  1  0.32404332  0.85279888  0.04913010  1
  O  O633  1  0.32420760  0.85319378  0.30070223  1
  O  O634  1  0.32249756  0.85308342  0.55252256  1
  O  O635  1  0.32262856  0.85330487  0.80152688  1
  O  O636  1  0.82355834  0.18825103  0.05055326  1
  O  O637  1  0.82320668  0.18588094  0.30063365  1
  O  O638  1  0.82360320  0.18801431  0.55066984  1
  O  O639  1  0.82251220  0.18488003  0.80056422  1
  O  O640  1  0.82113824  0.51990769  0.05247920  1
  O  O641  1  0.82226852  0.52062511  0.29919177  1
  O  O642  1  0.82351033  0.52049303  0.54853727  1
  O  O643  1  0.82236471  0.51755635  0.80150771  1
  O  O644  1  0.82455578  0.85306806  0.04992131  1
  O  O645  1  0.82288450  0.85115301  0.30103385  1
  O  O646  1  0.82336424  0.85434651  0.55032803  1
  O  O647  1  0.82327992  0.85138625  0.80039451  1
  O  O648  1  0.17593170  0.14712817  0.20044716  1
  O  O649  1  0.17693417  0.14788336  0.44966981  1
  O  O650  1  0.17820641  0.14691597  0.69933162  1
  O  O651  1  0.17746411  0.14625348  0.94950295  1
  O  O652  1  0.17771561  0.48014954  0.19842189  1
  O  O653  1  0.17708350  0.47876958  0.44894784  1
  O  O654  1  0.17697003  0.48211458  0.69859272  1
  O  O655  1  0.17568308  0.47986741  0.95081129  1
  O  O656  1  0.17666056  0.81365435  0.19995245  1
  O  O657  1  0.17603746  0.81333676  0.45052669  1
  O  O658  1  0.17720294  0.81516701  0.70026339  1
  O  O659  1  0.17778108  0.81367783  0.94815847  1
  O  O660  1  0.67604106  0.14643092  0.20025179  1
  O  O661  1  0.67756101  0.14877849  0.44950503  1
  O  O662  1  0.67618639  0.14496189  0.69936989  1
  O  O663  1  0.67768921  0.14883530  0.94895676  1
  O  O664  1  0.67782253  0.48039156  0.19754855  1
  O  O665  1  0.67529456  0.48007235  0.45013064  1
  O  O666  1  0.67664182  0.47849471  0.69958646  1
  O  O667  1  0.67705118  0.48177054  0.94946150  1
  O  O668  1  0.67686301  0.81240203  0.19995228  1
  O  O669  1  0.67792205  0.81444135  0.44787757  1
  O  O670  1  0.67544322  0.81315985  0.69979119  1
  O  O671  1  0.67686659  0.81467505  0.94939019  1
