# generated using pymatgen
data_Na2MnFe(PO4)2
_symmetry_space_group_name_H-M   'P 1'
_cell_length_a   22.34508274
_cell_length_b   20.09853267
_cell_length_c   19.44700368
_cell_angle_alpha   89.99954190
_cell_angle_beta   90.06080551
_cell_angle_gamma   89.94475942
_symmetry_Int_Tables_number   1
_chemical_formula_structural   Na2MnFe(PO4)2
_chemical_formula_sum   'Na96 Mn48 Fe48 P96 O384'
_cell_volume   8733.70601815
_cell_formula_units_Z   48
loop_
 _symmetry_equiv_pos_site_id
 _symmetry_equiv_pos_as_xyz
  1  'x, y, z'
loop_
 _atom_site_type_symbol
 _atom_site_label
 _atom_site_symmetry_multiplicity
 _atom_site_fract_x
 _atom_site_fract_y
 _atom_site_fract_z
 _atom_site_occupancy
  Na  Na0  1  0.13962583  0.25050558  0.24279549  1
  Na  Na1  1  0.14022411  0.25049680  0.49348407  1
  Na  Na2  1  0.14030727  0.25144056  0.74377963  1
  Na  Na3  1  0.13964334  0.24960522  0.99431771  1
  Na  Na4  1  0.14022277  0.58483034  0.24259375  1
  Na  Na5  1  0.14019630  0.58257040  0.49352442  1
  Na  Na6  1  0.14038090  0.58270298  0.74425162  1
  Na  Na7  1  0.14027028  0.58484386  0.99382702  1
  Na  Na8  1  0.14034565  0.91777429  0.24278932  1
  Na  Na9  1  0.14009159  0.91670659  0.49298700  1
  Na  Na10  1  0.13971660  0.91696315  0.74565862  1
  Na  Na11  1  0.14002614  0.91686733  0.99340559  1
  Na  Na12  1  0.63992432  0.25074506  0.24499663  1
  Na  Na13  1  0.64016192  0.24891391  0.49206983  1
  Na  Na14  1  0.64061948  0.24950865  0.74416858  1
  Na  Na15  1  0.64003764  0.25047955  0.99387121  1
  Na  Na16  1  0.64016158  0.58335487  0.24481325  1
  Na  Na17  1  0.64022264  0.58230099  0.49436921  1
  Na  Na18  1  0.64028797  0.58368197  0.74369279  1
  Na  Na19  1  0.64021639  0.58433417  0.99206427  1
  Na  Na20  1  0.63996133  0.91718359  0.24420310  1
  Na  Na21  1  0.64007171  0.91500193  0.49383309  1
  Na  Na22  1  0.63985378  0.91491673  0.74353834  1
  Na  Na23  1  0.64021646  0.91523670  0.99172831  1
  Na  Na24  1  0.35933346  0.08287861  0.00636804  1
  Na  Na25  1  0.35960045  0.08397483  0.25591806  1
  Na  Na26  1  0.35974064  0.08359144  0.50617307  1
  Na  Na27  1  0.35964129  0.08242577  0.75619518  1
  Na  Na28  1  0.36007320  0.41630981  0.00774504  1
  Na  Na29  1  0.36019711  0.41757742  0.25662503  1
  Na  Na30  1  0.36017633  0.41694161  0.50698136  1
  Na  Na31  1  0.36013943  0.41694854  0.75517884  1
  Na  Na32  1  0.36054284  0.75064921  0.00623552  1
  Na  Na33  1  0.35942411  0.75158160  0.25518975  1
  Na  Na34  1  0.35942826  0.74942303  0.50617767  1
  Na  Na35  1  0.36018126  0.75067055  0.75702218  1
  Na  Na36  1  0.85992294  0.08247303  0.00689158  1
  Na  Na37  1  0.85992251  0.08362891  0.25758848  1
  Na  Na38  1  0.85968018  0.08176631  0.50482332  1
  Na  Na39  1  0.85944476  0.08217798  0.75658576  1
  Na  Na40  1  0.86020705  0.41698359  0.00627788  1
  Na  Na41  1  0.86001824  0.41614937  0.25728985  1
  Na  Na42  1  0.86049092  0.41636300  0.50650430  1
  Na  Na43  1  0.86027538  0.41672739  0.75665736  1
  Na  Na44  1  0.86005202  0.74957805  0.00599798  1
  Na  Na45  1  0.85997285  0.75027626  0.25586295  1
  Na  Na46  1  0.85944167  0.74937927  0.50547022  1
  Na  Na47  1  0.85913372  0.74975335  0.75686742  1
  Na  Na48  1  0.10898822  0.08402928  0.11841528  1
  Na  Na49  1  0.10943888  0.08395270  0.36764049  1
  Na  Na50  1  0.10929492  0.08416557  0.61884400  1
  Na  Na51  1  0.10923850  0.08422574  0.86994726  1
  Na  Na52  1  0.10892684  0.41598348  0.11812611  1
  Na  Na53  1  0.10947798  0.41666920  0.36915003  1
  Na  Na54  1  0.10977140  0.41633313  0.61837067  1
  Na  Na55  1  0.10984274  0.41664188  0.87000433  1
  Na  Na56  1  0.10966761  0.75010993  0.11741424  1
  Na  Na57  1  0.10966874  0.75053127  0.36729820  1
  Na  Na58  1  0.10931046  0.75016975  0.61868104  1
  Na  Na59  1  0.10963340  0.75068126  0.87013088  1
  Na  Na60  1  0.60943753  0.08261768  0.11908763  1
  Na  Na61  1  0.60953378  0.08464798  0.36849955  1
  Na  Na62  1  0.60902873  0.08197644  0.61800156  1
  Na  Na63  1  0.60925842  0.08167890  0.86822977  1
  Na  Na64  1  0.60956172  0.41767741  0.11959194  1
  Na  Na65  1  0.60931867  0.41662996  0.36940342  1
  Na  Na66  1  0.60948731  0.41610851  0.61841139  1
  Na  Na67  1  0.60949545  0.41725801  0.86886756  1
  Na  Na68  1  0.60949069  0.74966701  0.11780255  1
  Na  Na69  1  0.60938161  0.75006213  0.36955428  1
  Na  Na70  1  0.61009409  0.74860861  0.61907632  1
  Na  Na71  1  0.60969412  0.74948392  0.86672553  1
  Na  Na72  1  0.39011585  0.25084473  0.13213564  1
  Na  Na73  1  0.39062408  0.25173519  0.38120917  1
  Na  Na74  1  0.39097966  0.25021563  0.63071864  1
  Na  Na75  1  0.39060051  0.24990306  0.88126795  1
  Na  Na76  1  0.39078824  0.58393779  0.13152340  1
  Na  Na77  1  0.39017193  0.58340017  0.38141178  1
  Na  Na78  1  0.39068376  0.58314231  0.63134534  1
  Na  Na79  1  0.39098502  0.58337449  0.88098584  1
  Na  Na80  1  0.39046984  0.91615750  0.13046358  1
  Na  Na81  1  0.39041150  0.91849813  0.38110815  1
  Na  Na82  1  0.39053858  0.91544706  0.63170072  1
  Na  Na83  1  0.39007479  0.91549330  0.88134753  1
  Na  Na84  1  0.89060527  0.24904699  0.13218899  1
  Na  Na85  1  0.89052513  0.24987239  0.38152643  1
  Na  Na86  1  0.89030834  0.25030597  0.62974746  1
  Na  Na87  1  0.89141823  0.25039157  0.88204839  1
  Na  Na88  1  0.89061371  0.58273594  0.13042922  1
  Na  Na89  1  0.89083383  0.58343356  0.38152848  1
  Na  Na90  1  0.89044460  0.58230177  0.63167423  1
  Na  Na91  1  0.89062684  0.58299704  0.88271398  1
  Na  Na92  1  0.89041670  0.91688168  0.13072180  1
  Na  Na93  1  0.89044209  0.91726977  0.38100076  1
  Na  Na94  1  0.88997993  0.91672970  0.63095622  1
  Na  Na95  1  0.89002113  0.91674108  0.88332888  1
  Mn  Mn96  1  0.24947524  0.50100607  0.37469269  1
  Mn  Mn97  1  -0.00032103  0.66633005  0.49972597  1
  Mn  Mn98  1  0.25020008  0.50104576  0.12527932  1
  Mn  Mn99  1  -0.00052323  0.16800517  0.74979481  1
  Mn  Mn100  1  0.25001845  0.00026196  0.12467212  1
  Mn  Mn101  1  0.49951150  0.66651712  0.25010346  1
  Mn  Mn102  1  0.74941823  0.83262330  0.37500415  1
  Mn  Mn103  1  0.74912906  -0.00178954  0.62536958  1
  Mn  Mn104  1  0.49965327  0.16684665  0.00012937  1
  Mn  Mn105  1  0.25060642  0.16673275  0.37480035  1
  Mn  Mn106  1  0.50003268  0.50019582  0.00003517  1
  Mn  Mn107  1  0.75020871  0.50051587  0.12555931  1
  Mn  Mn108  1  0.25083515  0.66789505  0.87445530  1
  Mn  Mn109  1  0.49976124  -0.00120465  -0.00096486  1
  Mn  Mn110  1  0.24998393  0.33369462  0.37471770  1
  Mn  Mn111  1  0.49996043  0.83410361  0.24922733  1
  Mn  Mn112  1  0.75025414  0.33274631  0.62518940  1
  Mn  Mn113  1  0.75001013  0.33348843  0.12510450  1
  Mn  Mn114  1  0.24996278  0.83352300  0.37463560  1
  Mn  Mn115  1  0.00022258  0.83351139  0.24931508  1
  Mn  Mn116  1  0.74982931  -0.00023131  0.12497787  1
  Mn  Mn117  1  -0.00018514  0.00074703  0.75088594  1
  Mn  Mn118  1  0.00021065  0.66640994  0.75038321  1
  Mn  Mn119  1  0.00045585  0.49884952  0.75111502  1
  Mn  Mn120  1  0.74965131  0.16641296  0.12549660  1
  Mn  Mn121  1  -0.00006308  0.16684216  0.49968945  1
  Mn  Mn122  1  0.50005028  -0.00014784  0.49994450  1
  Mn  Mn123  1  0.74962421  0.83323595  0.12479833  1
  Mn  Mn124  1  0.25026994  0.50036816  0.87557290  1
  Mn  Mn125  1  0.74996206  0.16545062  0.62454042  1
  Mn  Mn126  1  0.50084558  0.33341582  0.74989614  1
  Mn  Mn127  1  0.75055523  0.50022734  0.37569010  1
  Mn  Mn128  1  0.50071725  0.16595495  0.75005623  1
  Mn  Mn129  1  0.74981122  0.50046532  0.62525721  1
  Mn  Mn130  1  0.24923726  0.16713139  0.62540102  1
  Mn  Mn131  1  0.25054789  0.16643039  0.87470832  1
  Mn  Mn132  1  0.25039190  0.33371178  0.87502564  1
  Mn  Mn133  1  -0.00053244  0.83453692  0.49892925  1
  Mn  Mn134  1  0.24937758  0.66603959  0.62578743  1
  Mn  Mn135  1  0.74982192  0.66691049  0.12423479  1
  Mn  Mn136  1  0.49993921  0.16780767  0.24947035  1
  Mn  Mn137  1  0.49989165  0.66647000  0.50021648  1
  Mn  Mn138  1  0.24972708  0.83321695  0.62464772  1
  Mn  Mn139  1  -0.00032378  0.83383881  0.75045591  1
  Mn  Mn140  1  0.00015478  0.49962597  0.24962470  1
  Mn  Mn141  1  0.24969377  -0.00030280  0.62532008  1
  Mn  Mn142  1  0.75064215  0.16549932  0.87471938  1
  Mn  Mn143  1  0.75080151  0.33370026  0.87483588  1
  Fe  Fe144  1  0.00004161  0.33289819  0.00038004  1
  Fe  Fe145  1  0.24957522  0.83379796  0.87572487  1
  Fe  Fe146  1  0.75053382  0.66680262  0.87426645  1
  Fe  Fe147  1  0.75036355  0.83227868  0.62481591  1
  Fe  Fe148  1  0.00017945  0.00009268  0.24921184  1
  Fe  Fe149  1  0.50051306  0.66655626  -0.00069977  1
  Fe  Fe150  1  0.74983422  0.50037410  0.87491164  1
  Fe  Fe151  1  0.49918266  -0.00115947  0.74917399  1
  Fe  Fe152  1  -0.00060987  0.33318516  0.24981240  1
  Fe  Fe153  1  0.75077716  0.66635812  0.62559627  1
  Fe  Fe154  1  0.49962319  0.16686364  0.49979209  1
  Fe  Fe155  1  0.74980055  0.16586794  0.37519182  1
  Fe  Fe156  1  0.49995647  0.66642408  0.74974086  1
  Fe  Fe157  1  0.49986878  0.83224715  0.75000525  1
  Fe  Fe158  1  0.50031891  0.50003297  0.25039494  1
  Fe  Fe159  1  0.25029353  0.66798398  0.12445010  1
  Fe  Fe160  1  0.50023403  0.49979712  0.50030903  1
  Fe  Fe161  1  0.24985925  0.00051062  0.37423872  1
  Fe  Fe162  1  0.74975348  0.33301735  0.37549436  1
  Fe  Fe163  1  0.25056902  0.33372466  0.62474807  1
  Fe  Fe164  1  -0.00011412  0.66625487  0.24919985  1
  Fe  Fe165  1  -0.00029123  0.00064408  0.00075447  1
  Fe  Fe166  1  0.00033400  0.49934326  0.00056466  1
  Fe  Fe167  1  0.00033620  0.66638342  0.00023834  1
  Fe  Fe168  1  0.25044214  0.49997473  0.62435250  1
  Fe  Fe169  1  0.00019049  0.49977076  0.49990750  1
  Fe  Fe170  1  0.50009291  0.00045371  0.25019470  1
  Fe  Fe171  1  0.49999615  0.33390257  0.00057613  1
  Fe  Fe172  1  0.74964898  0.66659837  0.37546058  1
  Fe  Fe173  1  0.50013446  0.33380277  0.50018282  1
  Fe  Fe174  1  0.24954571  -0.00021149  0.87576559  1
  Fe  Fe175  1  -0.00029878  0.16710953  0.00086354  1
  Fe  Fe176  1  0.25007537  0.83400970  0.12474989  1
  Fe  Fe177  1  0.75034769  0.83263237  0.87410561  1
  Fe  Fe178  1  0.49988818  0.33446164  0.25113696  1
  Fe  Fe179  1  0.00016175  0.33337506  0.49968674  1
  Fe  Fe180  1  0.24961205  0.16666230  0.12489041  1
  Fe  Fe181  1  0.24978455  0.33344685  0.12525725  1
  Fe  Fe182  1  0.00028436  0.00058025  0.49960321  1
  Fe  Fe183  1  0.74957544  -0.00089489  0.87484557  1
  Fe  Fe184  1  0.50061039  0.83293693  -0.00073727  1
  Fe  Fe185  1  -0.00018302  0.16665966  0.24997212  1
  Fe  Fe186  1  0.74969337  -0.00091541  0.37509726  1
  Fe  Fe187  1  -0.00005359  0.83320130  0.00098871  1
  Fe  Fe188  1  0.49946499  0.83288659  0.50066285  1
  Fe  Fe189  1  0.49979131  0.49978252  0.75002185  1
  Fe  Fe190  1  0.00011337  0.33376791  0.75038829  1
  Fe  Fe191  1  0.24973986  0.66732185  0.37439373  1
  P  P192  1  0.04087409  0.25006793  0.10268935  1
  P  P193  1  0.04112667  0.25054502  0.35152042  1
  P  P194  1  0.04216886  0.25164434  0.60233664  1
  P  P195  1  0.04234430  0.25170031  0.85340820  1
  P  P196  1  0.04138274  0.58317174  0.10189098  1
  P  P197  1  0.04232895  0.58411140  0.35208613  1
  P  P198  1  0.04227377  0.58169571  0.60244627  1
  P  P199  1  0.04283610  0.58309659  0.85457821  1
  P  P200  1  0.04114856  0.91743741  0.10199923  1
  P  P201  1  0.04230103  0.91850965  0.35196603  1
  P  P202  1  0.04217931  0.91824395  0.60219205  1
  P  P203  1  0.04173807  0.91708644  0.85507640  1
  P  P204  1  0.54180724  0.25196725  0.10317355  1
  P  P205  1  0.54163121  0.25188107  0.35349979  1
  P  P206  1  0.54195567  0.24964641  0.60123425  1
  P  P207  1  0.54317176  0.25006439  0.85365532  1
  P  P208  1  0.54246993  0.58432086  0.10234706  1
  P  P209  1  0.54189277  0.58191969  0.35312987  1
  P  P210  1  0.54192888  0.58188817  0.60322977  1
  P  P211  1  0.54125147  0.58336316  0.85146333  1
  P  P212  1  0.54276735  0.91532643  0.10182937  1
  P  P213  1  0.54202209  0.91807434  0.35266736  1
  P  P214  1  0.54178468  0.91464611  0.60320264  1
  P  P215  1  0.54092766  0.91547057  0.85118407  1
  P  P216  1  0.45777563  0.08210762  0.14753358  1
  P  P217  1  0.45780143  0.08501519  0.39715642  1
  P  P218  1  0.45780783  0.08210796  0.64708285  1
  P  P219  1  0.45703273  0.08266917  0.89615576  1
  P  P220  1  0.45856094  0.41707735  0.14866006  1
  P  P221  1  0.45853422  0.41710324  0.39822256  1
  P  P222  1  0.45857969  0.41767587  0.64685245  1
  P  P223  1  0.45763424  0.41583164  0.89767266  1
  P  P224  1  0.45768073  0.74997749  0.14566278  1
  P  P225  1  0.45750595  0.75142428  0.39768207  1
  P  P226  1  0.45851030  0.74982504  0.64808107  1
  P  P227  1  0.45910840  0.74960157  0.89735260  1
  P  P228  1  0.95851380  0.08330811  0.14794757  1
  P  P229  1  0.95829772  0.08232336  0.39641577  1
  P  P230  1  0.95699231  0.08358470  0.64659352  1
  P  P231  1  0.95849819  0.08398477  0.89921024  1
  P  P232  1  0.95766912  0.41507705  0.14692469  1
  P  P233  1  0.95867377  0.41663378  0.39807908  1
  P  P234  1  0.95803400  0.41532316  0.64698621  1
  P  P235  1  0.95901588  0.41599941  0.89870814  1
  P  P236  1  0.95831788  0.74852868  0.14646098  1
  P  P237  1  0.95732608  0.75001846  0.39581435  1
  P  P238  1  0.95703126  0.75001828  0.64700211  1
  P  P239  1  0.95883259  0.74990755  0.89906860  1
  P  P240  1  0.20753113  0.08453611  0.22733921  1
  P  P241  1  0.20751567  0.08241242  0.47702020  1
  P  P242  1  0.20681744  0.08292531  0.72891470  1
  P  P243  1  0.20796638  0.08276258  0.97795524  1
  P  P244  1  0.20761271  0.41638167  0.22711770  1
  P  P245  1  0.20783852  0.41700491  0.47872288  1
  P  P246  1  0.20883647  0.41721613  0.72623851  1
  P  P247  1  0.20777310  0.41660669  0.97917018  1
  P  P248  1  0.20837624  0.75086100  0.22625146  1
  P  P249  1  0.20716862  0.74864091  0.47698267  1
  P  P250  1  0.20695590  0.75080992  0.72875590  1
  P  P251  1  0.20830519  0.75154433  0.97829002  1
  P  P252  1  0.70730067  0.08310211  0.22936499  1
  P  P253  1  0.70821798  0.08201463  0.47653668  1
  P  P254  1  0.70683328  0.08203023  0.72842098  1
  P  P255  1  0.70737201  0.08169351  0.97719847  1
  P  P256  1  0.70765041  0.41653219  0.22920844  1
  P  P257  1  0.70807387  0.41550788  0.47767048  1
  P  P258  1  0.70751245  0.41715638  0.72864759  1
  P  P259  1  0.70783674  0.41809130  0.97731673  1
  P  P260  1  0.70685104  0.74963564  0.22833911  1
  P  P261  1  0.70758606  0.74815579  0.47858533  1
  P  P262  1  0.70902791  0.74959851  0.72718830  1
  P  P263  1  0.70856070  0.74968664  0.97546005  1
  P  P264  1  0.29145750  0.24978595  0.02371458  1
  P  P265  1  0.29251336  0.25030596  0.27073765  1
  P  P266  1  0.29236570  0.25089017  0.52267091  1
  P  P267  1  0.29296883  0.25059699  0.77130961  1
  P  P268  1  0.29266396  0.58532671  0.02272060  1
  P  P269  1  0.29203820  0.58576474  0.27189046  1
  P  P270  1  0.29225872  0.58275130  0.52226951  1
  P  P271  1  0.29304311  0.58289076  0.77151844  1
  P  P272  1  0.29195497  0.91561670  0.02184283  1
  P  P273  1  0.29217797  0.91811804  0.27201778  1
  P  P274  1  0.29276603  0.91687211  0.52130757  1
  P  P275  1  0.29118955  0.91659172  0.77407497  1
  P  P276  1  0.79295713  0.24965422  0.02216272  1
  P  P277  1  0.79122937  0.24976597  0.27413076  1
  P  P278  1  0.79215792  0.24915797  0.52062525  1
  P  P279  1  0.79365755  0.24945862  0.77191040  1
  P  P280  1  0.79256559  0.58337039  0.02071805  1
  P  P281  1  0.79264317  0.58482580  0.27299527  1
  P  P282  1  0.79237712  0.58466498  0.52261059  1
  P  P283  1  0.79190057  0.58357685  0.77331813  1
  P  P284  1  0.79232024  0.91614584  0.02079168  1
  P  P285  1  0.79244635  0.91733418  0.27272165  1
  P  P286  1  0.79178300  0.91479237  0.52209594  1
  P  P287  1  0.79145559  0.91588914  0.77318512  1
  O  O288  1  0.03586647  0.24985652  0.18255614  1
  O  O289  1  0.03636247  0.25052462  0.43149221  1
  O  O290  1  0.03701388  0.25187493  0.68226766  1
  O  O291  1  0.03683582  0.25138603  0.93327904  1
  O  O292  1  0.03647414  0.58335344  0.18186842  1
  O  O293  1  0.03695827  0.58358331  0.43198816  1
  O  O294  1  0.03731815  0.58174704  0.68245261  1
  O  O295  1  0.03756167  0.58312575  0.93448039  1
  O  O296  1  0.03632099  0.91743237  0.18198029  1
  O  O297  1  0.03712039  0.91857734  0.43192326  1
  O  O298  1  0.03696319  0.91766637  0.68220434  1
  O  O299  1  0.03630602  0.91705183  0.93496047  1
  O  O300  1  0.53631229  0.25220132  0.18314572  1
  O  O301  1  0.53606919  0.25149301  0.43335667  1
  O  O302  1  0.53722337  0.24938420  0.68127202  1
  O  O303  1  0.53784236  0.25053753  0.93359746  1
  O  O304  1  0.53736514  0.58390370  0.18227355  1
  O  O305  1  0.53654114  0.58183451  0.43305054  1
  O  O306  1  0.53643545  0.58199603  0.68306419  1
  O  O307  1  0.53655520  0.58433199  0.93143756  1
  O  O308  1  0.53796644  0.91611414  0.18174633  1
  O  O309  1  0.53678667  0.91742070  0.43253209  1
  O  O310  1  0.53617325  0.91492380  0.68306537  1
  O  O311  1  0.53632102  0.91511463  0.93117796  1
  O  O312  1  0.46281138  0.08216565  0.06756929  1
  O  O313  1  0.46313318  0.08466050  0.31723965  1
  O  O314  1  0.46312535  0.08273220  0.56714547  1
  O  O315  1  0.46226444  0.08223221  0.81619916  1
  O  O316  1  0.46348272  0.41677444  0.06868635  1
  O  O317  1  0.46375675  0.41704979  0.31828835  1
  O  O318  1  0.46414340  0.41744132  0.56699170  1
  O  O319  1  0.46290316  0.41633320  0.81777118  1
  O  O320  1  0.46333931  0.74972095  0.06577686  1
  O  O321  1  0.46267765  0.75120582  0.31775151  1
  O  O322  1  0.46321228  0.75006438  0.56810559  1
  O  O323  1  0.46398374  0.74985305  0.81738864  1
  O  O324  1  0.96339910  0.08353654  0.06803042  1
  O  O325  1  0.96364672  0.08236777  0.31655037  1
  O  O326  1  0.96230219  0.08305613  0.56663232  1
  O  O327  1  0.96313953  0.08453888  0.81922043  1
  O  O328  1  0.96312203  0.41519129  0.06708661  1
  O  O329  1  0.96350233  0.41622114  0.31810070  1
  O  O330  1  0.96347048  0.41583539  0.56711418  1
  O  O331  1  0.96394705  0.41583900  0.81871705  1
  O  O332  1  0.96403004  0.74870492  0.06657918  1
  O  O333  1  0.96263775  0.74964462  0.31586416  1
  O  O334  1  0.96198583  0.75010312  0.56701611  1
  O  O335  1  0.96346689  0.75027680  0.81905635  1
  O  O336  1  0.21329330  0.08348957  0.05791611  1
  O  O337  1  0.21279779  0.08381296  0.30727184  1
  O  O338  1  0.21214138  0.08282363  0.55705294  1
  O  O339  1  0.21218756  0.08242907  0.80888690  1
  O  O340  1  0.21292445  0.41614891  0.05911431  1
  O  O341  1  0.21239101  0.41674069  0.30713990  1
  O  O342  1  0.21348304  0.41693246  0.55862668  1
  O  O343  1  0.21376393  0.41716619  0.80629715  1
  O  O344  1  0.21359349  0.75119031  0.05820047  1
  O  O345  1  0.21339459  0.75026735  0.30624622  1
  O  O346  1  0.21204429  0.74889026  0.55699494  1
  O  O347  1  0.21232397  0.75152416  0.80870916  1
  O  O348  1  0.71223561  0.08205472  0.05726008  1
  O  O349  1  0.71256498  0.08277974  0.30930977  1
  O  O350  1  0.71284325  0.08208068  0.55658213  1
  O  O351  1  0.71212585  0.08161837  0.80837059  1
  O  O352  1  0.71286328  0.41789377  0.05737058  1
  O  O353  1  0.71299664  0.41595729  0.30917157  1
  O  O354  1  0.71283190  0.41581628  0.55767527  1
  O  O355  1  0.71281975  0.41779569  0.80861030  1
  O  O356  1  0.71277248  0.74995723  0.05551001  1
  O  O357  1  0.71166044  0.74922084  0.30833839  1
  O  O358  1  0.71341357  0.74848649  0.55844068  1
  O  O359  1  0.71445185  0.74964044  0.80708222  1
  O  O360  1  0.28712837  0.25025897  0.19080775  1
  O  O361  1  0.28762471  0.25057141  0.44264214  1
  O  O362  1  0.28761863  0.25107714  0.69136437  1
  O  O363  1  0.28686262  0.24984074  0.94364088  1
  O  O364  1  0.28680460  0.58588861  0.19192328  1
  O  O365  1  0.28710493  0.58359301  0.44230673  1
  O  O366  1  0.28760091  0.58218336  0.69158504  1
  O  O367  1  0.28779731  0.58494795  0.94272693  1
  O  O368  1  0.28693131  0.91744994  0.19207742  1
  O  O369  1  0.28780469  0.91726996  0.44132248  1
  O  O370  1  0.28641773  0.91655044  0.69405304  1
  O  O371  1  0.28645348  0.91594841  0.94197751  1
  O  O372  1  0.78659899  0.24971876  0.19408270  1
  O  O373  1  0.78650164  0.24939123  0.44069870  1
  O  O374  1  0.78839970  0.24926880  0.69190803  1
  O  O375  1  0.78844441  0.24955813  0.94216951  1
  O  O376  1  0.78746736  0.58431221  0.19298672  1
  O  O377  1  0.78719045  0.58464639  0.44266642  1
  O  O378  1  0.78686754  0.58398632  0.69331530  1
  O  O379  1  0.78751632  0.58311136  0.94076263  1
  O  O380  1  0.78746776  0.91713751  0.19271189  1
  O  O381  1  0.78625137  0.91570218  0.44218144  1
  O  O382  1  0.78664962  0.91506747  0.69318273  1
  O  O383  1  0.78720011  0.91631257  0.94084813  1
  O  O384  1  0.22717240  0.24971086  0.05927178  1
  O  O385  1  0.22828554  0.25004776  0.30633155  1
  O  O386  1  0.22795607  0.25156166  0.55778725  1
  O  O387  1  0.22867379  0.25029987  0.80668032  1
  O  O388  1  0.22827108  0.58525592  0.05786877  1
  O  O389  1  0.22773275  0.58583769  0.30749627  1
  O  O390  1  0.22796991  0.58198953  0.55788358  1
  O  O391  1  0.22876943  0.58371692  0.80693783  1
  O  O392  1  0.22783373  0.91553597  0.05794923  1
  O  O393  1  0.22794382  0.91818158  0.30774376  1
  O  O394  1  0.22825466  0.91664998  0.55618192  1
  O  O395  1  0.22696962  0.91659502  0.80976191  1
  O  O396  1  0.72834604  0.24989720  0.05669857  1
  O  O397  1  0.72704195  0.24991038  0.30968864  1
  O  O398  1  0.72804024  0.24922538  0.55660111  1
  O  O399  1  0.72922658  0.24958956  0.80682947  1
  O  O400  1  0.72822202  0.58325416  0.05609895  1
  O  O401  1  0.72831262  0.58471935  0.30847141  1
  O  O402  1  0.72812108  0.58503664  0.55826171  1
  O  O403  1  0.72767893  0.58366983  0.80913860  1
  O  O404  1  0.72799389  0.91630966  0.05621728  1
  O  O405  1  0.72802045  0.91754014  0.30791595  1
  O  O406  1  0.72764405  0.91374185  0.55810977  1
  O  O407  1  0.72720937  0.91640713  0.80882961  1
  O  O408  1  0.27178376  0.08496388  0.19168383  1
  O  O409  1  0.27200933  0.08210794  0.44200075  1
  O  O410  1  0.27113110  0.08331914  0.69357450  1
  O  O411  1  0.27212919  0.08197468  0.94213589  1
  O  O412  1  0.27203685  0.41644579  0.19213242  1
  O  O413  1  0.27195388  0.41737030  0.44283930  1
  O  O414  1  0.27302121  0.41737559  0.69044714  1
  O  O415  1  0.27214062  0.41682546  0.94398542  1
  O  O416  1  0.27257494  0.75138205  0.19039092  1
  O  O417  1  0.27160213  0.74871696  0.44177523  1
  O  O418  1  0.27131889  0.75011715  0.69354219  1
  O  O419  1  0.27244159  0.75217641  0.94221306  1
  O  O420  1  0.77161382  0.08313544  0.19386256  1
  O  O421  1  0.77241344  0.08164538  0.44091389  1
  O  O422  1  0.77119518  0.08183418  0.69322879  1
  O  O423  1  0.77185856  0.08085435  0.94217528  1
  O  O424  1  0.77195181  0.41663575  0.19382283  1
  O  O425  1  0.77244743  0.41555026  0.44254584  1
  O  O426  1  0.77183145  0.41686632  0.69337749  1
  O  O427  1  0.77223512  0.41858508  0.94210773  1
  O  O428  1  0.77132487  0.74996374  0.19339452  1
  O  O429  1  0.77158652  0.74807459  0.44207104  1
  O  O430  1  0.77299068  0.74986656  0.69063713  1
  O  O431  1  0.77297861  0.74910743  0.94040611  1
  O  O432  1  0.02261967  0.08318519  0.18414065  1
  O  O433  1  0.02235499  0.08227318  0.43288607  1
  O  O434  1  0.02130594  0.08404090  0.68209663  1
  O  O435  1  0.02265723  0.08336904  0.93510119  1
  O  O436  1  0.02181955  0.41468108  0.18316725  1
  O  O437  1  0.02279778  0.41727872  0.43415188  1
  O  O438  1  0.02221169  0.41487412  0.68330105  1
  O  O439  1  0.02309288  0.41547537  0.93481979  1
  O  O440  1  0.02237316  0.74832443  0.18288802  1
  O  O441  1  0.02155087  0.75026455  0.43144073  1
  O  O442  1  0.02151729  0.75018649  0.68204175  1
  O  O443  1  0.02300062  0.74937783  0.93489228  1
  O  O444  1  0.52205091  0.08226983  0.18320578  1
  O  O445  1  0.52198117  0.08503195  0.43323644  1
  O  O446  1  0.52203883  0.08125321  0.68289522  1
  O  O447  1  0.52133087  0.08301904  0.93162707  1
  O  O448  1  0.52269758  0.41732067  0.18482472  1
  O  O449  1  0.52258347  0.41688803  0.43468913  1
  O  O450  1  0.52260275  0.41819630  0.68335936  1
  O  O451  1  0.52193257  0.41534342  0.93350450  1
  O  O452  1  0.52176756  0.74990698  0.18178216  1
  O  O453  1  0.52179093  0.75131412  0.43338571  1
  O  O454  1  0.52270668  0.75016744  0.68398676  1
  O  O455  1  0.52324163  0.74924311  0.93359011  1
  O  O456  1  0.47762062  0.25199949  0.06710701  1
  O  O457  1  0.47765747  0.25205581  0.31692163  1
  O  O458  1  0.47766477  0.24982948  0.56553615  1
  O  O459  1  0.47891262  0.24996986  0.81810686  1
  O  O460  1  0.47817933  0.58496213  0.06657825  1
  O  O461  1  0.47774359  0.58167099  0.31701488  1
  O  O462  1  0.47788555  0.58177877  0.56677203  1
  O  O463  1  0.47711813  0.58275297  0.81553021  1
  O  O464  1  0.47832067  0.91459123  0.06645911  1
  O  O465  1  0.47781138  0.91844712  0.31663116  1
  O  O466  1  0.47768850  0.91508723  0.56685676  1
  O  O467  1  0.47671328  0.91507530  0.81532779  1
  O  O468  1  0.97687380  0.25063581  0.06627148  1
  O  O469  1  0.97695576  0.25086428  0.31552305  1
  O  O470  1  0.97796136  0.25134377  0.56643348  1
  O  O471  1  0.97816140  0.25241588  0.81713268  1
  O  O472  1  0.97733929  0.58374041  0.06575625  1
  O  O473  1  0.97809077  0.58435319  0.31609113  1
  O  O474  1  0.97793631  0.58153274  0.56687953  1
  O  O475  1  0.97858632  0.58286046  0.81880989  1
  O  O476  1  0.97701789  0.91782881  0.06610045  1
  O  O477  1  0.97805180  0.91816985  0.31617562  1
  O  O478  1  0.97782157  0.91884212  0.56658931  1
  O  O479  1  0.97758138  0.91720614  0.81904095  1
  O  O480  1  0.07245733  0.31316926  0.07435704  1
  O  O481  1  0.07243474  0.31382999  0.32331641  1
  O  O482  1  0.07294557  0.31483437  0.57322130  1
  O  O483  1  0.07365629  0.31480540  0.82471428  1
  O  O484  1  0.07312851  0.64614645  0.07363861  1
  O  O485  1  0.07295221  0.64769579  0.32358899  1
  O  O486  1  0.07324381  0.64540892  0.57480953  1
  O  O487  1  0.07383404  0.64648273  0.82599754  1
  O  O488  1  0.07261154  0.98063730  0.07389797  1
  O  O489  1  0.07308954  0.98172235  0.32301012  1
  O  O490  1  0.07313303  0.98171582  0.57409047  1
  O  O491  1  0.07296673  0.98044625  0.82677405  1
  O  O492  1  0.57280866  0.31522191  0.07457548  1
  O  O493  1  0.57257159  0.31534609  0.32508516  1
  O  O494  1  0.57269033  0.31344442  0.57347490  1
  O  O495  1  0.57451121  0.31315586  0.82504449  1
  O  O496  1  0.57353361  0.64754280  0.07362605  1
  O  O497  1  0.57260954  0.64588203  0.32562967  1
  O  O498  1  0.57293462  0.64560924  0.57535084  1
  O  O499  1  0.57167977  0.64692502  0.82226385  1
  O  O500  1  0.57355915  0.97884584  0.07337388  1
  O  O501  1  0.57240971  0.98193999  0.32437793  1
  O  O502  1  0.57346829  0.97785022  0.57514318  1
  O  O503  1  0.57089802  0.97964596  0.82303068  1
  O  O504  1  0.42738438  0.01842494  0.17604503  1
  O  O505  1  0.42649463  0.02167107  0.42513908  1
  O  O506  1  0.42684300  0.01848306  0.67520319  1
  O  O507  1  0.42597921  0.01932915  0.92448816  1
  O  O508  1  0.42760944  0.35370298  0.17717436  1
  O  O509  1  0.42751507  0.35361489  0.42671081  1
  O  O510  1  0.42772766  0.35387481  0.67466227  1
  O  O511  1  0.42680130  0.35239274  0.92620955  1
  O  O512  1  0.42632008  0.68685929  0.17433610  1
  O  O513  1  0.42646253  0.68778501  0.42542037  1
  O  O514  1  0.42848400  0.68564185  0.67627844  1
  O  O515  1  0.42796718  0.68608824  0.92546047  1
  O  O516  1  0.92741715  0.01977913  0.17609385  1
  O  O517  1  0.92742779  0.01901374  0.42530116  1
  O  O518  1  0.92590071  0.02039811  0.67538275  1
  O  O519  1  0.92723568  0.02049884  0.92686488  1
  O  O520  1  0.92648109  0.35201312  0.17593627  1
  O  O521  1  0.92823489  0.35290663  0.42662768  1
  O  O522  1  0.92693324  0.35205186  0.67556611  1
  O  O523  1  0.92726875  0.35302806  0.92683610  1
  O  O524  1  0.92724978  0.68521747  0.17501601  1
  O  O525  1  0.92606477  0.68691118  0.42437938  1
  O  O526  1  0.92644000  0.68634821  0.67524028  1
  O  O527  1  0.92766323  0.68634792  0.92667065  1
  O  O528  1  0.17644229  0.02114653  0.19902224  1
  O  O529  1  0.17703862  0.01890724  0.44823459  1
  O  O530  1  0.17565987  0.01973798  0.70033956  1
  O  O531  1  0.17708920  0.01911171  0.94997148  1
  O  O532  1  0.17722325  0.35263171  0.19876714  1
  O  O533  1  0.17676145  0.35354572  0.45035296  1
  O  O534  1  0.17838489  0.35327579  0.69818678  1
  O  O535  1  0.17666506  0.35344107  0.95039009  1
  O  O536  1  0.17777447  0.68731654  0.19746555  1
  O  O537  1  0.17668979  0.68506794  0.44836838  1
  O  O538  1  0.17573482  0.68716843  0.70115873  1
  O  O539  1  0.17751980  0.68789894  0.94998422  1
  O  O540  1  0.67609474  0.01997210  0.20048012  1
  O  O541  1  0.67706923  0.01848907  0.44872133  1
  O  O542  1  0.67542899  0.01894009  0.69986761  1
  O  O543  1  0.67631000  0.01839532  0.94867223  1
  O  O544  1  0.67636723  0.35345528  0.20048511  1
  O  O545  1  0.67747684  0.35194978  0.44916280  1
  O  O546  1  0.67646210  0.35349355  0.70086602  1
  O  O547  1  0.67717481  0.35423758  0.94958639  1
  O  O548  1  0.67588011  0.68642708  0.19945497  1
  O  O549  1  0.67666961  0.68472408  0.44999525  1
  O  O550  1  0.67827748  0.68580983  0.69904684  1
  O  O551  1  0.67750482  0.68627427  0.94715722  1
  O  O552  1  0.32191860  0.31363553  0.05197070  1
  O  O553  1  0.32349286  0.31378423  0.29921000  1
  O  O554  1  0.32332267  0.31433153  0.55099370  1
  O  O555  1  0.32414462  0.31381120  0.79991519  1
  O  O556  1  0.32315744  0.64899365  0.05102351  1
  O  O557  1  0.32298509  0.64896553  0.30077512  1
  O  O558  1  0.32317736  0.64620852  0.55079782  1
  O  O559  1  0.32432699  0.64652033  0.79903971  1
  O  O560  1  0.32323254  0.97910201  0.04991059  1
  O  O561  1  0.32250797  0.98201463  0.30022840  1
  O  O562  1  0.32387577  0.97997683  0.55018997  1
  O  O563  1  0.32184616  0.98033410  0.80222915  1
  O  O564  1  0.82382681  0.31312686  0.05046674  1
  O  O565  1  0.82227158  0.31335873  0.30210115  1
  O  O566  1  0.82351806  0.31241738  0.54903067  1
  O  O567  1  0.82464945  0.31296891  0.79992667  1
  O  O568  1  0.82337156  0.64700444  0.04904308  1
  O  O569  1  0.82309497  0.64845067  0.30129956  1
  O  O570  1  0.82362695  0.64766026  0.55148924  1
  O  O571  1  0.82292502  0.64704468  0.80168280  1
  O  O572  1  0.82362102  0.97928590  0.04956339  1
  O  O573  1  0.82314282  0.98076753  0.30133172  1
  O  O574  1  0.82251960  0.97838215  0.55047022  1
  O  O575  1  0.82236594  0.97956957  0.80114961  1
  O  O576  1  0.42654363  0.14576241  0.17499103  1
  O  O577  1  0.42716528  0.14875397  0.42549433  1
  O  O578  1  0.42683090  0.14568457  0.67515222  1
  O  O579  1  0.42590336  0.14618661  0.92433057  1
  O  O580  1  0.42783368  0.48101835  0.17657742  1
  O  O581  1  0.42762892  0.48078448  0.42645260  1
  O  O582  1  0.42728737  0.48086316  0.67553231  1
  O  O583  1  0.42667444  0.47944076  0.92587821  1
  O  O584  1  0.42642272  0.81344712  0.17381344  1
  O  O585  1  0.42688401  0.81505067  0.42604623  1
  O  O586  1  0.42687771  0.81285122  0.67656617  1
  O  O587  1  0.42854397  0.81336043  0.92603454  1
  O  O588  1  0.92794971  0.14702052  0.17689193  1
  O  O589  1  0.92710276  0.14600021  0.42419653  1
  O  O590  1  0.92589060  0.14722792  0.67444694  1
  O  O591  1  0.92830547  0.14794023  0.92777790  1
  O  O592  1  0.92677576  0.47888589  0.17488694  1
  O  O593  1  0.92760053  0.48030397  0.42606733  1
  O  O594  1  0.92703544  0.47890548  0.67548836  1
  O  O595  1  0.92899085  0.48029887  0.92687471  1
  O  O596  1  0.92711652  0.81227350  0.17412275  1
  O  O597  1  0.92621949  0.81374432  0.42353751  1
  O  O598  1  0.92592677  0.81342204  0.67529313  1
  O  O599  1  0.92854675  0.81384312  0.92760357  1
  O  O600  1  0.07119688  0.18609852  0.07394349  1
  O  O601  1  0.07135075  0.18645820  0.32314790  1
  O  O602  1  0.07337010  0.18790316  0.57470022  1
  O  O603  1  0.07298598  0.18783529  0.82518741  1
  O  O604  1  0.07134734  0.51871872  0.07403560  1
  O  O605  1  0.07359174  0.52060235  0.32412321  1
  O  O606  1  0.07293126  0.51818652  0.57385760  1
  O  O607  1  0.07419370  0.51973788  0.82622069  1
  O  O608  1  0.07131816  0.85317784  0.07397263  1
  O  O609  1  0.07351004  0.85475448  0.32434501  1
  O  O610  1  0.07296229  0.85449213  0.57409584  1
  O  O611  1  0.07290209  0.85369376  0.82658695  1
  O  O612  1  0.57273882  0.18794366  0.07586456  1
  O  O613  1  0.57298752  0.18847444  0.32529351  1
  O  O614  1  0.57255255  0.18584335  0.57298513  1
  O  O615  1  0.57418585  0.18639841  0.82568232  1
  O  O616  1  0.57323869  0.52056053  0.07422038  1
  O  O617  1  0.57307978  0.51874023  0.32444535  1
  O  O618  1  0.57315123  0.51870925  0.57439689  1
  O  O619  1  0.57229040  0.51954407  0.82402268  1
  O  O620  1  0.57358252  0.85178067  0.07319670  1
  O  O621  1  0.57338550  0.85472958  0.32454106  1
  O  O622  1  0.57224572  0.85090420  0.57455129  1
  O  O623  1  0.57250716  0.85227113  0.82296315  1
  O  O624  1  0.32230508  0.18601661  0.05163524  1
  O  O625  1  0.32397367  0.18709087  0.29930073  1
  O  O626  1  0.32296938  0.18702120  0.55060983  1
  O  O627  1  0.32408476  0.18698683  0.79931225  1
  O  O628  1  0.32387927  0.52178233  0.05071451  1
  O  O629  1  0.32284758  0.52179501  0.29954294  1
  O  O630  1  0.32323460  0.51916125  0.55045469  1
  O  O631  1  0.32402621  0.51965499  0.80040054  1
  O  O632  1  0.32290681  0.85226885  0.05067913  1
  O  O633  1  0.32368732  0.85484416  0.30015913  1
  O  O634  1  0.32354162  0.85311480  0.54957995  1
  O  O635  1  0.32205579  0.85285661  0.80211102  1
  O  O636  1  0.82358047  0.18604159  0.05073650  1
  O  O637  1  0.82167344  0.18579179  0.30235436  1
  O  O638  1  0.82332748  0.18553605  0.54862579  1
  O  O639  1  0.82467480  0.18596291  0.80012369  1
  O  O640  1  0.82393825  0.52032552  0.04980648  1
  O  O641  1  0.82390297  0.52120550  0.30079186  1
  O  O642  1  0.82302173  0.52059888  0.55034262  1
  O  O643  1  0.82253882  0.51966444  0.80134014  1
  O  O644  1  0.82324923  0.85257830  0.04930549  1
  O  O645  1  0.82335647  0.85358013  0.30047316  1
  O  O646  1  0.82302411  0.85131319  0.55007249  1
  O  O647  1  0.82206262  0.85221870  0.80206957  1
  O  O648  1  0.17667565  0.14815446  0.19900404  1
  O  O649  1  0.17663844  0.14619861  0.44905707  1
  O  O650  1  0.17571906  0.14661593  0.70097949  1
  O  O651  1  0.17692603  0.14631249  0.94983340  1
  O  O652  1  0.17629406  0.47990490  0.19929531  1
  O  O653  1  0.17628417  0.48016835  0.45020491  1
  O  O654  1  0.17781483  0.48081643  0.69820168  1
  O  O655  1  0.17686319  0.48037379  0.95126496  1
  O  O656  1  0.17741110  0.81469133  0.19843789  1
  O  O657  1  0.17609174  0.81223040  0.44894656  1
  O  O658  1  0.17585963  0.81399445  0.69983592  1
  O  O659  1  0.17698471  0.81482762  0.94975911  1
  O  O660  1  0.67621819  0.14670415  0.20108665  1
  O  O661  1  0.67800724  0.14608543  0.44822994  1
  O  O662  1  0.67606591  0.14579175  0.70028964  1
  O  O663  1  0.67682984  0.14565959  0.94940953  1
  O  O664  1  0.67675609  0.48034019  0.20140146  1
  O  O665  1  0.67691580  0.47915787  0.44996319  1
  O  O666  1  0.67633500  0.48039973  0.69996960  1
  O  O667  1  0.67678349  0.48145746  0.94878065  1
  O  O668  1  0.67597209  0.81334369  0.20017127  1
  O  O669  1  0.67619990  0.81161680  0.45042939  1
  O  O670  1  0.67787713  0.81306495  0.69878013  1
  O  O671  1  0.67841065  0.81358229  0.94669972  1
