# generated using pymatgen
data_Na2MnFe(PO4)2
_symmetry_space_group_name_H-M   'P 1'
_cell_length_a   22.34193013
_cell_length_b   20.09347032
_cell_length_c   19.44910913
_cell_angle_alpha   89.98505998
_cell_angle_beta   90.01256296
_cell_angle_gamma   89.92048362
_symmetry_Int_Tables_number   1
_chemical_formula_structural   Na2MnFe(PO4)2
_chemical_formula_sum   'Na96 Mn48 Fe48 P96 O384'
_cell_volume   8731.21955112
_cell_formula_units_Z   48
loop_
 _symmetry_equiv_pos_site_id
 _symmetry_equiv_pos_as_xyz
  1  'x, y, z'
loop_
 _atom_site_type_symbol
 _atom_site_label
 _atom_site_symmetry_multiplicity
 _atom_site_fract_x
 _atom_site_fract_y
 _atom_site_fract_z
 _atom_site_occupancy
  Na  Na0  1  0.14019098  0.25055128  0.24186587  1
  Na  Na1  1  0.14004882  0.25168152  0.49348643  1
  Na  Na2  1  0.14003736  0.25050357  0.74307130  1
  Na  Na3  1  0.13982457  0.25065696  0.99429949  1
  Na  Na4  1  0.14047272  0.58305347  0.24409311  1
  Na  Na5  1  0.14062075  0.58352293  0.49387236  1
  Na  Na6  1  0.14025929  0.58221574  0.74233999  1
  Na  Na7  1  0.14021700  0.58187738  0.99412935  1
  Na  Na8  1  0.14047823  0.91759293  0.24388505  1
  Na  Na9  1  0.14063103  0.91600588  0.49287615  1
  Na  Na10  1  0.14099895  0.91585987  0.74406805  1
  Na  Na11  1  0.14052413  0.91815111  0.99493778  1
  Na  Na12  1  0.64027912  0.24999942  0.24178505  1
  Na  Na13  1  0.63989450  0.24954961  0.49323571  1
  Na  Na14  1  0.63994591  0.25097027  0.74404435  1
  Na  Na15  1  0.63977408  0.24906396  0.99416946  1
  Na  Na16  1  0.64041087  0.58260198  0.24306455  1
  Na  Na17  1  0.64050713  0.58229898  0.49423928  1
  Na  Na18  1  0.64009173  0.58377762  0.74458818  1
  Na  Na19  1  0.64031526  0.58262767  0.99393494  1
  Na  Na20  1  0.64003150  0.91788352  0.24258130  1
  Na  Na21  1  0.64030681  0.91696239  0.49359184  1
  Na  Na22  1  0.64039390  0.91864344  0.74463868  1
  Na  Na23  1  0.64008432  0.91625745  0.99418834  1
  Na  Na24  1  0.35940942  0.08453246  0.00727150  1
  Na  Na25  1  0.35993769  0.08276220  0.25622174  1
  Na  Na26  1  0.35959409  0.08277798  0.50470697  1
  Na  Na27  1  0.35973222  0.08310301  0.75651226  1
  Na  Na28  1  0.35950400  0.41521675  0.00740261  1
  Na  Na29  1  0.35970085  0.41654700  0.25592033  1
  Na  Na30  1  0.35991765  0.41685329  0.50649385  1
  Na  Na31  1  0.35981825  0.41513142  0.75567587  1
  Na  Na32  1  0.36033703  0.74988338  0.00796766  1
  Na  Na33  1  0.35945616  0.74975576  0.25780322  1
  Na  Na34  1  0.35950597  0.74898007  0.50542680  1
  Na  Na35  1  0.35979921  0.74873644  0.75676416  1
  Na  Na36  1  0.85913670  0.08394884  0.00663253  1
  Na  Na37  1  0.85994945  0.08500322  0.25605490  1
  Na  Na38  1  0.85947034  0.08446497  0.50509236  1
  Na  Na39  1  0.85937552  0.08617199  0.75591174  1
  Na  Na40  1  0.85989034  0.41536698  0.00642521  1
  Na  Na41  1  0.85979472  0.41609934  0.25554002  1
  Na  Na42  1  0.86030243  0.41519221  0.50686349  1
  Na  Na43  1  0.86020277  0.41712851  0.75697216  1
  Na  Na44  1  0.85957017  0.74905509  0.00599825  1
  Na  Na45  1  0.85945510  0.75014814  0.25643815  1
  Na  Na46  1  0.85954998  0.75030546  0.50582214  1
  Na  Na47  1  0.85985769  0.75054075  0.75688668  1
  Na  Na48  1  0.11010007  0.08463381  0.11886781  1
  Na  Na49  1  0.10949432  0.08447162  0.36697913  1
  Na  Na50  1  0.10933773  0.08489314  0.61901311  1
  Na  Na51  1  0.10982063  0.08499740  0.86905799  1
  Na  Na52  1  0.10995103  0.41634584  0.11854951  1
  Na  Na53  1  0.10997206  0.41770621  0.36897175  1
  Na  Na54  1  0.11009046  0.41676484  0.61853630  1
  Na  Na55  1  0.10928246  0.41663478  0.86868901  1
  Na  Na56  1  0.10929138  0.74889341  0.12012563  1
  Na  Na57  1  0.10985783  0.75054459  0.36801422  1
  Na  Na58  1  0.10968852  0.74821882  0.61828672  1
  Na  Na59  1  0.10963054  0.74877920  0.86864284  1
  Na  Na60  1  0.60998819  0.08313505  0.11793270  1
  Na  Na61  1  0.60953833  0.08279706  0.36651441  1
  Na  Na62  1  0.60946054  0.08367860  0.61881250  1
  Na  Na63  1  0.60946878  0.08454775  0.86897201  1
  Na  Na64  1  0.60967450  0.41555598  0.11770226  1
  Na  Na65  1  0.60990411  0.41514898  0.36770723  1
  Na  Na66  1  0.60980099  0.41537925  0.61914606  1
  Na  Na67  1  0.60952875  0.41645826  0.86940942  1
  Na  Na68  1  0.60902488  0.74959285  0.11897470  1
  Na  Na69  1  0.60925000  0.75033669  0.36777901  1
  Na  Na70  1  0.60968397  0.74946317  0.62046471  1
  Na  Na71  1  0.60941039  0.75076054  0.86940854  1
  Na  Na72  1  0.39002320  0.24887928  0.13162037  1
  Na  Na73  1  0.39046919  0.24957789  0.37940004  1
  Na  Na74  1  0.39022453  0.24962006  0.63108508  1
  Na  Na75  1  0.39003901  0.24966590  0.88150929  1
  Na  Na76  1  0.39063033  0.58293974  0.13259281  1
  Na  Na77  1  0.39009311  0.58258332  0.38172892  1
  Na  Na78  1  0.39011026  0.58220085  0.63184436  1
  Na  Na79  1  0.39051679  0.58359083  0.88162935  1
  Na  Na80  1  0.39057639  0.91614344  0.13297406  1
  Na  Na81  1  0.38993248  0.91621955  0.38045893  1
  Na  Na82  1  0.39038558  0.91586227  0.63086937  1
  Na  Na83  1  0.39088730  0.91696088  0.88209838  1
  Na  Na84  1  0.89017290  0.25034896  0.13221971  1
  Na  Na85  1  0.89022826  0.25170916  0.38086975  1
  Na  Na86  1  0.88996094  0.25196807  0.63200905  1
  Na  Na87  1  0.89016396  0.25190379  0.88092005  1
  Na  Na88  1  0.89038017  0.58149446  0.13068965  1
  Na  Na89  1  0.89057763  0.58262070  0.38071135  1
  Na  Na90  1  0.89089382  0.58219726  0.63196567  1
  Na  Na91  1  0.89071920  0.58263859  0.88088127  1
  Na  Na92  1  0.89033597  0.91769171  0.13207493  1
  Na  Na93  1  0.89011399  0.91829608  0.38036269  1
  Na  Na94  1  0.89068250  0.91734425  0.63149425  1
  Na  Na95  1  0.89051548  0.91757269  0.88105134  1
  Mn  Mn96  1  0.25007867  -0.00040938  0.62511050  1
  Mn  Mn97  1  -0.00020077  0.66518844  -0.00082777  1
  Mn  Mn98  1  0.75040545  0.49895112  0.62510067  1
  Mn  Mn99  1  0.75049349  0.83414421  0.87546278  1
  Mn  Mn100  1  0.74982939  0.16732137  0.87548883  1
  Mn  Mn101  1  -0.00066070  0.66569802  0.49984216  1
  Mn  Mn102  1  0.74976568  0.49915398  0.87497597  1
  Mn  Mn103  1  0.25028479  0.66570381  0.87542721  1
  Mn  Mn104  1  0.24952307  0.83409825  0.12621627  1
  Mn  Mn105  1  0.24933750  0.33235407  0.87551596  1
  Mn  Mn106  1  0.74981347  0.83387440  0.12486166  1
  Mn  Mn107  1  0.75050439  0.00186239  0.62446943  1
  Mn  Mn108  1  0.75041006  0.49839569  0.37480725  1
  Mn  Mn109  1  -0.00037031  0.16885557  0.49906621  1
  Mn  Mn110  1  0.25079177  0.83176540  0.62391416  1
  Mn  Mn111  1  0.50018096  -0.00042494  0.49898027  1
  Mn  Mn112  1  0.49996069  0.49933282  0.75083940  1
  Mn  Mn113  1  -0.00000206  0.00100166  0.00003940  1
  Mn  Mn114  1  0.49965819  -0.00003955  0.00069353  1
  Mn  Mn115  1  0.50004286  0.83348993  0.75060300  1
  Mn  Mn116  1  0.49959686  0.49999819  0.00013771  1
  Mn  Mn117  1  -0.00046604  0.83345728  0.24982180  1
  Mn  Mn118  1  0.24974183  0.66590533  0.12617271  1
  Mn  Mn119  1  0.50031557  0.49917898  0.24967394  1
  Mn  Mn120  1  0.74977691  0.16729483  0.37444945  1
  Mn  Mn121  1  0.00068496  0.83282216  0.75015322  1
  Mn  Mn122  1  0.00062513  0.00140575  0.75037077  1
  Mn  Mn123  1  0.74996714  0.83449275  0.62540796  1
  Mn  Mn124  1  0.25036303  0.49903855  0.87456221  1
  Mn  Mn125  1  -0.00005396  0.83360222  0.49961867  1
  Mn  Mn126  1  0.74998398  0.66570094  0.12536509  1
  Mn  Mn127  1  0.24921287  0.16693565  0.62426812  1
  Mn  Mn128  1  0.49993744  0.16701570  0.74973190  1
  Mn  Mn129  1  0.25013558  0.33434655  0.37386276  1
  Mn  Mn130  1  0.74996000  0.66622724  0.37489960  1
  Mn  Mn131  1  0.49948604  0.16676377  0.49906765  1
  Mn  Mn132  1  0.50024013  0.83288291  0.50001252  1
  Mn  Mn133  1  0.25056206  0.00094139  0.87504486  1
  Mn  Mn134  1  0.00014445  0.49957586  0.25007516  1
  Mn  Mn135  1  0.74952429  0.83476141  0.37517394  1
  Mn  Mn136  1  -0.00014231  0.83288252  0.00048491  1
  Mn  Mn137  1  0.00011769  0.00150894  0.50023928  1
  Mn  Mn138  1  -0.00097863  0.16836362  -0.00002314  1
  Mn  Mn139  1  0.25021499  0.83300995  0.87551869  1
  Mn  Mn140  1  0.49986734  0.66590791  0.50015937  1
  Mn  Mn141  1  0.50075177  0.49839889  0.50041823  1
  Mn  Mn142  1  0.25009508  0.16656239  0.37438757  1
  Mn  Mn143  1  0.75010442  0.66690409  0.62502865  1
  Fe  Fe144  1  0.74971685  0.33298567  0.37456164  1
  Fe  Fe145  1  0.25002720  0.50019280  0.37565729  1
  Fe  Fe146  1  0.74967592  0.33295543  0.87576218  1
  Fe  Fe147  1  0.25030614  0.49997658  0.12547787  1
  Fe  Fe148  1  0.00011861  0.33444900  0.75028958  1
  Fe  Fe149  1  0.75045705  0.00046991  0.12470465  1
  Fe  Fe150  1  0.49978670  0.83291637  0.00097075  1
  Fe  Fe151  1  0.50006371  0.66635231  0.25030947  1
  Fe  Fe152  1  -0.00038610  0.16841355  0.74975410  1
  Fe  Fe153  1  -0.00005355  0.33424614  0.25020128  1
  Fe  Fe154  1  0.74984919  0.33310594  0.12509664  1
  Fe  Fe155  1  0.74962336  0.33298722  0.62543093  1
  Fe  Fe156  1  0.25034360  0.00067655  0.12518730  1
  Fe  Fe157  1  0.25005155  0.66583744  0.37536142  1
  Fe  Fe158  1  0.24974578  0.16664741  0.12519057  1
  Fe  Fe159  1  0.50001364  -0.00063157  0.24894629  1
  Fe  Fe160  1  0.75006984  0.66628591  0.87537104  1
  Fe  Fe161  1  0.50025080  0.16648579  0.24910215  1
  Fe  Fe162  1  0.24984684  0.83323805  0.37504543  1
  Fe  Fe163  1  0.24978889  0.33354842  0.12489757  1
  Fe  Fe164  1  0.75016250  0.49888143  0.12439213  1
  Fe  Fe165  1  0.49938302  0.16650772  0.00017485  1
  Fe  Fe166  1  0.74990648  0.16677823  0.12471428  1
  Fe  Fe167  1  0.49990689  0.66693889  0.00106725  1
  Fe  Fe168  1  -0.00013538  0.66568525  0.74963354  1
  Fe  Fe169  1  0.25049148  0.49990414  0.62448339  1
  Fe  Fe170  1  0.74986277  0.00118142  0.37452416  1
  Fe  Fe171  1  0.25073663  0.33321866  0.62451913  1
  Fe  Fe172  1  0.49956278  0.83265800  0.24962854  1
  Fe  Fe173  1  0.24929095  0.00006865  0.37483558  1
  Fe  Fe174  1  0.49993385  0.00048932  0.75061369  1
  Fe  Fe175  1  0.00038898  0.49936627  0.75011475  1
  Fe  Fe176  1  0.00038638  0.00104578  0.25007766  1
  Fe  Fe177  1  0.24988188  0.16716510  0.87546634  1
  Fe  Fe178  1  0.00050696  0.16817971  0.24985355  1
  Fe  Fe179  1  0.49961783  0.33270665  -0.00016282  1
  Fe  Fe180  1  0.00041512  0.33371926  -0.00022248  1
  Fe  Fe181  1  0.00059011  0.33423503  0.50061184  1
  Fe  Fe182  1  0.49995372  0.33293047  0.75029056  1
  Fe  Fe183  1  0.49993320  0.33239855  0.24903264  1
  Fe  Fe184  1  0.00043497  0.49944520  -0.00002761  1
  Fe  Fe185  1  0.25018545  0.66602352  0.62439072  1
  Fe  Fe186  1  0.00054211  0.49952044  0.50046290  1
  Fe  Fe187  1  -0.00041045  0.66606774  0.24983561  1
  Fe  Fe188  1  0.50003236  0.66670805  0.75114679  1
  Fe  Fe189  1  0.74913328  0.16753939  0.62480807  1
  Fe  Fe190  1  0.50003063  0.33237135  0.49904744  1
  Fe  Fe191  1  0.74979844  0.00097766  0.87502132  1
  P  P192  1  0.04169674  0.25190589  0.10322938  1
  P  P193  1  0.04193852  0.25173897  0.35158746  1
  P  P194  1  0.04206719  0.25213126  0.60315729  1
  P  P195  1  0.04149826  0.25127065  0.85170097  1
  P  P196  1  0.04230338  0.58164269  0.10263138  1
  P  P197  1  0.04226053  0.58406995  0.35263104  1
  P  P198  1  0.04211676  0.58141481  0.60317789  1
  P  P199  1  0.04190907  0.58228384  0.85146849  1
  P  P200  1  0.04238293  0.91728595  0.10389306  1
  P  P201  1  0.04208229  0.91825582  0.35209191  1
  P  P202  1  0.04307897  0.91706102  0.60308722  1
  P  P203  1  0.04329246  0.91697179  0.85339044  1
  P  P204  1  0.54073456  0.24931308  0.10199986  1
  P  P205  1  0.54169529  0.24967732  0.35069808  1
  P  P206  1  0.54187556  0.25094148  0.60222264  1
  P  P207  1  0.54183091  0.25122013  0.85336556  1
  P  P208  1  0.54201254  0.58440376  0.10311061  1
  P  P209  1  0.54235413  0.58347957  0.35223995  1
  P  P210  1  0.54294734  0.58262064  0.60402981  1
  P  P211  1  0.54194304  0.58466554  0.85366731  1
  P  P212  1  0.54167286  0.91489247  0.10343656  1
  P  P213  1  0.54125724  0.91603474  0.35066081  1
  P  P214  1  0.54275760  0.91678492  0.60355618  1
  P  P215  1  0.54212227  0.91817438  0.85327429  1
  P  P216  1  0.45895821  0.08342946  0.14780725  1
  P  P217  1  0.45767295  0.08309438  0.39489595  1
  P  P218  1  0.45754236  0.08216363  0.64742485  1
  P  P219  1  0.45762256  0.08448627  0.89769123  1
  P  P220  1  0.45809059  0.41464163  0.14683648  1
  P  P221  1  0.45810551  0.41450335  0.39674928  1
  P  P222  1  0.45802436  0.41461606  0.64741565  1
  P  P223  1  0.45750617  0.41515950  0.89762684  1
  P  P224  1  0.45812109  0.74924056  0.14840770  1
  P  P225  1  0.45748566  0.74963541  0.39596697  1
  P  P226  1  0.45767504  0.74843271  0.64832535  1
  P  P227  1  0.45854241  0.75002193  0.89905362  1
  P  P228  1  0.95898546  0.08449635  0.14866262  1
  P  P229  1  0.95769814  0.08470907  0.39557965  1
  P  P230  1  0.95773453  0.08601510  0.64756843  1
  P  P231  1  0.95707641  0.08503347  0.89644462  1
  P  P232  1  0.95807786  0.41541062  0.14686308  1
  P  P233  1  0.95883662  0.41662569  0.39856327  1
  P  P234  1  0.95868439  0.41692029  0.64812588  1
  P  P235  1  0.95874746  0.41686378  0.89791554  1
  P  P236  1  0.95727057  0.74814851  0.14749928  1
  P  P237  1  0.95709674  0.74978342  0.39617653  1
  P  P238  1  0.95767591  0.74826205  0.64757241  1
  P  P239  1  0.95726930  0.74925650  0.89623038  1
  P  P240  1  0.20865402  0.08324018  0.22689265  1
  P  P241  1  0.20710632  0.08253663  0.47686655  1
  P  P242  1  0.20720403  0.08385553  0.72850282  1
  P  P243  1  0.20784813  0.08522061  0.97849004  1
  P  P244  1  0.20865360  0.41730296  0.22679757  1
  P  P245  1  0.20846826  0.41810556  0.47814831  1
  P  P246  1  0.20904420  0.41618268  0.72592921  1
  P  P247  1  0.20741737  0.41637427  0.97901956  1
  P  P248  1  0.20740526  0.74995909  0.22976838  1
  P  P249  1  0.20876213  0.74914969  0.47640783  1
  P  P250  1  0.20788177  0.74810639  0.72699794  1
  P  P251  1  0.20724304  0.74960873  0.97875077  1
  P  P252  1  0.70887455  0.08361886  0.22635391  1
  P  P253  1  0.70708676  0.08322536  0.47695178  1
  P  P254  1  0.70754556  0.08562192  0.72769563  1
  P  P255  1  0.70770879  0.08223372  0.97818928  1
  P  P256  1  0.70817245  0.41608060  0.22646723  1
  P  P257  1  0.70792721  0.41407054  0.47775493  1
  P  P258  1  0.70779182  0.41523700  0.72817121  1
  P  P259  1  0.70778594  0.41476660  0.97848428  1
  P  P260  1  0.70714526  0.75034829  0.22806142  1
  P  P261  1  0.70678217  0.75026780  0.47802337  1
  P  P262  1  0.70776902  0.75043917  0.72925694  1
  P  P263  1  0.70805001  0.74884413  0.97752952  1
  P  P264  1  0.29085592  0.24950938  0.02356655  1
  P  P265  1  0.29218351  0.24998396  0.27040633  1
  P  P266  1  0.29236611  0.25113253  0.52190751  1
  P  P267  1  0.29199454  0.24895028  0.77226162  1
  P  P268  1  0.29276407  0.58174588  0.02327242  1
  P  P269  1  0.29136416  0.58242029  0.27358067  1
  P  P270  1  0.29188035  0.58315860  0.52255089  1
  P  P271  1  0.29271090  0.58252585  0.77090262  1
  P  P272  1  0.29257415  0.91823252  0.02346423  1
  P  P273  1  0.29102273  0.91724728  0.27330852  1
  P  P274  1  0.29260895  0.91632492  0.52060091  1
  P  P275  1  0.29341240  0.91613812  0.77216824  1
  P  P276  1  0.79125386  0.25021052  0.02347074  1
  P  P277  1  0.79192101  0.25171532  0.27154168  1
  P  P278  1  0.79127943  0.25006282  0.52313810  1
  P  P279  1  0.79172965  0.25199912  0.77229038  1
  P  P280  1  0.79203873  0.58157349  0.02208708  1
  P  P281  1  0.79272453  0.58200206  0.27123786  1
  P  P282  1  0.79315985  0.58250439  0.52193223  1
  P  P283  1  0.79208455  0.58397882  0.77293441  1
  P  P284  1  0.79234577  0.91830725  0.02226763  1
  P  P285  1  0.79171978  0.91945244  0.27182918  1
  P  P286  1  0.79311051  0.91792659  0.52138411  1
  P  P287  1  0.79252835  0.91928202  0.77273100  1
  O  O288  1  0.03657229  0.25162072  0.18310253  1
  O  O289  1  0.03734219  0.25174995  0.43157209  1
  O  O290  1  0.03679127  0.25169756  0.68300265  1
  O  O291  1  0.03630572  0.25167346  0.93167021  1
  O  O292  1  0.03698677  0.58231701  0.18253056  1
  O  O293  1  0.03703468  0.58322633  0.43251652  1
  O  O294  1  0.03685281  0.58170205  0.68305462  1
  O  O295  1  0.03687923  0.58174639  0.93145660  1
  O  O296  1  0.03689751  0.91786642  0.18384944  1
  O  O297  1  0.03723312  0.91820268  0.43208784  1
  O  O298  1  0.03809997  0.91685620  0.68309524  1
  O  O299  1  0.03789839  0.91684935  0.93337831  1
  O  O300  1  0.53562988  0.24925674  0.18190504  1
  O  O301  1  0.53659680  0.24988289  0.43066620  1
  O  O302  1  0.53668124  0.25093806  0.68217386  1
  O  O303  1  0.53632076  0.25072998  0.93322248  1
  O  O304  1  0.53681629  0.58425771  0.18307075  1
  O  O305  1  0.53743681  0.58295856  0.43224078  1
  O  O306  1  0.53771330  0.58285055  0.68401233  1
  O  O307  1  0.53636895  0.58470247  0.93361180  1
  O  O308  1  0.53618609  0.91490784  0.18329611  1
  O  O309  1  0.53686765  0.91629086  0.43070722  1
  O  O310  1  0.53752224  0.91746305  0.68350341  1
  O  O311  1  0.53691870  0.91769903  0.93317398  1
  O  O312  1  0.46341973  0.08358830  0.06781046  1
  O  O313  1  0.46324954  0.08316969  0.31501141  1
  O  O314  1  0.46259092  0.08245810  0.56741050  1
  O  O315  1  0.46287467  0.08402174  0.81775120  1
  O  O316  1  0.46328533  0.41498118  0.06691375  1
  O  O317  1  0.46340962  0.41464323  0.31678728  1
  O  O318  1  0.46332843  0.41453218  0.56743815  1
  O  O319  1  0.46289641  0.41510519  0.81768053  1
  O  O320  1  0.46322966  0.74918052  0.06847319  1
  O  O321  1  0.46274508  0.74965083  0.31603649  1
  O  O322  1  0.46276184  0.74866809  0.56835839  1
  O  O323  1  0.46358515  0.74978990  0.81911035  1
  O  O324  1  0.96333883  0.08471129  0.06861369  1
  O  O325  1  0.96328497  0.08451217  0.31569237  1
  O  O326  1  0.96288847  0.08589541  0.56756544  1
  O  O327  1  0.96241036  0.08572420  0.81655070  1
  O  O328  1  0.96338046  0.41552448  0.06705520  1
  O  O329  1  0.96392710  0.41633106  0.31861976  1
  O  O330  1  0.96368115  0.41687562  0.56825166  1
  O  O331  1  0.96412496  0.41697922  0.81804990  1
  O  O332  1  0.96256883  0.74832398  0.06751220  1
  O  O333  1  0.96230986  0.74934774  0.31621052  1
  O  O334  1  0.96257339  0.74856674  0.56753536  1
  O  O335  1  0.96253310  0.74883330  0.81627261  1
  O  O336  1  0.21351169  0.08488848  0.05839909  1
  O  O337  1  0.21353433  0.08264846  0.30686088  1
  O  O338  1  0.21208046  0.08275045  0.55684686  1
  O  O339  1  0.21263918  0.08468864  0.80846079  1
  O  O340  1  0.21262668  0.41661622  0.05888356  1
  O  O341  1  0.21343139  0.41760207  0.30676128  1
  O  O342  1  0.21425994  0.41756307  0.55795686  1
  O  O343  1  0.21364001  0.41589466  0.80595526  1
  O  O344  1  0.21214412  0.74967078  0.05877012  1
  O  O345  1  0.21284039  0.75000694  0.30964194  1
  O  O346  1  0.21390327  0.74831455  0.55636317  1
  O  O347  1  0.21277095  0.74852132  0.80700777  1
  O  O348  1  0.71318463  0.08217895  0.05805361  1
  O  O349  1  0.71337027  0.08378629  0.30634896  1
  O  O350  1  0.71227909  0.08415467  0.55685703  1
  O  O351  1  0.71265368  0.08511720  0.80765063  1
  O  O352  1  0.71325871  0.41523053  0.05836310  1
  O  O353  1  0.71313592  0.41564632  0.30646619  1
  O  O354  1  0.71312364  0.41377241  0.55770627  1
  O  O355  1  0.71272500  0.41525162  0.80816354  1
  O  O356  1  0.71287307  0.74879603  0.05753352  1
  O  O357  1  0.71215233  0.75055097  0.30800439  1
  O  O358  1  0.71199696  0.75052995  0.55805320  1
  O  O359  1  0.71338201  0.74982470  0.80921175  1
  O  O360  1  0.28663894  0.24970450  0.19055851  1
  O  O361  1  0.28732864  0.25107234  0.44193383  1
  O  O362  1  0.28690310  0.24972692  0.69230899  1
  O  O363  1  0.28605220  0.24918366  0.94355640  1
  O  O364  1  0.28645492  0.58224778  0.19362647  1
  O  O365  1  0.28673096  0.58315564  0.44262895  1
  O  O366  1  0.28743272  0.58275715  0.69096981  1
  O  O367  1  0.28791894  0.58193623  0.94327423  1
  O  O368  1  0.28582305  0.91781105  0.19333903  1
  O  O369  1  0.28678850  0.91649195  0.44070709  1
  O  O370  1  0.28842811  0.91579003  0.69216955  1
  O  O371  1  0.28782438  0.91805366  0.94348532  1
  O  O372  1  0.78667729  0.25180158  0.19172112  1
  O  O373  1  0.78647402  0.25022046  0.44311856  1
  O  O374  1  0.78632041  0.25191747  0.69244337  1
  O  O375  1  0.78650018  0.25012277  0.94351100  1
  O  O376  1  0.78735734  0.58137004  0.19128878  1
  O  O377  1  0.78811806  0.58222639  0.44192244  1
  O  O378  1  0.78739179  0.58375887  0.69295013  1
  O  O379  1  0.78654696  0.58244422  0.94215239  1
  O  O380  1  0.78639797  0.91941439  0.19184233  1
  O  O381  1  0.78783496  0.91823814  0.44139936  1
  O  O382  1  0.78737800  0.91888683  0.69274620  1
  O  O383  1  0.78711818  0.91865265  0.94232965  1
  O  O384  1  0.22675989  0.24943479  0.05950331  1
  O  O385  1  0.22806780  0.25022517  0.30636489  1
  O  O386  1  0.22797202  0.25172029  0.55721289  1
  O  O387  1  0.22763824  0.24817342  0.80789546  1
  O  O388  1  0.22827682  0.58141622  0.05841298  1
  O  O389  1  0.22721110  0.58202624  0.30950099  1
  O  O390  1  0.22784283  0.58324507  0.55896916  1
  O  O391  1  0.22840528  0.58265935  0.80648255  1
  O  O392  1  0.22811070  0.91862466  0.05858851  1
  O  O393  1  0.22697318  0.91688699  0.30956561  1
  O  O394  1  0.22849973  0.91605971  0.55664133  1
  O  O395  1  0.22896093  0.91660799  0.80718051  1
  O  O396  1  0.72704799  0.25032181  0.05919874  1
  O  O397  1  0.72769157  0.25160073  0.30749245  1
  O  O398  1  0.72700730  0.25006202  0.55891862  1
  O  O399  1  0.72760273  0.25199626  0.80854322  1
  O  O400  1  0.72788608  0.58111786  0.05806244  1
  O  O401  1  0.72843252  0.58194822  0.30667866  1
  O  O402  1  0.72870822  0.58248092  0.55690302  1
  O  O403  1  0.72770270  0.58361850  0.80811824  1
  O  O404  1  0.72802160  0.91832310  0.05781471  1
  O  O405  1  0.72748430  0.91962674  0.30765956  1
  O  O406  1  0.72870531  0.91799014  0.55658087  1
  O  O407  1  0.72822288  0.91903246  0.80832346  1
  O  O408  1  0.27283293  0.08389266  0.19097000  1
  O  O409  1  0.27154291  0.08201593  0.44162916  1
  O  O410  1  0.27147694  0.08371064  0.69297686  1
  O  O411  1  0.27199053  0.08576438  0.94222169  1
  O  O412  1  0.27281545  0.41751499  0.19088616  1
  O  O413  1  0.27249839  0.41833347  0.44170045  1
  O  O414  1  0.27323770  0.41617252  0.69019513  1
  O  O415  1  0.27168807  0.41579153  0.94343259  1
  O  O416  1  0.27158530  0.74991076  0.19394135  1
  O  O417  1  0.27276869  0.74996252  0.44023035  1
  O  O418  1  0.27232344  0.74743646  0.69170453  1
  O  O419  1  0.27180764  0.74939994  0.94395708  1
  O  O420  1  0.77310224  0.08356413  0.19073432  1
  O  O421  1  0.77145195  0.08285681  0.44132649  1
  O  O422  1  0.77179903  0.08643914  0.69193903  1
  O  O423  1  0.77184427  0.08223780  0.94203953  1
  O  O424  1  0.77241833  0.41623863  0.19067366  1
  O  O425  1  0.77226512  0.41393038  0.44212773  1
  O  O426  1  0.77212943  0.41495612  0.69268422  1
  O  O427  1  0.77189778  0.41467799  0.94228109  1
  O  O428  1  0.77158668  0.75011764  0.19309351  1
  O  O429  1  0.77123173  0.75048759  0.44299819  1
  O  O430  1  0.77197971  0.75073924  0.69353766  1
  O  O431  1  0.77238807  0.74928396  0.94228253  1
  O  O432  1  0.02324278  0.08420695  0.18413613  1
  O  O433  1  0.02186032  0.08499893  0.43147705  1
  O  O434  1  0.02202567  0.08633253  0.68318709  1
  O  O435  1  0.02137085  0.08513406  0.93190767  1
  O  O436  1  0.02224888  0.41520018  0.18302004  1
  O  O437  1  0.02301691  0.41683436  0.43473334  1
  O  O438  1  0.02286702  0.41688694  0.68429013  1
  O  O439  1  0.02278737  0.41678910  0.93447330  1
  O  O440  1  0.02153837  0.74825636  0.18314443  1
  O  O441  1  0.02141692  0.74966706  0.43161595  1
  O  O442  1  0.02210523  0.74782427  0.68282238  1
  O  O443  1  0.02157982  0.74930474  0.93166367  1
  O  O444  1  0.52319489  0.08373841  0.18338384  1
  O  O445  1  0.52180563  0.08348558  0.43088934  1
  O  O446  1  0.52185263  0.08219429  0.68306061  1
  O  O447  1  0.52182125  0.08464243  0.93361031  1
  O  O448  1  0.52233303  0.41462066  0.18260266  1
  O  O449  1  0.52238136  0.41410329  0.43257492  1
  O  O450  1  0.52218184  0.41465151  0.68347640  1
  O  O451  1  0.52172057  0.41535487  0.93346159  1
  O  O452  1  0.52225045  0.74958066  0.18457470  1
  O  O453  1  0.52174235  0.74943343  0.43166000  1
  O  O454  1  0.52197652  0.74853647  0.68394766  1
  O  O455  1  0.52266845  0.75016965  0.93519415  1
  O  O456  1  0.47668546  0.24924132  0.06565665  1
  O  O457  1  0.47747653  0.24941381  0.31478061  1
  O  O458  1  0.47762622  0.25120242  0.56633182  1
  O  O459  1  0.47773728  0.25120276  0.81705946  1
  O  O460  1  0.47774041  0.58438911  0.06743363  1
  O  O461  1  0.47797859  0.58332332  0.31694443  1
  O  O462  1  0.47863546  0.58211512  0.56854116  1
  O  O463  1  0.47785038  0.58444345  0.81751072  1
  O  O464  1  0.47755997  0.91492413  0.06727699  1
  O  O465  1  0.47694396  0.91560877  0.31526421  1
  O  O466  1  0.47843072  0.91646425  0.56806343  1
  O  O467  1  0.47793645  0.91824857  0.81730839  1
  O  O468  1  0.97752209  0.25278273  0.06714471  1
  O  O469  1  0.97765186  0.25194553  0.31594731  1
  O  O470  1  0.97785876  0.25284424  0.56706942  1
  O  O471  1  0.97735921  0.25132849  0.81556669  1
  O  O472  1  0.97808989  0.58092258  0.06671350  1
  O  O473  1  0.97802828  0.58428717  0.31672751  1
  O  O474  1  0.97794812  0.58086808  0.56709841  1
  O  O475  1  0.97772451  0.58240314  0.81544859  1
  O  O476  1  0.97808922  0.91722335  0.06836537  1
  O  O477  1  0.97775596  0.91838629  0.31671665  1
  O  O478  1  0.97855526  0.91723735  0.56820599  1
  O  O479  1  0.97894739  0.91704694  0.81811745  1
  O  O480  1  0.07312970  0.31487880  0.07439256  1
  O  O481  1  0.07315734  0.31504582  0.32327143  1
  O  O482  1  0.07322550  0.31544632  0.57458857  1
  O  O483  1  0.07262716  0.31468350  0.82337353  1
  O  O484  1  0.07327579  0.64514111  0.07438233  1
  O  O485  1  0.07268610  0.64780726  0.32428159  1
  O  O486  1  0.07297976  0.64502403  0.57484316  1
  O  O487  1  0.07238509  0.64623827  0.82348199  1
  O  O488  1  0.07368826  0.98045628  0.07540080  1
  O  O489  1  0.07276155  0.98178350  0.32348971  1
  O  O490  1  0.07400036  0.98067184  0.57520772  1
  O  O491  1  0.07426740  0.98060219  0.82564356  1
  O  O492  1  0.57157837  0.31294369  0.07366935  1
  O  O493  1  0.57245721  0.31320868  0.32216058  1
  O  O494  1  0.57298228  0.31402086  0.57338423  1
  O  O495  1  0.57260703  0.31473570  0.82483801  1
  O  O496  1  0.57294587  0.64771544  0.07450664  1
  O  O497  1  0.57280325  0.64719959  0.32393548  1
  O  O498  1  0.57397724  0.64592910  0.57559914  1
  O  O499  1  0.57271563  0.64806856  0.82506887  1
  O  O500  1  0.57292486  0.97846056  0.07566392  1
  O  O501  1  0.57138234  0.98007169  0.32212268  1
  O  O502  1  0.57389195  0.97989541  0.57461912  1
  O  O503  1  0.57249536  0.98197797  0.82482127  1
  O  O504  1  0.42890176  0.01915103  0.17589911  1
  O  O505  1  0.42670544  0.01961962  0.42325432  1
  O  O506  1  0.42700785  0.01865513  0.67604685  1
  O  O507  1  0.42631600  0.02119148  0.92589403  1
  O  O508  1  0.42718768  0.35124422  0.17517158  1
  O  O509  1  0.42696823  0.35125673  0.42520954  1
  O  O510  1  0.42707154  0.35134466  0.67610651  1
  O  O511  1  0.42665420  0.35182617  0.92638206  1
  O  O512  1  0.42756659  0.68553567  0.17714782  1
  O  O513  1  0.42623460  0.68628189  0.42427595  1
  O  O514  1  0.42725830  0.68478736  0.67685936  1
  O  O515  1  0.42748366  0.68662764  0.92752159  1
  O  O516  1  0.92798515  0.02092993  0.17660697  1
  O  O517  1  0.92654421  0.02150290  0.42429891  1
  O  O518  1  0.92692862  0.02222066  0.67523687  1
  O  O519  1  0.92641148  0.02123432  0.92440311  1
  O  O520  1  0.92708763  0.35225502  0.17599454  1
  O  O521  1  0.92802731  0.35310634  0.42702064  1
  O  O522  1  0.92783330  0.35342993  0.67690892  1
  O  O523  1  0.92786866  0.35323220  0.92617998  1
  O  O524  1  0.92681827  0.68441235  0.17575397  1
  O  O525  1  0.92564826  0.68670783  0.42462657  1
  O  O526  1  0.92699301  0.68466861  0.67593025  1
  O  O527  1  0.92609567  0.68594198  0.92459513  1
  O  O528  1  0.17814434  0.01966727  0.19812902  1
  O  O529  1  0.17617284  0.01922647  0.44833627  1
  O  O530  1  0.17636664  0.02000095  0.70101624  1
  O  O531  1  0.17701626  0.02149038  0.95045734  1
  O  O532  1  0.17856954  0.35313533  0.19858354  1
  O  O533  1  0.17722326  0.35478229  0.44967789  1
  O  O534  1  0.17836782  0.35248640  0.69771021  1
  O  O535  1  0.17604730  0.35310191  0.95057420  1
  O  O536  1  0.17626996  0.68652722  0.20144591  1
  O  O537  1  0.17842817  0.68529022  0.44782055  1
  O  O538  1  0.17690634  0.68478748  0.69850784  1
  O  O539  1  0.17627457  0.68611403  0.95057755  1
  O  O540  1  0.67765813  0.02037651  0.19802593  1
  O  O541  1  0.67648769  0.01955042  0.44860987  1
  O  O542  1  0.67679464  0.02202892  0.69949458  1
  O  O543  1  0.67668941  0.01906885  0.94917657  1
  O  O544  1  0.67720259  0.35266778  0.19797446  1
  O  O545  1  0.67689609  0.35107560  0.44852032  1
  O  O546  1  0.67670007  0.35216681  0.69929939  1
  O  O547  1  0.67701579  0.35123569  0.95002987  1
  O  O548  1  0.67606910  0.68685892  0.20018815  1
  O  O549  1  0.67608759  0.68651563  0.45015297  1
  O  O550  1  0.67653534  0.68723634  0.70077039  1
  O  O551  1  0.67793941  0.68499491  0.94891747  1
  O  O552  1  0.32108420  0.31364539  0.05165633  1
  O  O553  1  0.32342594  0.31343656  0.29840602  1
  O  O554  1  0.32328493  0.31442012  0.55056078  1
  O  O555  1  0.32264823  0.31256298  0.80075526  1
  O  O556  1  0.32340802  0.64547373  0.05136100  1
  O  O557  1  0.32149938  0.64653871  0.30181200  1
  O  O558  1  0.32282030  0.64669839  0.55097928  1
  O  O559  1  0.32396913  0.64560727  0.79989341  1
  O  O560  1  0.32333968  0.98173305  0.05200142  1
  O  O561  1  0.32186316  0.98083567  0.30152568  1
  O  O562  1  0.32380345  0.97961845  0.54912261  1
  O  O563  1  0.32451219  0.97957865  0.80014317  1
  O  O564  1  0.82252098  0.31343414  0.05169888  1
  O  O565  1  0.82267919  0.31496003  0.30080482  1
  O  O566  1  0.82227788  0.31339421  0.55170644  1
  O  O567  1  0.82259720  0.31528739  0.80130495  1
  O  O568  1  0.82333127  0.64491604  0.05021837  1
  O  O569  1  0.82343695  0.64583904  0.29896552  1
  O  O570  1  0.82406159  0.64608582  0.54980412  1
  O  O571  1  0.82228090  0.64769156  0.80166291  1
  O  O572  1  0.82340336  0.98139861  0.05127571  1
  O  O573  1  0.82267476  0.98274658  0.30044114  1
  O  O574  1  0.82442356  0.98116213  0.54971700  1
  O  O575  1  0.82282336  0.98316720  0.80077816  1
  O  O576  1  0.42745141  0.14654622  0.17622379  1
  O  O577  1  0.42610638  0.14633876  0.42333386  1
  O  O578  1  0.42643420  0.14592500  0.67505231  1
  O  O579  1  0.42695189  0.14822160  0.92601964  1
  O  O580  1  0.42707505  0.47835336  0.17483827  1
  O  O581  1  0.42739434  0.47839416  0.42474236  1
  O  O582  1  0.42700190  0.47841225  0.67514944  1
  O  O583  1  0.42629543  0.47893934  0.92515417  1
  O  O584  1  0.42678623  0.81274823  0.17657652  1
  O  O585  1  0.42651311  0.81312347  0.42454937  1
  O  O586  1  0.42642647  0.81204993  0.67604164  1
  O  O587  1  0.42790132  0.81400729  0.92713639  1
  O  O588  1  0.92866635  0.14853867  0.17690584  1
  O  O589  1  0.92627958  0.14822571  0.42363193  1
  O  O590  1  0.92683981  0.14959297  0.67578081  1
  O  O591  1  0.92548569  0.14809462  0.92512329  1
  O  O592  1  0.92699468  0.47900691  0.17510862  1
  O  O593  1  0.92807801  0.48044688  0.42654846  1
  O  O594  1  0.92763378  0.48035730  0.67684884  1
  O  O595  1  0.92779227  0.48043978  0.92639160  1
  O  O596  1  0.92588555  0.81178315  0.17496814  1
  O  O597  1  0.92631569  0.81370969  0.42399523  1
  O  O598  1  0.92677061  0.81206447  0.67533050  1
  O  O599  1  0.92622421  0.81287724  0.92431333  1
  O  O600  1  0.07232493  0.18803949  0.07495298  1
  O  O601  1  0.07217664  0.18771850  0.32290969  1
  O  O602  1  0.07303552  0.18864766  0.57447210  1
  O  O603  1  0.07211000  0.18735861  0.82373076  1
  O  O604  1  0.07323971  0.51807243  0.07436397  1
  O  O605  1  0.07358397  0.52064493  0.32446392  1
  O  O606  1  0.07325933  0.51811524  0.57439101  1
  O  O607  1  0.07308323  0.51886357  0.82302259  1
  O  O608  1  0.07332537  0.85337408  0.07636773  1
  O  O609  1  0.07315952  0.85453213  0.32450027  1
  O  O610  1  0.07390889  0.85344952  0.57472586  1
  O  O611  1  0.07449957  0.85349343  0.82536489  1
  O  O612  1  0.57176241  0.18568569  0.07362756  1
  O  O613  1  0.57271991  0.18601354  0.32252400  1
  O  O614  1  0.57255436  0.18694918  0.57439779  1
  O  O615  1  0.57325142  0.18781614  0.82506571  1
  O  O616  1  0.57300269  0.52060528  0.07529984  1
  O  O617  1  0.57371393  0.51997954  0.32427507  1
  O  O618  1  0.57418768  0.51906446  0.57589295  1
  O  O619  1  0.57321387  0.52084311  0.82632268  1
  O  O620  1  0.57257539  0.85147993  0.07456403  1
  O  O621  1  0.57253478  0.85262557  0.32269244  1
  O  O622  1  0.57371350  0.85295276  0.57577548  1
  O  O623  1  0.57355501  0.85474515  0.82535470  1
  O  O624  1  0.32235351  0.18634276  0.05200119  1
  O  O625  1  0.32347429  0.18668817  0.29900928  1
  O  O626  1  0.32310740  0.18717656  0.54956326  1
  O  O627  1  0.32309774  0.18556096  0.80075282  1
  O  O628  1  0.32366694  0.51828421  0.05180690  1
  O  O629  1  0.32287499  0.51921686  0.30196634  1
  O  O630  1  0.32282751  0.51946370  0.55091810  1
  O  O631  1  0.32377563  0.51889460  0.79910604  1
  O  O632  1  0.32335869  0.85447530  0.05155472  1
  O  O633  1  0.32199583  0.85335944  0.30094895  1
  O  O634  1  0.32406475  0.85281674  0.54860969  1
  O  O635  1  0.32414525  0.85252614  0.80068144  1
  O  O636  1  0.82158176  0.18614002  0.05198177  1
  O  O637  1  0.82315727  0.18813055  0.29955401  1
  O  O638  1  0.82173578  0.18606665  0.55138330  1
  O  O639  1  0.82296542  0.18847072  0.80047570  1
  O  O640  1  0.82281262  0.51774116  0.05008032  1
  O  O641  1  0.82428210  0.51888247  0.29976806  1
  O  O642  1  0.82410210  0.51894613  0.55026595  1
  O  O643  1  0.82350343  0.52045236  0.80070606  1
  O  O644  1  0.82326670  0.85431000  0.04982073  1
  O  O645  1  0.82270697  0.85551798  0.29933520  1
  O  O646  1  0.82401284  0.85428297  0.54969733  1
  O  O647  1  0.82395740  0.85584235  0.80065268  1
  O  O648  1  0.17745568  0.14698128  0.19921572  1
  O  O649  1  0.17644927  0.14653505  0.44904492  1
  O  O650  1  0.17573859  0.14687389  0.69959395  1
  O  O651  1  0.17652945  0.14853697  0.94999256  1
  O  O652  1  0.17729097  0.48058281  0.19842266  1
  O  O653  1  0.17739199  0.48163176  0.44976557  1
  O  O654  1  0.17830096  0.48002602  0.69799852  1
  O  O655  1  0.17651315  0.47974506  0.95006152  1
  O  O656  1  0.17605488  0.81329566  0.20133364  1
  O  O657  1  0.17725848  0.81273996  0.44885059  1
  O  O658  1  0.17723409  0.81194216  0.69883883  1
  O  O659  1  0.17643936  0.81326448  0.95052280  1
  O  O660  1  0.67856160  0.14767990  0.19777169  1
  O  O661  1  0.67590756  0.14658143  0.44838942  1
  O  O662  1  0.67655127  0.14915229  0.69925734  1
  O  O663  1  0.67659861  0.14605182  0.95044957  1
  O  O664  1  0.67747826  0.47992255  0.19829506  1
  O  O665  1  0.67706569  0.47806904  0.45017260  1
  O  O666  1  0.67705946  0.47921822  0.70029022  1
  O  O667  1  0.67637613  0.47818899  0.95024001  1
  O  O668  1  0.67630646  0.81392375  0.19970653  1
  O  O669  1  0.67550198  0.81364594  0.44977984  1
  O  O670  1  0.67666081  0.81427180  0.70172225  1
  O  O671  1  0.67653871  0.81240436  0.95007805  1
