# generated using pymatgen
data_Na2MnFe(PO4)2
_symmetry_space_group_name_H-M   'P 1'
_cell_length_a   22.34487741
_cell_length_b   20.09908686
_cell_length_c   19.44800514
_cell_angle_alpha   90.00042730
_cell_angle_beta   89.96869412
_cell_angle_gamma   90.01637882
_symmetry_Int_Tables_number   1
_chemical_formula_structural   Na2MnFe(PO4)2
_chemical_formula_sum   'Na96 Mn48 Fe48 P96 O384'
_cell_volume   8734.32366679
_cell_formula_units_Z   48
loop_
 _symmetry_equiv_pos_site_id
 _symmetry_equiv_pos_as_xyz
  1  'x, y, z'
loop_
 _atom_site_type_symbol
 _atom_site_label
 _atom_site_symmetry_multiplicity
 _atom_site_fract_x
 _atom_site_fract_y
 _atom_site_fract_z
 _atom_site_occupancy
  Na  Na0  1  0.14083093  0.25068406  0.24481843  1
  Na  Na1  1  0.14048784  0.25101652  0.49490932  1
  Na  Na2  1  0.13984599  0.24982608  0.74323318  1
  Na  Na3  1  0.14011591  0.24966091  0.99448532  1
  Na  Na4  1  0.14028894  0.58306297  0.24561146  1
  Na  Na5  1  0.14130119  0.58267780  0.49387004  1
  Na  Na6  1  0.14053491  0.58368790  0.74404981  1
  Na  Na7  1  0.14022371  0.58303985  0.99375565  1
  Na  Na8  1  0.14015816  0.91623026  0.24450102  1
  Na  Na9  1  0.14087785  0.91476353  0.49495327  1
  Na  Na10  1  0.14008609  0.91685640  0.74393152  1
  Na  Na11  1  0.14022008  0.91678974  0.99370504  1
  Na  Na12  1  0.64070862  0.24913965  0.24356959  1
  Na  Na13  1  0.64083584  0.24959187  0.49283640  1
  Na  Na14  1  0.64017787  0.24911598  0.74303410  1
  Na  Na15  1  0.63973223  0.25085897  0.99244095  1
  Na  Na16  1  0.64098095  0.58351895  0.24385384  1
  Na  Na17  1  0.64114815  0.58363048  0.49307265  1
  Na  Na18  1  0.63994408  0.58446231  0.74379330  1
  Na  Na19  1  0.64017890  0.58401481  0.99233027  1
  Na  Na20  1  0.64076918  0.91733593  0.24329725  1
  Na  Na21  1  0.64079273  0.91732669  0.49318818  1
  Na  Na22  1  0.64030798  0.91793439  0.74199302  1
  Na  Na23  1  0.64024844  0.91664834  0.99314888  1
  Na  Na24  1  0.36006599  0.08335299  0.00535249  1
  Na  Na25  1  0.35968498  0.08350768  0.25558627  1
  Na  Na26  1  0.36014570  0.08278765  0.50768925  1
  Na  Na27  1  0.36027345  0.08319471  0.75601161  1
  Na  Na28  1  0.36004698  0.41676598  0.00533853  1
  Na  Na29  1  0.35943650  0.41779538  0.25647656  1
  Na  Na30  1  0.36021803  0.41554742  0.50654802  1
  Na  Na31  1  0.36021672  0.41642120  0.75634404  1
  Na  Na32  1  0.36021524  0.75010968  0.00586427  1
  Na  Na33  1  0.35977575  0.74966486  0.25538694  1
  Na  Na34  1  0.36027249  0.74915237  0.50608416  1
  Na  Na35  1  0.36047300  0.75032656  0.75766482  1
  Na  Na36  1  0.85882836  0.08397433  0.00742944  1
  Na  Na37  1  0.85865207  0.08342964  0.25568984  1
  Na  Na38  1  0.85874545  0.08270528  0.50687786  1
  Na  Na39  1  0.86022568  0.08312918  0.75692767  1
  Na  Na40  1  0.85889021  0.41682382  0.00609575  1
  Na  Na41  1  0.85846424  0.41587193  0.25680633  1
  Na  Na42  1  0.85940936  0.41562499  0.50600835  1
  Na  Na43  1  0.85933059  0.41716297  0.75724751  1
  Na  Na44  1  0.85878535  0.75033657  0.00610168  1
  Na  Na45  1  0.85883631  0.75090564  0.25751175  1
  Na  Na46  1  0.85973364  0.75095131  0.50614259  1
  Na  Na47  1  0.85921969  0.75013772  0.75526604  1
  Na  Na48  1  0.10953337  0.08278593  0.11893614  1
  Na  Na49  1  0.10968203  0.08313862  0.37030702  1
  Na  Na50  1  0.10947548  0.08391524  0.61940145  1
  Na  Na51  1  0.10884257  0.08350179  0.86981133  1
  Na  Na52  1  0.10973602  0.41632152  0.11945543  1
  Na  Na53  1  0.11042937  0.41618145  0.36936278  1
  Na  Na54  1  0.10953198  0.41740153  0.61872097  1
  Na  Na55  1  0.10903401  0.41614939  0.86936596  1
  Na  Na56  1  0.10895245  0.74947364  0.11819128  1
  Na  Na57  1  0.10976738  0.74923034  0.37026027  1
  Na  Na58  1  0.11016759  0.75004464  0.61941116  1
  Na  Na59  1  0.10978949  0.75008708  0.86849291  1
  Na  Na60  1  0.60998616  0.08375651  0.11704026  1
  Na  Na61  1  0.61026756  0.08200037  0.36807002  1
  Na  Na62  1  0.61059901  0.08461874  0.61773022  1
  Na  Na63  1  0.60969385  0.08428345  0.86713737  1
  Na  Na64  1  0.60977016  0.41641844  0.11769957  1
  Na  Na65  1  0.61041652  0.41580843  0.36829196  1
  Na  Na66  1  0.60998974  0.41680608  0.61936618  1
  Na  Na67  1  0.60905745  0.41688034  0.86783514  1
  Na  Na68  1  0.61005575  0.75074902  0.11856465  1
  Na  Na69  1  0.61060842  0.75062747  0.36761142  1
  Na  Na70  1  0.60995543  0.75166820  0.61880432  1
  Na  Na71  1  0.60943640  0.75018827  0.86804280  1
  Na  Na72  1  0.39062699  0.25015806  0.13046315  1
  Na  Na73  1  0.39047341  0.24951818  0.38235553  1
  Na  Na74  1  0.39084348  0.25036598  0.63214724  1
  Na  Na75  1  0.39069338  0.24990827  0.87949757  1
  Na  Na76  1  0.39039239  0.58403244  0.13078512  1
  Na  Na77  1  0.39036174  0.58259850  0.38172419  1
  Na  Na78  1  0.39159931  0.58342581  0.63203972  1
  Na  Na79  1  0.39070791  0.58409550  0.88141666  1
  Na  Na80  1  0.39026303  0.91644938  0.12999423  1
  Na  Na81  1  0.39064064  0.91607980  0.38074894  1
  Na  Na82  1  0.39139199  0.91682339  0.63244877  1
  Na  Na83  1  0.39071272  0.91651156  0.88074544  1
  Na  Na84  1  0.88921257  0.24923413  0.13126717  1
  Na  Na85  1  0.88929406  0.24947986  0.38188825  1
  Na  Na86  1  0.89014238  0.24967033  0.63162135  1
  Na  Na87  1  0.88987482  0.24908148  0.88231440  1
  Na  Na88  1  0.88955732  0.58253257  0.13051533  1
  Na  Na89  1  0.88969996  0.58302783  0.38283512  1
  Na  Na90  1  0.89041975  0.58372185  0.63016657  1
  Na  Na91  1  0.88955065  0.58300144  0.88094036  1
  Na  Na92  1  0.88926366  0.91711889  0.13184070  1
  Na  Na93  1  0.88942555  0.91562633  0.38275749  1
  Na  Na94  1  0.88981485  0.91664183  0.63150060  1
  Na  Na95  1  0.88994638  0.91818473  0.88113040  1
  Mn  Mn96  1  -0.00027631  0.16633901  0.25063553  1
  Mn  Mn97  1  0.49996043  0.83452125  0.50023612  1
  Mn  Mn98  1  0.25050939  0.33426188  0.12524960  1
  Mn  Mn99  1  0.74985021  0.33294577  0.87506773  1
  Mn  Mn100  1  0.25044130  -0.00092303  0.62569753  1
  Mn  Mn101  1  -0.00058807  0.16736546  0.50049268  1
  Mn  Mn102  1  -0.00057357  0.33358999  0.75108714  1
  Mn  Mn103  1  0.24916122  0.83341340  0.12541714  1
  Mn  Mn104  1  0.75042246  0.66738166  0.12528842  1
  Mn  Mn105  1  0.50024253  0.50006899  0.24958102  1
  Mn  Mn106  1  -0.00059330  0.66593634  0.74969129  1
  Mn  Mn107  1  0.25133749  0.66695708  0.62498429  1
  Mn  Mn108  1  -0.00087321  0.66539864  -0.00099497  1
  Mn  Mn109  1  0.25032474  0.16628616  0.12536521  1
  Mn  Mn110  1  0.24968961  0.16708119  0.37575051  1
  Mn  Mn111  1  -0.00033382  0.33260644  0.24956750  1
  Mn  Mn112  1  0.25088779  0.83193654  0.37435972  1
  Mn  Mn113  1  0.25143084  0.49922747  0.62451244  1
  Mn  Mn114  1  0.50135334  0.49927855  0.50118764  1
  Mn  Mn115  1  -0.00106501  0.83405867  -0.00070814  1
  Mn  Mn116  1  0.25037175  -0.00068513  0.37630494  1
  Mn  Mn117  1  -0.00001213  0.49991668  0.50022974  1
  Mn  Mn118  1  0.24925293  -0.00037085  0.87465359  1
  Mn  Mn119  1  0.49988092  0.50029264  -0.00079031  1
  Mn  Mn120  1  -0.00061590  0.83395177  0.74993209  1
  Mn  Mn121  1  0.75042584  0.50005334  0.62452703  1
  Mn  Mn122  1  0.50088206  0.66719260  0.50049547  1
  Mn  Mn123  1  0.50005152  0.33274391  0.24911610  1
  Mn  Mn124  1  0.74973566  0.49966817  0.12492287  1
  Mn  Mn125  1  0.50014536  -0.00004472  -0.00119446  1
  Mn  Mn126  1  0.49956621  -0.00102144  0.24818641  1
  Mn  Mn127  1  0.24930447  0.66579030  0.12538527  1
  Mn  Mn128  1  -0.00033264  -0.00060101  0.50039325  1
  Mn  Mn129  1  0.74981929  0.00091007  0.87443897  1
  Mn  Mn130  1  0.50018711  0.16611501  0.24970471  1
  Mn  Mn131  1  0.50036297  0.16663809  0.50021293  1
  Mn  Mn132  1  0.75039379  0.83361771  0.87454004  1
  Mn  Mn133  1  -0.00069376  0.49931276  0.25080593  1
  Mn  Mn134  1  0.75055003  0.66747483  0.62381268  1
  Mn  Mn135  1  -0.00040082  0.83293104  0.25015046  1
  Mn  Mn136  1  0.74966049  0.33218595  0.62518836  1
  Mn  Mn137  1  0.24984722  0.33329872  0.87506962  1
  Mn  Mn138  1  -0.00080832  0.33273914  -0.00023549  1
  Mn  Mn139  1  -0.00081647  0.66624104  0.24999507  1
  Mn  Mn140  1  0.24997993  0.16662944  0.87497441  1
  Mn  Mn141  1  0.50059438  0.66753736  0.25006770  1
  Mn  Mn142  1  -0.00045707  -0.00045058  0.25060253  1
  Mn  Mn143  1  0.24928729  0.50040147  0.87477866  1
  Fe  Fe144  1  0.50022995  0.50025122  0.75028258  1
  Fe  Fe145  1  0.50036544  0.66729939  -0.00023404  1
  Fe  Fe146  1  0.00041515  0.83301294  0.50103798  1
  Fe  Fe147  1  0.24983960  -0.00021640  0.12493449  1
  Fe  Fe148  1  0.50063525  0.83371029  0.75035661  1
  Fe  Fe149  1  0.74927083  0.50038360  0.87515158  1
  Fe  Fe150  1  0.74913535  0.16722332  0.12541055  1
  Fe  Fe151  1  0.00010324  0.33365979  0.50101774  1
  Fe  Fe152  1  0.25003229  0.16676406  0.62514286  1
  Fe  Fe153  1  0.24987784  0.33324307  0.62486943  1
  Fe  Fe154  1  0.00054878  0.66667877  0.50081297  1
  Fe  Fe155  1  0.75010717  0.33244308  0.37503387  1
  Fe  Fe156  1  0.74935643  0.83412494  0.12559745  1
  Fe  Fe157  1  0.74965407  0.83376195  0.62421624  1
  Fe  Fe158  1  0.50072947  0.16711995  0.74899845  1
  Fe  Fe159  1  0.25048507  0.49968104  0.37510660  1
  Fe  Fe160  1  0.25112433  0.33343032  0.37543439  1
  Fe  Fe161  1  0.75009828  0.00032003  0.37468353  1
  Fe  Fe162  1  0.50064881  0.83334707  -0.00115078  1
  Fe  Fe163  1  0.75075885  0.16605535  0.62413992  1
  Fe  Fe164  1  0.75021959  0.00039895  0.62411863  1
  Fe  Fe165  1  0.50060916  0.33349913  0.50081487  1
  Fe  Fe166  1  0.49946294  0.33303039  -0.00174834  1
  Fe  Fe167  1  0.50036248  0.66724102  0.75037736  1
  Fe  Fe168  1  0.00017198  0.00050946  0.75070233  1
  Fe  Fe169  1  0.50001457  0.83333504  0.24931085  1
  Fe  Fe170  1  0.50060766  0.33353269  0.75005851  1
  Fe  Fe171  1  0.25012381  0.66595516  0.37537532  1
  Fe  Fe172  1  0.74988681  0.49937707  0.37430125  1
  Fe  Fe173  1  0.74944023  0.00041394  0.12529700  1
  Fe  Fe174  1  0.74917331  0.66726608  0.87476654  1
  Fe  Fe175  1  0.25043704  0.66692398  0.87501717  1
  Fe  Fe176  1  -0.00055820  0.00031912  0.00036264  1
  Fe  Fe177  1  0.74978365  0.16597897  0.37432314  1
  Fe  Fe178  1  0.75020199  0.66745753  0.37471568  1
  Fe  Fe179  1  0.74985037  0.16687565  0.87543603  1
  Fe  Fe180  1  -0.00040365  0.16643840  0.75126667  1
  Fe  Fe181  1  0.50064504  0.00035607  0.50004420  1
  Fe  Fe182  1  0.25027415  0.83328760  0.87546852  1
  Fe  Fe183  1  0.24986813  0.50047928  0.12552342  1
  Fe  Fe184  1  -0.00025467  0.16602211  0.00050670  1
  Fe  Fe185  1  -0.00012811  0.49999118  0.74947077  1
  Fe  Fe186  1  0.74905768  0.33295465  0.12557742  1
  Fe  Fe187  1  -0.00054230  0.49922775  0.00009247  1
  Fe  Fe188  1  0.49968105  0.16687299  -0.00206609  1
  Fe  Fe189  1  0.75007261  0.83444990  0.37515876  1
  Fe  Fe190  1  0.50058703  0.00061109  0.75002303  1
  Fe  Fe191  1  0.25050741  0.83244512  0.62545541  1
  P  P192  1  0.04200229  0.24858450  0.10238683  1
  P  P193  1  0.04264904  0.25026525  0.35410794  1
  P  P194  1  0.04180293  0.25139428  0.60367795  1
  P  P195  1  0.04179586  0.24838613  0.85334638  1
  P  P196  1  0.04174083  0.58160000  0.10228628  1
  P  P197  1  0.04205005  0.58342437  0.35417576  1
  P  P198  1  0.04275917  0.58410971  0.60286980  1
  P  P199  1  0.04183944  0.58126940  0.85251544  1
  P  P200  1  0.04177786  0.91757560  0.10233512  1
  P  P201  1  0.04247739  0.91577285  0.35425188  1
  P  P202  1  0.04222008  0.91594753  0.60334058  1
  P  P203  1  0.04180448  0.91860051  0.85301602  1
  P  P204  1  0.54104610  0.25003158  0.10001608  1
  P  P205  1  0.54283313  0.24969634  0.35325059  1
  P  P206  1  0.54270326  0.25152036  0.60311629  1
  P  P207  1  0.54142289  0.25008237  0.85140397  1
  P  P208  1  0.54256014  0.58491264  0.10175752  1
  P  P209  1  0.54335529  0.58322981  0.35312411  1
  P  P210  1  0.54350275  0.58387430  0.60454649  1
  P  P211  1  0.54113947  0.58403420  0.85195376  1
  P  P212  1  0.54218936  0.91516752  0.10156314  1
  P  P213  1  0.54234851  0.91573822  0.35184558  1
  P  P214  1  0.54260429  0.91894066  0.60321128  1
  P  P215  1  0.54194096  0.91699904  0.85145687  1
  P  P216  1  0.45747333  0.08366319  0.14521361  1
  P  P217  1  0.45786615  0.08168545  0.39764024  1
  P  P218  1  0.45946981  0.08333144  0.64796554  1
  P  P219  1  0.45822498  0.08429889  0.89557754  1
  P  P220  1  0.45726627  0.41662336  0.14584667  1
  P  P221  1  0.45855604  0.41523804  0.39812178  1
  P  P222  1  0.45938954  0.41641161  0.64864147  1
  P  P223  1  0.45803950  0.41568178  0.89591625  1
  P  P224  1  0.45812643  0.75137400  0.14632917  1
  P  P225  1  0.45795014  0.75057363  0.39678686  1
  P  P226  1  0.45909964  0.75061203  0.64903590  1
  P  P227  1  0.45912036  0.75010174  0.89746219  1
  P  P228  1  0.95698669  0.08305531  0.14646263  1
  P  P229  1  0.95640511  0.08312924  0.39765364  1
  P  P230  1  0.95874335  0.08337573  0.64903980  1
  P  P231  1  0.95789648  0.08341431  0.89841809  1
  P  P232  1  0.95641215  0.41646893  0.14643424  1
  P  P233  1  0.95757021  0.41498531  0.39812243  1
  P  P234  1  0.95723989  0.41764007  0.64759066  1
  P  P235  1  0.95711944  0.41779343  0.89719434  1
  P  P236  1  0.95610984  0.74968858  0.14668630  1
  P  P237  1  0.95861535  0.74976622  0.39926563  1
  P  P238  1  0.95734045  0.74995495  0.64603656  1
  P  P239  1  0.95644896  0.74994611  0.89642383  1
  P  P240  1  0.20771184  0.08186990  0.22790242  1
  P  P241  1  0.20761678  0.08346517  0.47960774  1
  P  P242  1  0.20787964  0.08416935  0.72735521  1
  P  P243  1  0.20716678  0.08289489  0.97871057  1
  P  P244  1  0.20800211  0.41848002  0.22858209  1
  P  P245  1  0.20929546  0.41608632  0.47700222  1
  P  P246  1  0.20775566  0.41582030  0.72707777  1
  P  P247  1  0.20699121  0.41718196  0.97866226  1
  P  P248  1  0.20658564  0.74894716  0.22868255  1
  P  P249  1  0.20848357  0.74849400  0.47801599  1
  P  P250  1  0.20840948  0.75092822  0.72859331  1
  P  P251  1  0.20834733  0.74972179  0.97664830  1
  P  P252  1  0.70818777  0.08361708  0.22688368  1
  P  P253  1  0.70881140  0.08337026  0.47660042  1
  P  P254  1  0.70913307  0.08373111  0.72602093  1
  P  P255  1  0.70739219  0.08495671  0.97782844  1
  P  P256  1  0.70748492  0.41513566  0.22817531  1
  P  P257  1  0.70898377  0.41625297  0.47624157  1
  P  P258  1  0.70786800  0.41686298  0.72849512  1
  P  P259  1  0.70725531  0.41763706  0.97731244  1
  P  P260  1  0.70816037  0.75186866  0.22843898  1
  P  P261  1  0.70886315  0.75117943  0.47639303  1
  P  P262  1  0.70804234  0.75130562  0.72705517  1
  P  P263  1  0.70749336  0.74978326  0.97742292  1
  P  P264  1  0.29309979  0.25013198  0.02195647  1
  P  P265  1  0.29271360  0.25123781  0.27303079  1
  P  P266  1  0.29181096  0.25030626  0.52353523  1
  P  P267  1  0.29231171  0.24996548  0.77067114  1
  P  P268  1  0.29215384  0.58245732  0.02232610  1
  P  P269  1  0.29187088  0.58304281  0.27348863  1
  P  P270  1  0.29379170  0.58285821  0.52114431  1
  P  P271  1  0.29279376  0.58463009  0.77270091  1
  P  P272  1  0.29178293  0.91723968  0.02215737  1
  P  P273  1  0.29293547  0.91690617  0.27148161  1
  P  P274  1  0.29313701  0.91447668  0.52323491  1
  P  P275  1  0.29217194  0.91490177  0.77244495  1
  P  P276  1  0.79034972  0.25024590  0.02348011  1
  P  P277  1  0.79088314  0.24934240  0.27281411  1
  P  P278  1  0.79199977  0.24830166  0.52159939  1
  P  P279  1  0.79218295  0.24791432  0.77245639  1
  P  P280  1  0.79174421  0.58366914  0.02101125  1
  P  P281  1  0.79144072  0.58329932  0.27360032  1
  P  P282  1  0.79274280  0.58336612  0.52029165  1
  P  P283  1  0.79080506  0.58396313  0.77328361  1
  P  P284  1  0.79063907  0.91704706  0.02370705  1
  P  P285  1  0.79117683  0.91729625  0.27297310  1
  P  P286  1  0.79108770  0.91681408  0.52250196  1
  P  P287  1  0.79247318  0.91726681  0.77067663  1
  O  O288  1  0.03710823  0.24892985  0.18239060  1
  O  O289  1  0.03750217  0.25112589  0.43409703  1
  O  O290  1  0.03648738  0.25092243  0.68360190  1
  O  O291  1  0.03664251  0.24807150  0.93328817  1
  O  O292  1  0.03660735  0.58211395  0.18228412  1
  O  O293  1  0.03705883  0.58399446  0.43414711  1
  O  O294  1  0.03761058  0.58337156  0.68282438  1
  O  O295  1  0.03640156  0.58080214  0.93245525  1
  O  O296  1  0.03701760  0.91695800  0.18238409  1
  O  O297  1  0.03736656  0.91516355  0.43423973  1
  O  O298  1  0.03710663  0.91679446  0.68330737  1
  O  O299  1  0.03619543  0.91891642  0.93293217  1
  O  O300  1  0.53612735  0.24964249  0.18004211  1
  O  O301  1  0.53799672  0.25002727  0.43323111  1
  O  O302  1  0.53755692  0.25137339  0.68301572  1
  O  O303  1  0.53591289  0.24962467  0.93125568  1
  O  O304  1  0.53751334  0.58460847  0.18175567  1
  O  O305  1  0.53878996  0.58314971  0.43316020  1
  O  O306  1  0.53784508  0.58413235  0.68445364  1
  O  O307  1  0.53605644  0.58418155  0.93192021  1
  O  O308  1  0.53676406  0.91492388  0.18146545  1
  O  O309  1  0.53739999  0.91674894  0.43182357  1
  O  O310  1  0.53730206  0.91900002  0.68306289  1
  O  O311  1  0.53704834  0.91630787  0.93141693  1
  O  O312  1  0.46269026  0.08449461  0.06525054  1
  O  O313  1  0.46260724  0.08182234  0.31760716  1
  O  O314  1  0.46424319  0.08316177  0.56796494  1
  O  O315  1  0.46381136  0.08390364  0.81569915  1
  O  O316  1  0.46227849  0.41654391  0.06585016  1
  O  O317  1  0.46331895  0.41554800  0.31812427  1
  O  O318  1  0.46451700  0.41628118  0.56869190  1
  O  O319  1  0.46394928  0.41600680  0.81608505  1
  O  O320  1  0.46356831  0.75106451  0.06642518  1
  O  O321  1  0.46291772  0.75091840  0.31681975  1
  O  O322  1  0.46378974  0.75099911  0.56906314  1
  O  O323  1  0.46449854  0.74982177  0.81757865  1
  O  O324  1  0.96217413  0.08302491  0.06649752  1
  O  O325  1  0.96125977  0.08302011  0.31768758  1
  O  O326  1  0.96336305  0.08363053  0.56908725  1
  O  O327  1  0.96332136  0.08349122  0.81847249  1
  O  O328  1  0.96145641  0.41695747  0.06642055  1
  O  O329  1  0.96238305  0.41513681  0.31811586  1
  O  O330  1  0.96268317  0.41685217  0.56765493  1
  O  O331  1  0.96253565  0.41795141  0.81724245  1
  O  O332  1  0.96086826  0.74970780  0.06668258  1
  O  O333  1  0.96317834  0.74980416  0.31917486  1
  O  O334  1  0.96313308  0.74990443  0.56614400  1
  O  O335  1  0.96160820  0.75007865  0.81647195  1
  O  O336  1  0.21243177  0.08234774  0.05865648  1
  O  O337  1  0.21289203  0.08226676  0.30792673  1
  O  O338  1  0.21299918  0.08403715  0.55954367  1
  O  O339  1  0.21265772  0.08389153  0.80736414  1
  O  O340  1  0.21223446  0.41783565  0.05859575  1
  O  O341  1  0.21379557  0.41812983  0.30845204  1
  O  O342  1  0.21450853  0.41542877  0.55694763  1
  O  O343  1  0.21238111  0.41629054  0.80707326  1
  O  O344  1  0.21278089  0.74968968  0.05669411  1
  O  O345  1  0.21200177  0.74830715  0.30859269  1
  O  O346  1  0.21393167  0.74939303  0.55794333  1
  O  O347  1  0.21372870  0.75065881  0.80851076  1
  O  O348  1  0.71234413  0.08476926  0.05768159  1
  O  O349  1  0.71306883  0.08356818  0.30673156  1
  O  O350  1  0.71418270  0.08307235  0.55644701  1
  O  O351  1  0.71342066  0.08365775  0.80598970  1
  O  O352  1  0.71189186  0.41721134  0.05727488  1
  O  O353  1  0.71317124  0.41540945  0.30804473  1
  O  O354  1  0.71384177  0.41607526  0.55625096  1
  O  O355  1  0.71318230  0.41725237  0.80840824  1
  O  O356  1  0.71254171  0.75030882  0.05734890  1
  O  O357  1  0.71382796  0.75166724  0.30829650  1
  O  O358  1  0.71375790  0.75123105  0.55637030  1
  O  O359  1  0.71340975  0.75049880  0.80697451  1
  O  O360  1  0.28758168  0.25097572  0.19308689  1
  O  O361  1  0.28685396  0.25078228  0.44351357  1
  O  O362  1  0.28706298  0.24998403  0.69072905  1
  O  O363  1  0.28795890  0.25002213  0.94197526  1
  O  O364  1  0.28648080  0.58246436  0.19352623  1
  O  O365  1  0.28840562  0.58287212  0.44125109  1
  O  O366  1  0.28826871  0.58443495  0.69270347  1
  O  O367  1  0.28695337  0.58345223  0.94237459  1
  O  O368  1  0.28741787  0.91758669  0.19154621  1
  O  O369  1  0.28808735  0.91493186  0.44325997  1
  O  O370  1  0.28723564  0.91454210  0.69249207  1
  O  O371  1  0.28627745  0.91636298  0.94221145  1
  O  O372  1  0.78548979  0.25005003  0.19296212  1
  O  O373  1  0.78659428  0.24832804  0.44176307  1
  O  O374  1  0.78733645  0.24777644  0.69248590  1
  O  O375  1  0.78565126  0.24978864  0.94350282  1
  O  O376  1  0.78642948  0.58351293  0.19358803  1
  O  O377  1  0.78744793  0.58313081  0.44043288  1
  O  O378  1  0.78618636  0.58383954  0.69322909  1
  O  O379  1  0.78593082  0.58374808  0.94114637  1
  O  O380  1  0.78599013  0.91727217  0.19311285  1
  O  O381  1  0.78620790  0.91695770  0.44260712  1
  O  O382  1  0.78732291  0.91715936  0.69080143  1
  O  O383  1  0.78605033  0.91747622  0.94370150  1
  O  O384  1  0.22873866  0.25017549  0.05715833  1
  O  O385  1  0.22837796  0.25170457  0.30854328  1
  O  O386  1  0.22757768  0.25020613  0.55940316  1
  O  O387  1  0.22804427  0.24997306  0.80634241  1
  O  O388  1  0.22781782  0.58145042  0.05805238  1
  O  O389  1  0.22782658  0.58301832  0.30996125  1
  O  O390  1  0.22957896  0.58297524  0.55688441  1
  O  O391  1  0.22829492  0.58517311  0.80775664  1
  O  O392  1  0.22760504  0.91805784  0.05822241  1
  O  O393  1  0.22870667  0.91628508  0.30713540  1
  O  O394  1  0.22874499  0.91426056  0.55867380  1
  O  O395  1  0.22783445  0.91470280  0.80795446  1
  O  O396  1  0.72616495  0.25074009  0.05938059  1
  O  O397  1  0.72697067  0.24865200  0.30944597  1
  O  O398  1  0.72787238  0.24758877  0.55783997  1
  O  O399  1  0.72779719  0.24816285  0.80791447  1
  O  O400  1  0.72774215  0.58382078  0.05729348  1
  O  O401  1  0.72730954  0.58284505  0.30947963  1
  O  O402  1  0.72855337  0.58351791  0.55611756  1
  O  O403  1  0.72660999  0.58419953  0.80912818  1
  O  O404  1  0.72646021  0.91641365  0.05947637  1
  O  O405  1  0.72716772  0.91661165  0.30942659  1
  O  O406  1  0.72708109  0.91650145  0.55888517  1
  O  O407  1  0.72822518  0.91713445  0.80639516  1
  O  O408  1  0.27202357  0.08147313  0.19224534  1
  O  O409  1  0.27189679  0.08359468  0.44409913  1
  O  O410  1  0.27227614  0.08402646  0.69213781  1
  O  O411  1  0.27148220  0.08288702  0.94329218  1
  O  O412  1  0.27209385  0.41902342  0.19213914  1
  O  O413  1  0.27338834  0.41661189  0.44079322  1
  O  O414  1  0.27230327  0.41483958  0.69209259  1
  O  O415  1  0.27132306  0.41709690  0.94326009  1
  O  O416  1  0.27090103  0.74942666  0.19327709  1
  O  O417  1  0.27263310  0.74759285  0.44194070  1
  O  O418  1  0.27270172  0.75148459  0.69263452  1
  O  O419  1  0.27270575  0.74964209  0.94116466  1
  O  O420  1  0.77213792  0.08423779  0.19047814  1
  O  O421  1  0.77276390  0.08410494  0.44003782  1
  O  O422  1  0.77339814  0.08400487  0.69032194  1
  O  O423  1  0.77172087  0.08504153  0.94201145  1
  O  O424  1  0.77155102  0.41473696  0.19178435  1
  O  O425  1  0.77305599  0.41701317  0.44025291  1
  O  O426  1  0.77205898  0.41620499  0.69281158  1
  O  O427  1  0.77159131  0.41788716  0.94187402  1
  O  O428  1  0.77215637  0.75244426  0.19191364  1
  O  O429  1  0.77301703  0.75161211  0.44046259  1
  O  O430  1  0.77216425  0.75237819  0.69090456  1
  O  O431  1  0.77176782  0.74894435  0.94167803  1
  O  O432  1  0.02126471  0.08293925  0.18204025  1
  O  O433  1  0.02091184  0.08333359  0.43239160  1
  O  O434  1  0.02288320  0.08302310  0.68486493  1
  O  O435  1  0.02195661  0.08333938  0.93475458  1
  O  O436  1  0.02087497  0.41650572  0.18146111  1
  O  O437  1  0.02196960  0.41498606  0.43342312  1
  O  O438  1  0.02151534  0.41783143  0.68333049  1
  O  O439  1  0.02132876  0.41734607  0.93296706  1
  O  O440  1  0.02073600  0.74954014  0.18124814  1
  O  O441  1  0.02287022  0.74985854  0.43490140  1
  O  O442  1  0.02141644  0.74994369  0.68203920  1
  O  O443  1  0.02081776  0.74998847  0.93151903  1
  O  O444  1  0.52178721  0.08309615  0.18061913  1
  O  O445  1  0.52234173  0.08196453  0.43279204  1
  O  O446  1  0.52362494  0.08274596  0.68376161  1
  O  O447  1  0.52226168  0.08439417  0.93181533  1
  O  O448  1  0.52169679  0.41664659  0.18100079  1
  O  O449  1  0.52299325  0.41472807  0.43339460  1
  O  O450  1  0.52344798  0.41629957  0.68466893  1
  O  O451  1  0.52193820  0.41531099  0.93258414  1
  O  O452  1  0.52225281  0.75191367  0.18258987  1
  O  O453  1  0.52230467  0.75096861  0.43205025  1
  O  O454  1  0.52334997  0.74987969  0.68457413  1
  O  O455  1  0.52313281  0.75003990  0.93392674  1
  O  O456  1  0.47690041  0.25044215  0.06411305  1
  O  O457  1  0.47839178  0.24950294  0.31820720  1
  O  O458  1  0.47848818  0.25155438  0.56717657  1
  O  O459  1  0.47759868  0.25058043  0.81471121  1
  O  O460  1  0.47822580  0.58502826  0.06634277  1
  O  O461  1  0.47884507  0.58355291  0.31832541  1
  O  O462  1  0.47934075  0.58355139  0.56870563  1
  O  O463  1  0.47716382  0.58458575  0.81573473  1
  O  O464  1  0.47806876  0.91522360  0.06552779  1
  O  O465  1  0.47803279  0.91491381  0.31620502  1
  O  O466  1  0.47839287  0.91920296  0.56720687  1
  O  O467  1  0.47778111  0.91767767  0.81571260  1
  O  O468  1  0.97759789  0.24826201  0.06710396  1
  O  O469  1  0.97817883  0.24980835  0.31905328  1
  O  O470  1  0.97760420  0.25196178  0.56777011  1
  O  O471  1  0.97750331  0.24876690  0.81781859  1
  O  O472  1  0.97735532  0.58150110  0.06692004  1
  O  O473  1  0.97763655  0.58310805  0.31901719  1
  O  O474  1  0.97845689  0.58453102  0.56741349  1
  O  O475  1  0.97758672  0.58111419  0.81668077  1
  O  O476  1  0.97729383  0.91785584  0.06727944  1
  O  O477  1  0.97801872  0.91602674  0.31915346  1
  O  O478  1  0.97790834  0.91523047  0.56783062  1
  O  O479  1  0.97763596  0.91886161  0.81707490  1
  O  O480  1  0.07289583  0.31228520  0.07444870  1
  O  O481  1  0.07378902  0.31327257  0.32493207  1
  O  O482  1  0.07268136  0.31495761  0.57530167  1
  O  O483  1  0.07308481  0.31208148  0.82586321  1
  O  O484  1  0.07280860  0.64519144  0.07416327  1
  O  O485  1  0.07316828  0.64655299  0.32532546  1
  O  O486  1  0.07357331  0.64772320  0.57461467  1
  O  O487  1  0.07255186  0.64544293  0.82530587  1
  O  O488  1  0.07243663  0.98116570  0.07400187  1
  O  O489  1  0.07339365  0.97956677  0.32648007  1
  O  O490  1  0.07325274  0.97943877  0.57508854  1
  O  O491  1  0.07311763  0.98166631  0.82420295  1
  O  O492  1  0.57198297  0.31379743  0.07227801  1
  O  O493  1  0.57398779  0.31280101  0.32437550  1
  O  O494  1  0.57354502  0.31492773  0.57427033  1
  O  O495  1  0.57307214  0.31348437  0.82372034  1
  O  O496  1  0.57326303  0.64852337  0.07341877  1
  O  O497  1  0.57444446  0.64665027  0.32491893  1
  O  O498  1  0.57462093  0.64722145  0.57586299  1
  O  O499  1  0.57290367  0.64711631  0.82385756  1
  O  O500  1  0.57316603  0.97908462  0.07410951  1
  O  O501  1  0.57315866  0.97924041  0.32311394  1
  O  O502  1  0.57359718  0.98207493  0.57386446  1
  O  O503  1  0.57328408  0.98053306  0.82370314  1
  O  O504  1  0.42640406  0.01988002  0.17271240  1
  O  O505  1  0.42746136  0.01808200  0.42637590  1
  O  O506  1  0.42762447  0.02046020  0.67643736  1
  O  O507  1  0.42690939  0.02081605  0.92372131  1
  O  O508  1  0.42608946  0.35335985  0.17432079  1
  O  O509  1  0.42767501  0.35182634  0.42674402  1
  O  O510  1  0.42791102  0.35318465  0.67675604  1
  O  O511  1  0.42682932  0.35229902  0.92423838  1
  O  O512  1  0.42717480  0.68766997  0.17454436  1
  O  O513  1  0.42743656  0.68672219  0.42499496  1
  O  O514  1  0.42763386  0.68727312  0.67689414  1
  O  O515  1  0.42804107  0.68670805  0.92617474  1
  O  O516  1  0.92573685  0.01976230  0.17504121  1
  O  O517  1  0.92557929  0.01961434  0.42603003  1
  O  O518  1  0.92769438  0.01973292  0.67686835  1
  O  O519  1  0.92685914  0.01978803  0.92668479  1
  O  O520  1  0.92573450  0.35257898  0.17431005  1
  O  O521  1  0.92691451  0.35152851  0.42679080  1
  O  O522  1  0.92577940  0.35448769  0.67602958  1
  O  O523  1  0.92591004  0.35390613  0.92449806  1
  O  O524  1  0.92515277  0.68623631  0.17512483  1
  O  O525  1  0.92795760  0.68597168  0.42727169  1
  O  O526  1  0.92593634  0.68655780  0.67420179  1
  O  O527  1  0.92552202  0.68633245  0.92427853  1
  O  O528  1  0.17675286  0.01847376  0.19953654  1
  O  O529  1  0.17683194  0.01953660  0.45203292  1
  O  O530  1  0.17672379  0.02051507  0.69978861  1
  O  O531  1  0.17579481  0.01985695  0.94993600  1
  O  O532  1  0.17703878  0.35470555  0.20060448  1
  O  O533  1  0.17849314  0.35255265  0.44844585  1
  O  O534  1  0.17650194  0.35262166  0.69866866  1
  O  O535  1  0.17607745  0.35339094  0.95090977  1
  O  O536  1  0.17541370  0.68576168  0.19997928  1
  O  O537  1  0.17743475  0.68489234  0.45014631  1
  O  O538  1  0.17755834  0.68725602  0.70029671  1
  O  O539  1  0.17761477  0.68602284  0.94843793  1
  O  O540  1  0.67792693  0.01962673  0.19820858  1
  O  O541  1  0.67857554  0.01938718  0.44785765  1
  O  O542  1  0.67891740  0.01979396  0.69728028  1
  O  O543  1  0.67635472  0.02141132  0.94940912  1
  O  O544  1  0.67636848  0.35180139  0.19951557  1
  O  O545  1  0.67895511  0.35199225  0.44822984  1
  O  O546  1  0.67671501  0.35322254  0.70065777  1
  O  O547  1  0.67618756  0.35419033  0.94901426  1
  O  O548  1  0.67722776  0.68806097  0.20058903  1
  O  O549  1  0.67873801  0.68701509  0.44806233  1
  O  O550  1  0.67740232  0.68763012  0.69878064  1
  O  O551  1  0.67643991  0.68642077  0.94885918  1
  O  O552  1  0.32411757  0.31365768  0.04988034  1
  O  O553  1  0.32373434  0.31465836  0.30137218  1
  O  O554  1  0.32283187  0.31368637  0.55208402  1
  O  O555  1  0.32344609  0.31332048  0.79919703  1
  O  O556  1  0.32281889  0.64613604  0.05078245  1
  O  O557  1  0.32244384  0.64713317  0.30107853  1
  O  O558  1  0.32523863  0.64599471  0.54973176  1
  O  O559  1  0.32356235  0.64801170  0.80144849  1
  O  O560  1  0.32290199  0.98081654  0.04994174  1
  O  O561  1  0.32418553  0.97995868  0.30038089  1
  O  O562  1  0.32398721  0.97818966  0.55123758  1
  O  O563  1  0.32285085  0.97904357  0.79970877  1
  O  O564  1  0.82134778  0.31394816  0.05134374  1
  O  O565  1  0.82139221  0.31307858  0.30178468  1
  O  O566  1  0.82258141  0.31215228  0.54985436  1
  O  O567  1  0.82316285  0.31167232  0.80029677  1
  O  O568  1  0.82332930  0.64684149  0.04938209  1
  O  O569  1  0.82172253  0.64737583  0.30173039  1
  O  O570  1  0.82384646  0.64682718  0.54869122  1
  O  O571  1  0.82174098  0.64768587  0.80105299  1
  O  O572  1  0.82075027  0.98106746  0.05221601  1
  O  O573  1  0.82135700  0.98137104  0.30152486  1
  O  O574  1  0.82160173  0.98068281  0.55110358  1
  O  O575  1  0.82338903  0.98069812  0.79946022  1
  O  O576  1  0.42641107  0.14671466  0.17438825  1
  O  O577  1  0.42672192  0.14518194  0.42573054  1
  O  O578  1  0.42955908  0.14774141  0.67595604  1
  O  O579  1  0.42718349  0.14774952  0.92397465  1
  O  O580  1  0.42653916  0.48027932  0.17426939  1
  O  O581  1  0.42798114  0.47901947  0.42623019  1
  O  O582  1  0.42902213  0.48052780  0.67681773  1
  O  O583  1  0.42687626  0.47933831  0.92370495  1
  O  O584  1  0.42697424  0.81462467  0.17501155  1
  O  O585  1  0.42638439  0.81356280  0.42538209  1
  O  O586  1  0.42917287  0.81472856  0.67758863  1
  O  O587  1  0.42831433  0.81395847  0.92539627  1
  O  O588  1  0.92595175  0.14653531  0.17480792  1
  O  O589  1  0.92540394  0.14651875  0.42591913  1
  O  O590  1  0.92841561  0.14729927  0.67745233  1
  O  O591  1  0.92698920  0.14696710  0.92697164  1
  O  O592  1  0.92506817  0.47944297  0.17538106  1
  O  O593  1  0.92660381  0.47870065  0.42577313  1
  O  O594  1  0.92669756  0.48156903  0.67551559  1
  O  O595  1  0.92629560  0.48102965  0.92603468  1
  O  O596  1  0.92542508  0.81321370  0.17524665  1
  O  O597  1  0.92791294  0.81352595  0.42740868  1
  O  O598  1  0.92596514  0.81324244  0.67427645  1
  O  O599  1  0.92529683  0.81343695  0.92436333  1
  O  O600  1  0.07285427  0.18507759  0.07418680  1
  O  O601  1  0.07361060  0.18646566  0.32647432  1
  O  O602  1  0.07276046  0.18779460  0.57564152  1
  O  O603  1  0.07238448  0.18502674  0.82415855  1
  O  O604  1  0.07234832  0.51797824  0.07398610  1
  O  O605  1  0.07289663  0.51962043  0.32641491  1
  O  O606  1  0.07384796  0.52063132  0.57462619  1
  O  O607  1  0.07306582  0.51830697  0.82340186  1
  O  O608  1  0.07272296  0.85397663  0.07415222  1
  O  O609  1  0.07362203  0.85264400  0.32542041  1
  O  O610  1  0.07308418  0.85230969  0.57513285  1
  O  O611  1  0.07258265  0.85458105  0.82566308  1
  O  O612  1  0.57158859  0.18627146  0.07163906  1
  O  O613  1  0.57359447  0.18597095  0.32501281  1
  O  O614  1  0.57379012  0.18795491  0.57498030  1
  O  O615  1  0.57194216  0.18632448  0.82251829  1
  O  O616  1  0.57365327  0.52134636  0.07386622  1
  O  O617  1  0.57395617  0.51962869  0.32468408  1
  O  O618  1  0.57484216  0.52044533  0.57643614  1
  O  O619  1  0.57116784  0.51970264  0.82396150  1
  O  O620  1  0.57328923  0.85207365  0.07265945  1
  O  O621  1  0.57322555  0.85219452  0.32370181  1
  O  O622  1  0.57345658  0.85512985  0.57527334  1
  O  O623  1  0.57228971  0.85319758  0.82266089  1
  O  O624  1  0.32409718  0.18666475  0.05007394  1
  O  O625  1  0.32345242  0.18742183  0.30086832  1
  O  O626  1  0.32238613  0.18630944  0.55142951  1
  O  O627  1  0.32347644  0.18653740  0.79897457  1
  O  O628  1  0.32326330  0.51909185  0.05058051  1
  O  O629  1  0.32316747  0.51979094  0.30191463  1
  O  O630  1  0.32481772  0.51935409  0.54961951  1
  O  O631  1  0.32335424  0.52070622  0.80035645  1
  O  O632  1  0.32261087  0.85358307  0.05029152  1
  O  O633  1  0.32407450  0.85312140  0.29889291  1
  O  O634  1  0.32389797  0.85094615  0.55144753  1
  O  O635  1  0.32335731  0.85203107  0.80179325  1
  O  O636  1  0.82095570  0.18666067  0.05219984  1
  O  O637  1  0.82240991  0.18592659  0.30055135  1
  O  O638  1  0.82349683  0.18529759  0.55043889  1
  O  O639  1  0.82283870  0.18469619  0.80173583  1
  O  O640  1  0.82290971  0.52023362  0.04931559  1
  O  O641  1  0.82266946  0.51971982  0.30117639  1
  O  O642  1  0.82391440  0.52011324  0.54906052  1
  O  O643  1  0.82120394  0.52005555  0.80150224  1
  O  O644  1  0.82183186  0.85354995  0.05151219  1
  O  O645  1  0.82288264  0.85428442  0.30155648  1
  O  O646  1  0.82230245  0.85347227  0.55088436  1
  O  O647  1  0.82386048  0.85412546  0.79932886  1
  O  O648  1  0.17696002  0.14583520  0.20038667  1
  O  O649  1  0.17609251  0.14647664  0.45098856  1
  O  O650  1  0.17736775  0.14778673  0.69893177  1
  O  O651  1  0.17630765  0.14663534  0.95089085  1
  O  O652  1  0.17674700  0.48170859  0.20003853  1
  O  O653  1  0.17825135  0.47987686  0.44943792  1
  O  O654  1  0.17763278  0.47984311  0.69888097  1
  O  O655  1  0.17566573  0.48016276  0.94976063  1
  O  O656  1  0.17546790  0.81253271  0.20078015  1
  O  O657  1  0.17756428  0.81202133  0.44981183  1
  O  O658  1  0.17723594  0.81414576  0.69982264  1
  O  O659  1  0.17771892  0.81354549  0.94862294  1
  O  O660  1  0.67663223  0.14678282  0.19835797  1
  O  O661  1  0.67706647  0.14646251  0.44843711  1
  O  O662  1  0.67793193  0.14700984  0.69757769  1
  O  O663  1  0.67673943  0.14835234  0.94865205  1
  O  O664  1  0.67645779  0.47878672  0.20013975  1
  O  O665  1  0.67746713  0.47954223  0.44835851  1
  O  O666  1  0.67686961  0.48019151  0.70006132  1
  O  O667  1  0.67663194  0.48125052  0.94863805  1
  O  O668  1  0.67694432  0.81506691  0.19973376  1
  O  O669  1  0.67730831  0.81437146  0.44832131  1
  O  O670  1  0.67680428  0.81472200  0.69901310  1
  O  O671  1  0.67683187  0.81346466  0.94911207  1
