# generated using pymatgen
data_Na2MnFe(PO4)2
_symmetry_space_group_name_H-M   'P 1'
_cell_length_a   22.34141084
_cell_length_b   20.09472923
_cell_length_c   19.44970833
_cell_angle_alpha   89.95152506
_cell_angle_beta   89.96614058
_cell_angle_gamma   90.02807110
_symmetry_Int_Tables_number   1
_chemical_formula_structural   Na2MnFe(PO4)2
_chemical_formula_sum   'Na96 Mn48 Fe48 P96 O384'
_cell_volume   8731.83585509
_cell_formula_units_Z   48
loop_
 _symmetry_equiv_pos_site_id
 _symmetry_equiv_pos_as_xyz
  1  'x, y, z'
loop_
 _atom_site_type_symbol
 _atom_site_label
 _atom_site_symmetry_multiplicity
 _atom_site_fract_x
 _atom_site_fract_y
 _atom_site_fract_z
 _atom_site_occupancy
  Na  Na0  1  0.14009675  0.25101258  0.24281532  1
  Na  Na1  1  0.14055381  0.24852471  0.49340687  1
  Na  Na2  1  0.14093266  0.24984694  0.74455427  1
  Na  Na3  1  0.14043647  0.25133204  0.99341211  1
  Na  Na4  1  0.13961202  0.58455884  0.24196352  1
  Na  Na5  1  0.14031800  0.58348958  0.49480914  1
  Na  Na6  1  0.14070329  0.58407103  0.74488376  1
  Na  Na7  1  0.14046169  0.58330094  0.99240025  1
  Na  Na8  1  0.14060684  0.91729177  0.24413725  1
  Na  Na9  1  0.14017718  0.91689335  0.49528654  1
  Na  Na10  1  0.14049261  0.91609870  0.74253991  1
  Na  Na11  1  0.14056163  0.91544416  0.99242362  1
  Na  Na12  1  0.64029199  0.24988344  0.24401462  1
  Na  Na13  1  0.64061325  0.25018850  0.49346935  1
  Na  Na14  1  0.64055164  0.25022823  0.74504087  1
  Na  Na15  1  0.64093040  0.24942370  0.99259146  1
  Na  Na16  1  0.63965739  0.58360161  0.24267540  1
  Na  Na17  1  0.64005228  0.58371737  0.49243081  1
  Na  Na18  1  0.64058958  0.58375243  0.74490763  1
  Na  Na19  1  0.64024629  0.58414448  0.99298636  1
  Na  Na20  1  0.64066017  0.91637023  0.24408997  1
  Na  Na21  1  0.64006347  0.91686624  0.49366601  1
  Na  Na22  1  0.64032343  0.91734204  0.74451596  1
  Na  Na23  1  0.64090859  0.91626454  0.99325006  1
  Na  Na24  1  0.35938621  0.08320275  0.00563514  1
  Na  Na25  1  0.35953624  0.08315404  0.25558379  1
  Na  Na26  1  0.35913447  0.08183839  0.50721927  1
  Na  Na27  1  0.35928087  0.08324944  0.75610451  1
  Na  Na28  1  0.35987949  0.41737531  0.00554267  1
  Na  Na29  1  0.35989992  0.41788655  0.25560352  1
  Na  Na30  1  0.35927815  0.41644757  0.50674999  1
  Na  Na31  1  0.35885973  0.41717446  0.75677984  1
  Na  Na32  1  0.36023422  0.74896760  0.00593409  1
  Na  Na33  1  0.35949694  0.75034716  0.25572244  1
  Na  Na34  1  0.35937289  0.74941738  0.50819501  1
  Na  Na35  1  0.36001947  0.74910450  0.75724929  1
  Na  Na36  1  0.85935218  0.08250050  0.00576685  1
  Na  Na37  1  0.85945886  0.08400739  0.25631240  1
  Na  Na38  1  0.85958481  0.08262444  0.50585709  1
  Na  Na39  1  0.85926789  0.08307012  0.75701799  1
  Na  Na40  1  0.85999128  0.41633854  0.00732758  1
  Na  Na41  1  0.85996676  0.41671086  0.25657124  1
  Na  Na42  1  0.85952776  0.41578768  0.50460487  1
  Na  Na43  1  0.85908298  0.41558943  0.75766803  1
  Na  Na44  1  0.86033200  0.75010652  0.00728404  1
  Na  Na45  1  0.85962411  0.74958838  0.25535423  1
  Na  Na46  1  0.85916956  0.75043461  0.50533146  1
  Na  Na47  1  0.85989731  0.75063564  0.75795311  1
  Na  Na48  1  0.10941514  0.08421192  0.11854510  1
  Na  Na49  1  0.10983134  0.08309948  0.36884992  1
  Na  Na50  1  0.11034778  0.08272288  0.61855102  1
  Na  Na51  1  0.10988101  0.08293480  0.86769551  1
  Na  Na52  1  0.10930658  0.41790825  0.11792079  1
  Na  Na53  1  0.10914604  0.41699836  0.36740655  1
  Na  Na54  1  0.10991298  0.41721761  0.61959635  1
  Na  Na55  1  0.11007510  0.41724640  0.86929233  1
  Na  Na56  1  0.10978819  0.74917133  0.11705801  1
  Na  Na57  1  0.10963622  0.74970797  0.36915637  1
  Na  Na58  1  0.10990031  0.75181726  0.61939211  1
  Na  Na59  1  0.11027059  0.75053712  0.86821566  1
  Na  Na60  1  0.60988676  0.08277243  0.11790947  1
  Na  Na61  1  0.60942044  0.08188308  0.36919978  1
  Na  Na62  1  0.61000649  0.08443148  0.61866235  1
  Na  Na63  1  0.61001905  0.08325687  0.86835911  1
  Na  Na64  1  0.60964058  0.41742346  0.11852827  1
  Na  Na65  1  0.60955130  0.41679705  0.36823422  1
  Na  Na66  1  0.60982250  0.41796008  0.61873501  1
  Na  Na67  1  0.61027381  0.41843572  0.86881238  1
  Na  Na68  1  0.60997497  0.74874488  0.11805202  1
  Na  Na69  1  0.60930806  0.74886769  0.36828237  1
  Na  Na70  1  0.60951052  0.75116475  0.61969832  1
  Na  Na71  1  0.61005994  0.75060038  0.87013367  1
  Na  Na72  1  0.39065431  0.25025366  0.12976944  1
  Na  Na73  1  0.39056751  0.24915051  0.38163954  1
  Na  Na74  1  0.39013931  0.25043716  0.63126647  1
  Na  Na75  1  0.38996020  0.25089348  0.88218649  1
  Na  Na76  1  0.39039729  0.58286777  0.12994087  1
  Na  Na77  1  0.39020917  0.58226300  0.38085973  1
  Na  Na78  1  0.38980664  0.58470747  0.63217440  1
  Na  Na79  1  0.39013273  0.58484550  0.88179393  1
  Na  Na80  1  0.39019255  0.91463770  0.13073263  1
  Na  Na81  1  0.38993818  0.91556195  0.38220067  1
  Na  Na82  1  0.39013023  0.91618541  0.63237681  1
  Na  Na83  1  0.39024758  0.91528346  0.88152414  1
  Na  Na84  1  0.89041347  0.25098087  0.13143634  1
  Na  Na85  1  0.89046484  0.24975741  0.38060954  1
  Na  Na86  1  0.88990295  0.24860038  0.63174397  1
  Na  Na87  1  0.88985369  0.25019310  0.88243269  1
  Na  Na88  1  0.89074639  0.58294432  0.13131973  1
  Na  Na89  1  0.89022699  0.58273563  0.37949665  1
  Na  Na90  1  0.88986565  0.58414498  0.63119863  1
  Na  Na91  1  0.89079969  0.58318432  0.88347365  1
  Na  Na92  1  0.89043913  0.91541106  0.13131854  1
  Na  Na93  1  0.88972281  0.91685766  0.38098836  1
  Na  Na94  1  0.88994687  0.91721939  0.63140875  1
  Na  Na95  1  0.89038443  0.91584971  0.88191268  1
  Mn  Mn96  1  -0.00109871  0.83422791  0.49951635  1
  Mn  Mn97  1  -0.00031768  0.33340123  0.75034300  1
  Mn  Mn98  1  0.00023448  -0.00063588  -0.00041844  1
  Mn  Mn99  1  0.50001941  0.16757484  0.74933465  1
  Mn  Mn100  1  0.50052139  0.33346167  0.24934456  1
  Mn  Mn101  1  0.00058601  0.16593618  0.75052973  1
  Mn  Mn102  1  0.49998313  0.16553768  0.25055250  1
  Mn  Mn103  1  0.00023239  0.16570667  0.50041742  1
  Mn  Mn104  1  0.24980629  0.33352680  0.37517660  1
  Mn  Mn105  1  0.75069800  0.66691061  0.87522873  1
  Mn  Mn106  1  0.49969751  0.16659190  0.50002500  1
  Mn  Mn107  1  0.24948619  0.33307776  0.62559942  1
  Mn  Mn108  1  -0.00029918  0.66702687  0.49999604  1
  Mn  Mn109  1  -0.00031021  0.50036342  0.49942559  1
  Mn  Mn110  1  0.24996026  0.66713619  0.12431229  1
  Mn  Mn111  1  0.50065102  0.33441369  0.00024877  1
  Mn  Mn112  1  0.49947907  -0.00022881  0.75059104  1
  Mn  Mn113  1  0.25022992  0.16572335  0.37436843  1
  Mn  Mn114  1  0.49945876  0.50230487  0.74891027  1
  Mn  Mn115  1  0.49952430  0.83274175  0.50036834  1
  Mn  Mn116  1  0.49993943  -0.00082598  -0.00025634  1
  Mn  Mn117  1  0.74936457  0.50013167  0.12505322  1
  Mn  Mn118  1  0.50028966  0.33485322  0.75063022  1
  Mn  Mn119  1  0.25013632  0.16706995  0.12450294  1
  Mn  Mn120  1  0.24943958  -0.00064215  0.12427708  1
  Mn  Mn121  1  0.74931156  0.33269095  0.12492262  1
  Mn  Mn122  1  0.50041132  0.83091851  0.25102622  1
  Mn  Mn123  1  0.25017922  -0.00052993  0.87446128  1
  Mn  Mn124  1  0.75018055  0.83388692  0.62527001  1
  Mn  Mn125  1  0.74996241  0.66668905  0.62499662  1
  Mn  Mn126  1  0.75006448  0.49936313  0.62476521  1
  Mn  Mn127  1  -0.00063381  0.50021613  0.75084934  1
  Mn  Mn128  1  -0.00033984  0.16745858  -0.00027442  1
  Mn  Mn129  1  0.74976698  0.16652325  0.37501180  1
  Mn  Mn130  1  0.00023370  0.00024163  0.24952884  1
  Mn  Mn131  1  0.49938635  -0.00169582  0.24915465  1
  Mn  Mn132  1  0.00024896  0.66786656  0.75098533  1
  Mn  Mn133  1  0.24946482  0.83430465  0.37626468  1
  Mn  Mn134  1  0.74921604  0.33245214  0.62578892  1
  Mn  Mn135  1  0.74975498  0.66704296  0.37440116  1
  Mn  Mn136  1  0.24930189  0.50069491  0.37549245  1
  Mn  Mn137  1  0.00010234  0.33297758  0.49936038  1
  Mn  Mn138  1  0.25079964  0.33465755  0.12373368  1
  Mn  Mn139  1  0.75019957  -0.00008287  0.12479915  1
  Mn  Mn140  1  0.00075730  0.83232874  0.25008997  1
  Mn  Mn141  1  0.49988714  0.50048846  0.50006395  1
  Mn  Mn142  1  0.75038620  0.00059670  0.62525699  1
  Mn  Mn143  1  0.24965089  0.66720489  0.37527662  1
  Fe  Fe144  1  0.24998076  0.83335900  0.12470692  1
  Fe  Fe145  1  0.50025815  0.16654483  -0.00011843  1
  Fe  Fe146  1  0.00036588  0.66663803  -0.00014097  1
  Fe  Fe147  1  0.50022881  0.50118920  -0.00035311  1
  Fe  Fe148  1  -0.00038224  -0.00056439  0.75000937  1
  Fe  Fe149  1  0.75010266  0.83339659  0.87590151  1
  Fe  Fe150  1  0.25024133  0.16637855  0.62501181  1
  Fe  Fe151  1  0.25044407  0.50023784  0.87458673  1
  Fe  Fe152  1  -0.00003957  0.33346012  0.24969855  1
  Fe  Fe153  1  0.25009517  -0.00048571  0.62554465  1
  Fe  Fe154  1  0.75041957  0.83372269  0.12519072  1
  Fe  Fe155  1  0.75007714  0.16622896  0.12472295  1
  Fe  Fe156  1  0.75017110  0.66683657  0.12469016  1
  Fe  Fe157  1  0.49982271  0.66660822  0.50018633  1
  Fe  Fe158  1  -0.00021424  0.16699213  0.24954153  1
  Fe  Fe159  1  0.50027072  0.66656467  0.00010102  1
  Fe  Fe160  1  0.25019078  0.33359871  0.87435583  1
  Fe  Fe161  1  0.25005489  0.16649066  0.87457197  1
  Fe  Fe162  1  0.24982900  0.50040778  0.12384362  1
  Fe  Fe163  1  0.00082830  0.83313476  -0.00006402  1
  Fe  Fe164  1  0.49980565  0.50003057  0.24978902  1
  Fe  Fe165  1  0.74993872  -0.00002692  0.87557976  1
  Fe  Fe166  1  0.49984710  0.33372457  0.49970351  1
  Fe  Fe167  1  -0.00021632  0.00013361  0.49995667  1
  Fe  Fe168  1  0.25022504  -0.00040592  0.37561235  1
  Fe  Fe169  1  0.24957978  0.50027658  0.62632815  1
  Fe  Fe170  1  0.50029398  0.83320438  0.75049184  1
  Fe  Fe171  1  0.00040944  0.50028533  0.24896476  1
  Fe  Fe172  1  0.24983317  0.66644129  0.62624176  1
  Fe  Fe173  1  0.74975516  0.00013267  0.37480123  1
  Fe  Fe174  1  0.75082977  0.50016622  0.87544871  1
  Fe  Fe175  1  0.75018813  0.33282492  0.87544839  1
  Fe  Fe176  1  0.75019929  0.33294666  0.37484050  1
  Fe  Fe177  1  -0.00002653  0.49977405  0.00105566  1
  Fe  Fe178  1  0.74994854  0.16621514  0.87507488  1
  Fe  Fe179  1  0.74956425  0.83337153  0.37441483  1
  Fe  Fe180  1  0.74986908  0.16672457  0.62546627  1
  Fe  Fe181  1  -0.00015810  0.66624505  0.24863343  1
  Fe  Fe182  1  0.49985674  -0.00057622  0.50041902  1
  Fe  Fe183  1  0.25040034  0.83277140  0.62546962  1
  Fe  Fe184  1  0.50068373  0.66785803  0.75104758  1
  Fe  Fe185  1  0.74972788  0.50010779  0.37439482  1
  Fe  Fe186  1  -0.00026390  0.83378689  0.75000266  1
  Fe  Fe187  1  0.25014408  0.66676021  0.87466866  1
  Fe  Fe188  1  0.49949440  0.66526202  0.24922511  1
  Fe  Fe189  1  0.00060765  0.33388594  0.00119504  1
  Fe  Fe190  1  0.50040444  0.83217503  0.00039372  1
  Fe  Fe191  1  0.25041005  0.83261103  0.87400635  1
  P  P192  1  0.04219887  0.25152879  0.10332864  1
  P  P193  1  0.04168401  0.24968721  0.35110625  1
  P  P194  1  0.04301243  0.24970058  0.60314617  1
  P  P195  1  0.04277114  0.25052666  0.85395108  1
  P  P196  1  0.04141782  0.58354813  0.10174736  1
  P  P197  1  0.04139220  0.58381448  0.35060855  1
  P  P198  1  0.04251288  0.58387515  0.60348927  1
  P  P199  1  0.04240612  0.58368213  0.85461735  1
  P  P200  1  0.04267248  0.91543133  0.10210217  1
  P  P201  1  0.04268485  0.91699004  0.35326016  1
  P  P202  1  0.04144826  0.91821354  0.60320457  1
  P  P203  1  0.04175234  0.91612236  0.85166185  1
  P  P204  1  0.54271462  0.24896511  0.10215044  1
  P  P205  1  0.54258012  0.24996547  0.35354696  1
  P  P206  1  0.54238552  0.25192610  0.60214354  1
  P  P207  1  0.54244692  0.25034902  0.85382893  1
  P  P208  1  0.54171167  0.58336954  0.10204546  1
  P  P209  1  0.54126549  0.58311433  0.35160567  1
  P  P210  1  0.54243762  0.58573273  0.60266503  1
  P  P211  1  0.54215012  0.58538929  0.85328825  1
  P  P212  1  0.54248959  0.91428918  0.10233643  1
  P  P213  1  0.54245001  0.91586702  0.35373270  1
  P  P214  1  0.54203308  0.91740020  0.60306544  1
  P  P215  1  0.54204840  0.91482810  0.85319905  1
  P  P216  1  0.45732423  0.08293305  0.14594255  1
  P  P217  1  0.45737432  0.08118505  0.39790591  1
  P  P218  1  0.45734370  0.08312346  0.64649243  1
  P  P219  1  0.45788495  0.08424719  0.89756327  1
  P  P220  1  0.45816614  0.41853347  0.14680549  1
  P  P221  1  0.45755651  0.41590149  0.39722898  1
  P  P222  1  0.45697779  0.41735044  0.64645212  1
  P  P223  1  0.45804751  0.41915932  0.89760080  1
  P  P224  1  0.45804275  0.74769932  0.14684819  1
  P  P225  1  0.45708812  0.74754838  0.39774091  1
  P  P226  1  0.45862393  0.75010173  0.64892531  1
  P  P227  1  0.45896942  0.74984444  0.89815024  1
  P  P228  1  0.95746205  0.08480022  0.14726130  1
  P  P229  1  0.95777875  0.08240880  0.39696238  1
  P  P230  1  0.95774974  0.08162274  0.64764646  1
  P  P231  1  0.95753170  0.08269174  0.89644255  1
  P  P232  1  0.95884386  0.41673077  0.14784542  1
  P  P233  1  0.95765326  0.41662500  0.39530299  1
  P  P234  1  0.95656775  0.41680782  0.64709406  1
  P  P235  1  0.95877626  0.41648225  0.89953954  1
  P  P236  1  0.95850289  0.74849554  0.14623642  1
  P  P237  1  0.95691905  0.74957501  0.39597157  1
  P  P238  1  0.95717689  0.75185595  0.64801852  1
  P  P239  1  0.95903019  0.75049708  0.89852517  1
  P  P240  1  0.20706669  0.08303888  0.22792933  1
  P  P241  1  0.20811937  0.08155037  0.47830142  1
  P  P242  1  0.20899403  0.08346865  0.72684739  1
  P  P243  1  0.20750158  0.08409961  0.97665433  1
  P  P244  1  0.20754019  0.41856015  0.22650321  1
  P  P245  1  0.20663906  0.41689000  0.47892487  1
  P  P246  1  0.20782521  0.41797600  0.72879745  1
  P  P247  1  0.20909134  0.41734146  0.97613421  1
  P  P248  1  0.20734462  0.75175693  0.22710746  1
  P  P249  1  0.20720257  0.75011889  0.47975694  1
  P  P250  1  0.20904893  0.75002406  0.72756656  1
  P  P251  1  0.20923460  0.75011444  0.97636346  1
  P  P252  1  0.70772832  0.08406099  0.22740299  1
  P  P253  1  0.70755663  0.08223982  0.47769011  1
  P  P254  1  0.70783391  0.08491644  0.72846458  1
  P  P255  1  0.70860812  0.08329873  0.97688416  1
  P  P256  1  0.70724655  0.41653651  0.22883320  1
  P  P257  1  0.70850463  0.41638589  0.47609419  1
  P  P258  1  0.70729379  0.41659928  0.72945919  1
  P  P259  1  0.70908035  0.41673202  0.97656471  1
  P  P260  1  0.70874032  0.75049901  0.22642483  1
  P  P261  1  0.70724349  0.75134272  0.47704602  1
  P  P262  1  0.70781616  0.75042113  0.72901360  1
  P  P263  1  0.70872842  0.75099946  0.97863178  1
  P  P264  1  0.29284586  0.25037045  0.02017685  1
  P  P265  1  0.29309402  0.25061548  0.27159823  1
  P  P266  1  0.29216181  0.24859024  0.52273154  1
  P  P267  1  0.29152341  0.24955179  0.77297403  1
  P  P268  1  0.29190370  0.58232536  0.02118544  1
  P  P269  1  0.29213639  0.58387113  0.27142049  1
  P  P270  1  0.29095120  0.58316974  0.52451256  1
  P  P271  1  0.29140416  0.58351806  0.77300410  1
  P  P272  1  0.29215539  0.91469445  0.02158268  1
  P  P273  1  0.29239239  0.91764383  0.27261895  1
  P  P274  1  0.29139658  0.91643002  0.52406484  1
  P  P275  1  0.29230203  0.91495436  0.77162739  1
  P  P276  1  0.79190265  0.24827412  0.02190527  1
  P  P277  1  0.79208295  0.25075437  0.27225940  1
  P  P278  1  0.79204262  0.24877430  0.52258323  1
  P  P279  1  0.79147709  0.24930804  0.77373964  1
  P  P280  1  0.79202508  0.58422028  0.02245017  1
  P  P281  1  0.79154129  0.58271583  0.27166224  1
  P  P282  1  0.79227008  0.58302864  0.52101930  1
  P  P283  1  0.79317248  0.58210287  0.77307461  1
  P  P284  1  0.79223380  0.91536048  0.02205267  1
  P  P285  1  0.79136472  0.91651836  0.27289532  1
  P  P286  1  0.79235126  0.91695983  0.52100402  1
  P  P287  1  0.79126101  0.91685142  0.77418561  1
  O  O288  1  0.03650320  0.25116124  0.18319022  1
  O  O289  1  0.03676467  0.24941349  0.43113992  1
  O  O290  1  0.03806665  0.24950022  0.68312724  1
  O  O291  1  0.03771836  0.25100373  0.93392593  1
  O  O292  1  0.03652056  0.58348147  0.18165591  1
  O  O293  1  0.03648414  0.58350071  0.43059727  1
  O  O294  1  0.03754555  0.58398198  0.68348049  1
  O  O295  1  0.03713813  0.58378888  0.93452833  1
  O  O296  1  0.03770464  0.91568560  0.18203055  1
  O  O297  1  0.03719474  0.91748532  0.43317848  1
  O  O298  1  0.03598396  0.91790437  0.68311841  1
  O  O299  1  0.03710131  0.91560357  0.93168532  1
  O  O300  1  0.53772863  0.24902682  0.18216939  1
  O  O301  1  0.53715170  0.25059038  0.43346990  1
  O  O302  1  0.53735300  0.25178429  0.68215067  1
  O  O303  1  0.53725224  0.24961271  0.93377815  1
  O  O304  1  0.53628133  0.58301669  0.18193306  1
  O  O305  1  0.53636904  0.58342862  0.43155136  1
  O  O306  1  0.53743635  0.58607741  0.68262542  1
  O  O307  1  0.53679828  0.58472265  0.93318793  1
  O  O308  1  0.53734702  0.91431467  0.18230580  1
  O  O309  1  0.53706632  0.91657906  0.43368553  1
  O  O310  1  0.53685633  0.91677423  0.68304223  1
  O  O311  1  0.53676807  0.91453004  0.93312514  1
  O  O312  1  0.46279091  0.08354160  0.06598873  1
  O  O313  1  0.46239764  0.08127666  0.31788428  1
  O  O314  1  0.46262321  0.08240593  0.56656069  1
  O  O315  1  0.46276946  0.08419551  0.81754928  1
  O  O316  1  0.46371385  0.41883403  0.06688063  1
  O  O317  1  0.46290003  0.41658480  0.31726704  1
  O  O318  1  0.46213067  0.41655352  0.56649570  1
  O  O319  1  0.46288487  0.41909599  0.81763322  1
  O  O320  1  0.46357415  0.74828703  0.06698178  1
  O  O321  1  0.46222843  0.74727534  0.31779312  1
  O  O322  1  0.46328913  0.74978031  0.56897840  1
  O  O323  1  0.46428667  0.75030984  0.81828059  1
  O  O324  1  0.96256961  0.08458373  0.06730639  1
  O  O325  1  0.96305055  0.08355777  0.31701881  1
  O  O326  1  0.96277742  0.08160840  0.56764257  1
  O  O327  1  0.96285593  0.08198367  0.81651180  1
  O  O328  1  0.96382757  0.41681522  0.06791933  1
  O  O329  1  0.96325413  0.41647003  0.31541061  1
  O  O330  1  0.96166689  0.41669148  0.56708617  1
  O  O331  1  0.96308887  0.41683453  0.81955330  1
  O  O332  1  0.96419445  0.74888402  0.06638131  1
  O  O333  1  0.96237147  0.74880235  0.31604701  1
  O  O334  1  0.96182871  0.75169959  0.56801423  1
  O  O335  1  0.96379669  0.75125503  0.81852572  1
  O  O336  1  0.21262583  0.08370828  0.05658653  1
  O  O337  1  0.21224614  0.08246810  0.30788403  1
  O  O338  1  0.21350505  0.08199678  0.55818388  1
  O  O339  1  0.21402132  0.08351311  0.80680097  1
  O  O340  1  0.21392572  0.41755952  0.05609660  1
  O  O341  1  0.21208609  0.41817167  0.30650984  1
  O  O342  1  0.21177773  0.41704455  0.55890203  1
  O  O343  1  0.21385842  0.41776882  0.80860384  1
  O  O344  1  0.21384249  0.75040540  0.05633673  1
  O  O345  1  0.21213283  0.75139868  0.30710535  1
  O  O346  1  0.21258912  0.74989177  0.55963629  1
  O  O347  1  0.21408057  0.74998930  0.80747228  1
  O  O348  1  0.71345676  0.08323999  0.05683716  1
  O  O349  1  0.71295283  0.08332305  0.30732061  1
  O  O350  1  0.71277669  0.08292566  0.55760708  1
  O  O351  1  0.71306267  0.08466693  0.80833739  1
  O  O352  1  0.71348148  0.41638828  0.05658279  1
  O  O353  1  0.71265065  0.41669423  0.30868961  1
  O  O354  1  0.71307630  0.41600094  0.55615629  1
  O  O355  1  0.71297512  0.41683792  0.80931155  1
  O  O356  1  0.71416647  0.75062224  0.05847154  1
  O  O357  1  0.71345645  0.75060014  0.30643777  1
  O  O358  1  0.71247715  0.75081426  0.55700684  1
  O  O359  1  0.71324470  0.75075193  0.80895462  1
  O  O360  1  0.28827572  0.25089154  0.19157693  1
  O  O361  1  0.28696909  0.24890174  0.44277578  1
  O  O362  1  0.28640260  0.24933598  0.69299030  1
  O  O363  1  0.28748801  0.25017144  0.94028334  1
  O  O364  1  0.28720570  0.58374889  0.19145038  1
  O  O365  1  0.28613050  0.58374245  0.44452295  1
  O  O366  1  0.28627330  0.58372736  0.69315263  1
  O  O367  1  0.28666195  0.58244241  0.94133350  1
  O  O368  1  0.28720673  0.91689890  0.19267079  1
  O  O369  1  0.28675956  0.91735240  0.44409233  1
  O  O370  1  0.28685727  0.91504001  0.69179050  1
  O  O371  1  0.28704877  0.91464057  0.94161508  1
  O  O372  1  0.78712561  0.25019367  0.19235129  1
  O  O373  1  0.78689402  0.24944553  0.44265161  1
  O  O374  1  0.78650085  0.24946109  0.69377671  1
  O  O375  1  0.78655938  0.24855225  0.94202783  1
  O  O376  1  0.78621167  0.58360008  0.19174495  1
  O  O377  1  0.78676404  0.58285770  0.44106976  1
  O  O378  1  0.78804342  0.58239167  0.69310053  1
  O  O379  1  0.78721310  0.58349386  0.94246889  1
  O  O380  1  0.78640600  0.91628946  0.19288082  1
  O  O381  1  0.78700979  0.91698984  0.44112243  1
  O  O382  1  0.78667827  0.91736967  0.69417867  1
  O  O383  1  0.78681118  0.91547767  0.94222248  1
  O  O384  1  0.22864187  0.25075974  0.05602718  1
  O  O385  1  0.22855899  0.25015949  0.30647256  1
  O  O386  1  0.22787248  0.24828178  0.55844081  1
  O  O387  1  0.22743007  0.24921768  0.80906736  1
  O  O388  1  0.22776620  0.58237326  0.05741476  1
  O  O389  1  0.22767041  0.58401110  0.30657043  1
  O  O390  1  0.22678181  0.58264026  0.56034832  1
  O  O391  1  0.22741488  0.58304348  0.80940029  1
  O  O392  1  0.22781909  0.91453412  0.05725063  1
  O  O393  1  0.22808509  0.91840947  0.30846471  1
  O  O394  1  0.22724723  0.91531756  0.55995485  1
  O  O395  1  0.22811661  0.91492540  0.80772012  1
  O  O396  1  0.72768515  0.24781717  0.05796524  1
  O  O397  1  0.72782183  0.25098228  0.30795379  1
  O  O398  1  0.72770693  0.24817851  0.55835035  1
  O  O399  1  0.72735252  0.24906685  0.80977137  1
  O  O400  1  0.72766283  0.58465291  0.05781266  1
  O  O401  1  0.72739221  0.58250706  0.30765798  1
  O  O402  1  0.72799677  0.58319660  0.55667528  1
  O  O403  1  0.72878018  0.58210528  0.80848597  1
  O  O404  1  0.72810720  0.91536003  0.05825399  1
  O  O405  1  0.72726174  0.91660739  0.30911412  1
  O  O406  1  0.72818612  0.91711746  0.55694895  1
  O  O407  1  0.72701414  0.91626309  0.80975428  1
  O  O408  1  0.27141772  0.08290903  0.19254108  1
  O  O409  1  0.27226044  0.08144421  0.44200299  1
  O  O410  1  0.27303245  0.08404718  0.69067820  1
  O  O411  1  0.27186134  0.08423007  0.94112829  1
  O  O412  1  0.27208435  0.41917271  0.19141172  1
  O  O413  1  0.27109606  0.41697840  0.44369641  1
  O  O414  1  0.27176878  0.41803819  0.69208659  1
  O  O415  1  0.27319058  0.41748867  0.94012167  1
  O  O416  1  0.27179888  0.75163321  0.19179747  1
  O  O417  1  0.27144755  0.75029809  0.44395948  1
  O  O418  1  0.27310129  0.75046400  0.69128217  1
  O  O419  1  0.27338567  0.75045409  0.94044429  1
  O  O420  1  0.77203160  0.08440317  0.19162027  1
  O  O421  1  0.77178249  0.08187180  0.44179037  1
  O  O422  1  0.77206355  0.08521689  0.69241246  1
  O  O423  1  0.77277199  0.08367185  0.94096850  1
  O  O424  1  0.77144098  0.41639572  0.19298808  1
  O  O425  1  0.77269176  0.41687431  0.44032223  1
  O  O426  1  0.77143679  0.41603333  0.69340963  1
  O  O427  1  0.77341242  0.41701326  0.94123954  1
  O  O428  1  0.77294112  0.75060182  0.19052689  1
  O  O429  1  0.77152630  0.75159573  0.44133602  1
  O  O430  1  0.77209990  0.75013952  0.69349633  1
  O  O431  1  0.77281359  0.75130358  0.94234687  1
  O  O432  1  0.02181716  0.08504093  0.18262752  1
  O  O433  1  0.02201688  0.08158521  0.43284244  1
  O  O434  1  0.02211745  0.08133115  0.68307828  1
  O  O435  1  0.02183034  0.08329374  0.93176895  1
  O  O436  1  0.02285924  0.41618984  0.18402844  1
  O  O437  1  0.02180055  0.41673084  0.43127694  1
  O  O438  1  0.02108641  0.41696786  0.68197184  1
  O  O439  1  0.02311417  0.41608113  0.93490341  1
  O  O440  1  0.02259458  0.74798788  0.18247896  1
  O  O441  1  0.02116404  0.75035546  0.43155947  1
  O  O442  1  0.02171897  0.75217319  0.68304117  1
  O  O443  1  0.02329831  0.74992870  0.93420021  1
  O  O444  1  0.52160510  0.08246682  0.18142908  1
  O  O445  1  0.52172959  0.08148159  0.43326849  1
  O  O446  1  0.52165277  0.08311603  0.68185032  1
  O  O447  1  0.52225442  0.08368686  0.93273160  1
  O  O448  1  0.52231491  0.41851097  0.18276660  1
  O  O449  1  0.52181680  0.41568955  0.43308201  1
  O  O450  1  0.52141006  0.41812746  0.68154843  1
  O  O451  1  0.52243299  0.41908839  0.93289888  1
  O  O452  1  0.52216161  0.74695694  0.18309009  1
  O  O453  1  0.52148090  0.74814033  0.43316691  1
  O  O454  1  0.52286115  0.75016624  0.68481702  1
  O  O455  1  0.52295482  0.74957111  0.93467960  1
  O  O456  1  0.47839849  0.24961146  0.06686270  1
  O  O457  1  0.47836355  0.24988398  0.31792692  1
  O  O458  1  0.47799780  0.25194722  0.56681749  1
  O  O459  1  0.47813381  0.25070143  0.81846618  1
  O  O460  1  0.47770074  0.58358627  0.06553176  1
  O  O461  1  0.47709831  0.58314962  0.31555113  1
  O  O462  1  0.47798761  0.58511535  0.56737489  1
  O  O463  1  0.47799827  0.58622988  0.81716866  1
  O  O464  1  0.47816865  0.91443297  0.06688834  1
  O  O465  1  0.47814340  0.91500464  0.31834294  1
  O  O466  1  0.47774721  0.91761697  0.56733719  1
  O  O467  1  0.47782568  0.91479254  0.81739825  1
  O  O468  1  0.97805296  0.25209410  0.06716785  1
  O  O469  1  0.97743072  0.24990994  0.31539170  1
  O  O470  1  0.97852145  0.24946481  0.56828252  1
  O  O471  1  0.97835981  0.24976538  0.81884589  1
  O  O472  1  0.97733981  0.58413398  0.06568650  1
  O  O473  1  0.97724815  0.58409224  0.31472113  1
  O  O474  1  0.97804521  0.58367965  0.56848661  1
  O  O475  1  0.97813792  0.58413087  0.81904847  1
  O  O476  1  0.97826331  0.91501123  0.06689214  1
  O  O477  1  0.97845561  0.91638635  0.31768454  1
  O  O478  1  0.97736996  0.91885115  0.56685830  1
  O  O479  1  0.97736756  0.91611228  0.81620915  1
  O  O480  1  0.07339817  0.31495887  0.07483865  1
  O  O481  1  0.07265639  0.31339357  0.32317264  1
  O  O482  1  0.07383992  0.31329150  0.57493066  1
  O  O483  1  0.07358965  0.31395753  0.82530403  1
  O  O484  1  0.07317100  0.64659704  0.07321275  1
  O  O485  1  0.07253619  0.64738718  0.32265484  1
  O  O486  1  0.07326709  0.64758945  0.57533290  1
  O  O487  1  0.07392665  0.64689917  0.82607797  1
  O  O488  1  0.07341099  0.97930035  0.07417674  1
  O  O489  1  0.07373295  0.98029172  0.32460300  1
  O  O490  1  0.07275311  0.98144662  0.57455188  1
  O  O491  1  0.07231463  0.98007684  0.82355403  1
  O  O492  1  0.57432709  0.31252219  0.07468541  1
  O  O493  1  0.57398288  0.31302386  0.32476662  1
  O  O494  1  0.57310996  0.31548438  0.57363297  1
  O  O495  1  0.57345094  0.31422765  0.82633573  1
  O  O496  1  0.57283608  0.64695188  0.07384271  1
  O  O497  1  0.57236888  0.64648410  0.32296699  1
  O  O498  1  0.57296075  0.64915239  0.57351771  1
  O  O499  1  0.57355057  0.64877062  0.82511885  1
  O  O500  1  0.57373044  0.97790388  0.07455634  1
  O  O501  1  0.57344186  0.97905752  0.32474817  1
  O  O502  1  0.57277581  0.98108586  0.57474485  1
  O  O503  1  0.57289342  0.97885733  0.82575726  1
  O  O504  1  0.42618845  0.01909161  0.17344498  1
  O  O505  1  0.42692030  0.01755908  0.42664207  1
  O  O506  1  0.42582169  0.02019541  0.67539944  1
  O  O507  1  0.42634377  0.02063930  0.92495200  1
  O  O508  1  0.42712737  0.35456208  0.17410681  1
  O  O509  1  0.42680690  0.35222641  0.42554173  1
  O  O510  1  0.42598423  0.35418506  0.67559344  1
  O  O511  1  0.42700537  0.35550194  0.92544684  1
  O  O512  1  0.42665313  0.68439098  0.17515970  1
  O  O513  1  0.42650718  0.68414324  0.42689402  1
  O  O514  1  0.42768022  0.68670442  0.67769770  1
  O  O515  1  0.42783105  0.68621660  0.92623458  1
  O  O516  1  0.92652581  0.02088514  0.17477603  1
  O  O517  1  0.92680473  0.01879616  0.42500288  1
  O  O518  1  0.92651593  0.01852222  0.67663494  1
  O  O519  1  0.92659974  0.01931237  0.92518171  1
  O  O520  1  0.92717335  0.35355431  0.17621469  1
  O  O521  1  0.92644458  0.35321598  0.42380961  1
  O  O522  1  0.92573404  0.35318694  0.67549853  1
  O  O523  1  0.92768983  0.35294507  0.92762109  1
  O  O524  1  0.92726553  0.68513110  0.17469855  1
  O  O525  1  0.92594875  0.68625953  0.42481461  1
  O  O526  1  0.92642993  0.68814387  0.67622186  1
  O  O527  1  0.92791535  0.68677656  0.92630653  1
  O  O528  1  0.17556335  0.02004197  0.19921487  1
  O  O529  1  0.17740534  0.01797869  0.44972467  1
  O  O530  1  0.17893913  0.01911209  0.69887031  1
  O  O531  1  0.17655715  0.02034648  0.94886775  1
  O  O532  1  0.17698419  0.35478120  0.19834410  1
  O  O533  1  0.17591552  0.35320075  0.45060795  1
  O  O534  1  0.17641510  0.35441109  0.70113748  1
  O  O535  1  0.17881342  0.35325076  0.94788952  1
  O  O536  1  0.17625410  0.68831451  0.19887269  1
  O  O537  1  0.17600340  0.68685398  0.45098762  1
  O  O538  1  0.17862589  0.68599576  0.69932688  1
  O  O539  1  0.17912233  0.68587259  0.94826169  1
  O  O540  1  0.67652686  0.02066105  0.19915994  1
  O  O541  1  0.67686764  0.01862236  0.44928608  1
  O  O542  1  0.67675610  0.02126124  0.70046106  1
  O  O543  1  0.67856346  0.01899774  0.94870435  1
  O  O544  1  0.67589340  0.35327751  0.20036795  1
  O  O545  1  0.67825333  0.35240439  0.44779893  1
  O  O546  1  0.67571594  0.35331618  0.70131193  1
  O  O547  1  0.67869212  0.35279784  0.94833017  1
  O  O548  1  0.67838300  0.68645647  0.19821623  1
  O  O549  1  0.67618624  0.68775144  0.44909083  1
  O  O550  1  0.67678323  0.68676395  0.70114185  1
  O  O551  1  0.67749064  0.68753041  0.95046732  1
  O  O552  1  0.32428926  0.31376810  0.04826263  1
  O  O553  1  0.32376142  0.31420281  0.30001069  1
  O  O554  1  0.32309856  0.31225193  0.55061842  1
  O  O555  1  0.32165958  0.31387541  0.80087502  1
  O  O556  1  0.32317092  0.64584800  0.04914510  1
  O  O557  1  0.32302705  0.64744775  0.29974768  1
  O  O558  1  0.32128092  0.64706384  0.55310168  1
  O  O559  1  0.32171975  0.64747504  0.80168990  1
  O  O560  1  0.32292830  0.97866225  0.04910492  1
  O  O561  1  0.32335817  0.98111352  0.30093382  1
  O  O562  1  0.32153542  0.98019462  0.55317595  1
  O  O563  1  0.32351749  0.97856754  0.79953720  1
  O  O564  1  0.82279145  0.31202780  0.04994127  1
  O  O565  1  0.82261713  0.31446414  0.30076861  1
  O  O566  1  0.82304663  0.31223433  0.55089565  1
  O  O567  1  0.82172963  0.31336564  0.80225141  1
  O  O568  1  0.82270384  0.64789008  0.05076710  1
  O  O569  1  0.82306913  0.64600171  0.29960518  1
  O  O570  1  0.82326251  0.64673253  0.54899970  1
  O  O571  1  0.82438192  0.64565273  0.80088020  1
  O  O572  1  0.82351343  0.97893783  0.04997056  1
  O  O573  1  0.82193483  0.98054002  0.30070303  1
  O  O574  1  0.82366149  0.98016664  0.54971727  1
  O  O575  1  0.82139173  0.98086545  0.80264089  1
  O  O576  1  0.42616179  0.14609481  0.17465991  1
  O  O577  1  0.42617051  0.14487281  0.42534432  1
  O  O578  1  0.42663227  0.14709630  0.67402200  1
  O  O579  1  0.42770669  0.14797242  0.92624707  1
  O  O580  1  0.42714491  0.48168039  0.17570377  1
  O  O581  1  0.42636011  0.47935645  0.42538139  1
  O  O582  1  0.42588149  0.48105694  0.67406867  1
  O  O583  1  0.42745178  0.48274993  0.92597751  1
  O  O584  1  0.42725675  0.81132437  0.17530827  1
  O  O585  1  0.42588200  0.81114986  0.42558525  1
  O  O586  1  0.42814286  0.81403398  0.67703339  1
  O  O587  1  0.42808838  0.81334619  0.92684031  1
  O  O588  1  0.92672469  0.14824512  0.17580495  1
  O  O589  1  0.92684305  0.14586603  0.42552542  1
  O  O590  1  0.92705957  0.14555756  0.67538312  1
  O  O591  1  0.92618399  0.14616145  0.92406346  1
  O  O592  1  0.92862766  0.48083380  0.17625036  1
  O  O593  1  0.92642495  0.48005785  0.42343922  1
  O  O594  1  0.92553269  0.48017268  0.67541548  1
  O  O595  1  0.92854619  0.48038570  0.92816684  1
  O  O596  1  0.92747297  0.81207607  0.17438361  1
  O  O597  1  0.92560241  0.81312595  0.42355830  1
  O  O598  1  0.92644486  0.81531884  0.67662595  1
  O  O599  1  0.92849098  0.81406847  0.92735632  1
  O  O600  1  0.07321880  0.18798618  0.07512708  1
  O  O601  1  0.07225025  0.18585383  0.32302974  1
  O  O602  1  0.07410269  0.18631344  0.57483408  1
  O  O603  1  0.07404217  0.18706648  0.82597382  1
  O  O604  1  0.07156990  0.51945373  0.07321686  1
  O  O605  1  0.07181287  0.51997989  0.32211197  1
  O  O606  1  0.07351363  0.52050463  0.57518579  1
  O  O607  1  0.07319953  0.52011593  0.82626244  1
  O  O608  1  0.07358303  0.85204557  0.07359667  1
  O  O609  1  0.07407129  0.85347064  0.32558815  1
  O  O610  1  0.07229013  0.85445546  0.57523425  1
  O  O611  1  0.07268755  0.85276572  0.82291188  1
  O  O612  1  0.57279334  0.18516581  0.07343311  1
  O  O613  1  0.57346792  0.18604298  0.32609775  1
  O  O614  1  0.57332865  0.18815866  0.57454067  1
  O  O615  1  0.57362465  0.18726444  0.82492047  1
  O  O616  1  0.57268366  0.51987156  0.07342374  1
  O  O617  1  0.57175987  0.51917646  0.32352658  1
  O  O618  1  0.57364515  0.52211237  0.57486230  1
  O  O619  1  0.57287114  0.52182688  0.82469200  1
  O  O620  1  0.57308636  0.85069901  0.07398800  1
  O  O621  1  0.57371841  0.85221552  0.32619598  1
  O  O622  1  0.57314680  0.85390998  0.57493881  1
  O  O623  1  0.57311415  0.85173441  0.82427476  1
  O  O624  1  0.32381546  0.18696384  0.04881652  1
  O  O625  1  0.32424652  0.18712613  0.29958132  1
  O  O626  1  0.32304817  0.18504350  0.55088943  1
  O  O627  1  0.32297844  0.18636778  0.80135066  1
  O  O628  1  0.32264956  0.51889398  0.05009656  1
  O  O629  1  0.32320455  0.52061878  0.30015878  1
  O  O630  1  0.32214017  0.51960317  0.55226003  1
  O  O631  1  0.32305752  0.52032294  0.80116650  1
  O  O632  1  0.32306641  0.85148694  0.05062863  1
  O  O633  1  0.32314381  0.85400660  0.30110578  1
  O  O634  1  0.32291741  0.85291446  0.55165205  1
  O  O635  1  0.32332500  0.85165808  0.80044614  1
  O  O636  1  0.82291402  0.18496451  0.05073728  1
  O  O637  1  0.82334240  0.18741219  0.30053947  1
  O  O638  1  0.82267770  0.18505746  0.55096454  1
  O  O639  1  0.82299355  0.18609528  0.80181977  1
  O  O640  1  0.82311539  0.52077804  0.05076638  1
  O  O641  1  0.82212758  0.51887996  0.29971867  1
  O  O642  1  0.82354242  0.51974077  0.54926520  1
  O  O643  1  0.82377965  0.51855959  0.80176778  1
  O  O644  1  0.82318710  0.85209041  0.05102211  1
  O  O645  1  0.82230565  0.85291533  0.30106189  1
  O  O646  1  0.82348584  0.85351761  0.54948665  1
  O  O647  1  0.82251325  0.85335328  0.80201092  1
  O  O648  1  0.17639137  0.14690613  0.20001651  1
  O  O649  1  0.17685044  0.14500744  0.44998227  1
  O  O650  1  0.17737289  0.14658039  0.69859746  1
  O  O651  1  0.17670407  0.14762996  0.94841581  1
  O  O652  1  0.17674041  0.48199925  0.19782283  1
  O  O653  1  0.17540208  0.48013570  0.45039185  1
  O  O654  1  0.17683364  0.48146817  0.70042774  1
  O  O655  1  0.17767642  0.48061520  0.94799687  1
  O  O656  1  0.17698760  0.81545734  0.19857628  1
  O  O657  1  0.17599955  0.81355979  0.45147628  1
  O  O658  1  0.17758377  0.81322071  0.69912164  1
  O  O659  1  0.17774322  0.81314214  0.94770252  1
  O  O660  1  0.67717129  0.14778041  0.19901955  1
  O  O661  1  0.67629306  0.14563485  0.44953662  1
  O  O662  1  0.67699606  0.14826750  0.69940355  1
  O  O663  1  0.67702871  0.14630682  0.94851011  1
  O  O664  1  0.67607206  0.47989035  0.20018473  1
  O  O665  1  0.67742257  0.48005781  0.44824980  1
  O  O666  1  0.67631681  0.48002660  0.70072641  1
  O  O667  1  0.67814768  0.48045627  0.94875151  1
  O  O668  1  0.67758825  0.81392071  0.19816916  1
  O  O669  1  0.67648211  0.81486577  0.44872724  1
  O  O670  1  0.67660628  0.81370741  0.70063230  1
  O  O671  1  0.67769913  0.81439967  0.95001212  1
