# generated using pymatgen
data_Na2MnFe(PO4)2
_symmetry_space_group_name_H-M   'P 1'
_cell_length_a   22.34289901
_cell_length_b   20.09282359
_cell_length_c   19.44848335
_cell_angle_alpha   89.98878741
_cell_angle_beta   89.96767417
_cell_angle_gamma   90.01283547
_symmetry_Int_Tables_number   1
_chemical_formula_structural   Na2MnFe(PO4)2
_chemical_formula_sum   'Na96 Mn48 Fe48 P96 O384'
_cell_volume   8731.04335760
_cell_formula_units_Z   48
loop_
 _symmetry_equiv_pos_site_id
 _symmetry_equiv_pos_as_xyz
  1  'x, y, z'
loop_
 _atom_site_type_symbol
 _atom_site_label
 _atom_site_symmetry_multiplicity
 _atom_site_fract_x
 _atom_site_fract_y
 _atom_site_fract_z
 _atom_site_occupancy
  Na  Na0  1  0.14050811  0.25108402  0.24369565  1
  Na  Na1  1  0.14102679  0.24996248  0.49416425  1
  Na  Na2  1  0.14073142  0.24967891  0.74401757  1
  Na  Na3  1  0.14056320  0.24973556  0.99312701  1
  Na  Na4  1  0.14009602  0.58332100  0.24315256  1
  Na  Na5  1  0.14061939  0.58333534  0.49348920  1
  Na  Na6  1  0.14090478  0.58243988  0.74467446  1
  Na  Na7  1  0.14064561  0.58172665  0.99352133  1
  Na  Na8  1  0.14041664  0.91867022  0.24328010  1
  Na  Na9  1  0.14004723  0.91821525  0.49451081  1
  Na  Na10  1  0.14014269  0.91760997  0.74247571  1
  Na  Na11  1  0.14039986  0.91637953  0.99288227  1
  Na  Na12  1  0.64045180  0.25154244  0.24393261  1
  Na  Na13  1  0.64060534  0.25040695  0.49319443  1
  Na  Na14  1  0.64007532  0.25077918  0.74417377  1
  Na  Na15  1  0.64048434  0.25008143  0.99377983  1
  Na  Na16  1  0.64015787  0.58293371  0.24340030  1
  Na  Na17  1  0.64009268  0.58121721  0.49397348  1
  Na  Na18  1  0.64031558  0.58276563  0.74488544  1
  Na  Na19  1  0.64067919  0.58203145  0.99385337  1
  Na  Na20  1  0.63998310  0.91757304  0.24249435  1
  Na  Na21  1  0.64018343  0.91740987  0.49302295  1
  Na  Na22  1  0.64032515  0.91591736  0.74529385  1
  Na  Na23  1  0.64012018  0.91595861  0.99290052  1
  Na  Na24  1  0.35922227  0.08252872  0.00524241  1
  Na  Na25  1  0.35930513  0.08520737  0.25561766  1
  Na  Na26  1  0.35907146  0.08483909  0.50664242  1
  Na  Na27  1  0.35962018  0.08467494  0.75670290  1
  Na  Na28  1  0.36047608  0.41599183  0.00639648  1
  Na  Na29  1  0.36036342  0.41746814  0.25745379  1
  Na  Na30  1  0.35970964  0.41772577  0.50672142  1
  Na  Na31  1  0.35965520  0.41629859  0.75819762  1
  Na  Na32  1  0.35935379  0.75001383  0.00615071  1
  Na  Na33  1  0.35950826  0.75202696  0.25624730  1
  Na  Na34  1  0.35896174  0.75098948  0.50602026  1
  Na  Na35  1  0.35893489  0.74988401  0.75684336  1
  Na  Na36  1  0.85963406  0.08251509  0.00622214  1
  Na  Na37  1  0.85975087  0.08412002  0.25689884  1
  Na  Na38  1  0.85974712  0.08259050  0.50469984  1
  Na  Na39  1  0.85954181  0.08263786  0.75702784  1
  Na  Na40  1  0.86031982  0.41477849  0.00724809  1
  Na  Na41  1  0.86009323  0.41603036  0.25681289  1
  Na  Na42  1  0.86018902  0.41577152  0.50473666  1
  Na  Na43  1  0.85979729  0.41614804  0.75725450  1
  Na  Na44  1  0.85940833  0.74842091  0.00572419  1
  Na  Na45  1  0.85914052  0.74988143  0.25617076  1
  Na  Na46  1  0.85902580  0.74912657  0.50564500  1
  Na  Na47  1  0.85939045  0.74983290  0.75634247  1
  Na  Na48  1  0.11001082  0.08449902  0.11852925  1
  Na  Na49  1  0.10970711  0.08342724  0.36835686  1
  Na  Na50  1  0.11018540  0.08283564  0.61900419  1
  Na  Na51  1  0.11000100  0.08324664  0.86705852  1
  Na  Na52  1  0.10983115  0.41616732  0.11959349  1
  Na  Na53  1  0.11036462  0.41630693  0.36750642  1
  Na  Na54  1  0.11042043  0.41549332  0.61958997  1
  Na  Na55  1  0.11040995  0.41620616  0.86911728  1
  Na  Na56  1  0.10955456  0.74880016  0.11889508  1
  Na  Na57  1  0.10916138  0.75023105  0.36826402  1
  Na  Na58  1  0.10944178  0.75100254  0.61898407  1
  Na  Na59  1  0.10985554  0.74993077  0.86813114  1
  Na  Na60  1  0.60959417  0.08426042  0.11843571  1
  Na  Na61  1  0.60986685  0.08393043  0.36699832  1
  Na  Na62  1  0.60972465  0.08462990  0.61908677  1
  Na  Na63  1  0.60966293  0.08411758  0.86921006  1
  Na  Na64  1  0.60996137  0.41704059  0.11949383  1
  Na  Na65  1  0.61023474  0.41736998  0.36852678  1
  Na  Na66  1  0.60991611  0.41690583  0.61984272  1
  Na  Na67  1  0.60973432  0.41571511  0.86892806  1
  Na  Na68  1  0.60954105  0.75091623  0.11760128  1
  Na  Na69  1  0.60881277  0.74956599  0.36814675  1
  Na  Na70  1  0.60917140  0.74885071  0.61988056  1
  Na  Na71  1  0.61001677  0.74947347  0.86896988  1
  Na  Na72  1  0.39016958  0.25151708  0.13097983  1
  Na  Na73  1  0.39022700  0.25230326  0.38175933  1
  Na  Na74  1  0.39017589  0.25145876  0.63301959  1
  Na  Na75  1  0.39003741  0.25027994  0.88157479  1
  Na  Na76  1  0.39066833  0.58333794  0.13114588  1
  Na  Na77  1  0.39005133  0.58310871  0.38120865  1
  Na  Na78  1  0.38985822  0.58253335  0.63220177  1
  Na  Na79  1  0.39015794  0.58271607  0.88235680  1
  Na  Na80  1  0.38994029  0.91696425  0.13061269  1
  Na  Na81  1  0.38994380  0.91748261  0.38071901  1
  Na  Na82  1  0.39030726  0.91847596  0.63129019  1
  Na  Na83  1  0.39011721  0.91732414  0.88143102  1
  Na  Na84  1  0.89084761  0.24929945  0.13223477  1
  Na  Na85  1  0.89032398  0.24875062  0.38064408  1
  Na  Na86  1  0.89038011  0.24893788  0.63103076  1
  Na  Na87  1  0.88998190  0.25049071  0.88212775  1
  Na  Na88  1  0.89071565  0.58100004  0.13182697  1
  Na  Na89  1  0.89022859  0.58209290  0.38024355  1
  Na  Na90  1  0.89020073  0.58266618  0.63146207  1
  Na  Na91  1  0.89054369  0.58250959  0.88164840  1
  Na  Na92  1  0.89017627  0.91605884  0.13150212  1
  Na  Na93  1  0.89011836  0.91719188  0.37991268  1
  Na  Na94  1  0.89017530  0.91679770  0.63096642  1
  Na  Na95  1  0.89038549  0.91573525  0.88068379  1
  Mn  Mn96  1  0.25004899  0.50009655  0.62559143  1
  Mn  Mn97  1  0.00018126  0.83281911  0.24985355  1
  Mn  Mn98  1  0.50012577  0.16801526  0.49970497  1
  Mn  Mn99  1  0.74934491  0.66525397  0.62520836  1
  Mn  Mn100  1  0.74914319  0.66547677  0.37507917  1
  Mn  Mn101  1  -0.00007304  0.16665154  0.74988206  1
  Mn  Mn102  1  0.49938127  0.16838509  0.24893408  1
  Mn  Mn103  1  0.24985624  0.33308377  0.12496458  1
  Mn  Mn104  1  0.00051177  0.33227530  0.49932091  1
  Mn  Mn105  1  -0.00027821  0.16726995  -0.00043808  1
  Mn  Mn106  1  0.49920449  -0.00022771  0.24887858  1
  Mn  Mn107  1  0.50024088  0.00083723  0.49960025  1
  Mn  Mn108  1  0.00041788  0.49859725  0.75072311  1
  Mn  Mn109  1  0.49993623  0.16776805  0.00022462  1
  Mn  Mn110  1  0.74903843  0.83391874  0.37513382  1
  Mn  Mn111  1  0.74967791  0.00033717  0.12439374  1
  Mn  Mn112  1  0.00050178  0.16516796  0.50059739  1
  Mn  Mn113  1  0.74985379  -0.00049086  0.87598683  1
  Mn  Mn114  1  -0.00004738  0.66532863  -0.00038162  1
  Mn  Mn115  1  0.75090281  0.33377401  0.62415608  1
  Mn  Mn116  1  0.75060096  0.33267585  0.12544352  1
  Mn  Mn117  1  0.24900876  0.83564225  0.37617996  1
  Mn  Mn118  1  0.75057148  0.49911373  0.87514158  1
  Mn  Mn119  1  0.00057015  0.66681793  0.75044288  1
  Mn  Mn120  1  0.49969065  0.66674050  0.24963556  1
  Mn  Mn121  1  0.50046464  0.33495465  0.50140721  1
  Mn  Mn122  1  0.49973948  0.83324840  0.50004783  1
  Mn  Mn123  1  -0.00026156  0.66645123  0.50004005  1
  Mn  Mn124  1  0.49907475  0.66560821  0.75030199  1
  Mn  Mn125  1  0.74948565  -0.00006171  0.62528203  1
  Mn  Mn126  1  0.25014264  0.16781190  0.37573363  1
  Mn  Mn127  1  0.00052599  -0.00011651  -0.00036808  1
  Mn  Mn128  1  0.49908809  0.66538150  0.49931326  1
  Mn  Mn129  1  0.75016211  0.66618337  0.12497357  1
  Mn  Mn130  1  -0.00080560  0.83418669  0.49861987  1
  Mn  Mn131  1  0.00048650  0.49919166  0.49985793  1
  Mn  Mn132  1  0.24972363  0.83314486  0.87404765  1
  Mn  Mn133  1  0.00029770  0.83288890  0.00022036  1
  Mn  Mn134  1  0.24910414  0.66735083  0.37500204  1
  Mn  Mn135  1  0.50032632  0.66666749  0.00036987  1
  Mn  Mn136  1  0.25049520  0.49977547  0.12470016  1
  Mn  Mn137  1  0.50096748  0.00112506  0.75047379  1
  Mn  Mn138  1  0.25071063  0.66722821  0.12498549  1
  Mn  Mn139  1  0.24954492  0.00064359  0.12437112  1
  Mn  Mn140  1  0.75014591  0.16661620  0.62467756  1
  Mn  Mn141  1  0.74950513  0.83269847  0.62476803  1
  Mn  Mn142  1  0.49975800  0.83367188  0.75004139  1
  Mn  Mn143  1  0.24992072  0.83400519  0.62524516  1
  Fe  Fe144  1  0.49981548  0.16742947  0.75063866  1
  Fe  Fe145  1  0.00066732  0.49874644  0.00090907  1
  Fe  Fe146  1  0.75028367  0.33337976  0.37462598  1
  Fe  Fe147  1  0.74977087  0.83314103  0.12469087  1
  Fe  Fe148  1  0.24987786  0.16641791  0.87422508  1
  Fe  Fe149  1  0.49987914  0.83369658  0.24911827  1
  Fe  Fe150  1  0.49982375  0.33489754  0.25038390  1
  Fe  Fe151  1  0.25038952  0.33369802  0.37555468  1
  Fe  Fe152  1  0.49982778  0.00040410  -0.00045636  1
  Fe  Fe153  1  0.25025450  0.16753301  0.62551519  1
  Fe  Fe154  1  -0.00053143  0.66557120  0.24938892  1
  Fe  Fe155  1  0.25015053  0.33380104  0.62564840  1
  Fe  Fe156  1  -0.00034366  0.83374785  0.74914384  1
  Fe  Fe157  1  0.74980574  0.16680463  0.37474718  1
  Fe  Fe158  1  0.00024303  0.49929993  0.24956468  1
  Fe  Fe159  1  0.75038857  0.66575137  0.87532968  1
  Fe  Fe160  1  0.75031254  0.49913472  0.12474762  1
  Fe  Fe161  1  0.24978919  0.66655076  0.62537503  1
  Fe  Fe162  1  0.75047688  0.49940944  0.62513058  1
  Fe  Fe163  1  0.25074356  0.49953333  0.87477121  1
  Fe  Fe164  1  0.49993902  0.49977546  0.50044453  1
  Fe  Fe165  1  0.00053892  0.33345971  0.00116622  1
  Fe  Fe166  1  0.24994410  0.00019659  0.87472085  1
  Fe  Fe167  1  0.24986596  0.66636365  0.87551732  1
  Fe  Fe168  1  0.24953367  0.83382541  0.12456825  1
  Fe  Fe169  1  0.50013249  0.49998197  0.24998843  1
  Fe  Fe170  1  0.74969175  0.16660748  0.87538118  1
  Fe  Fe171  1  -0.00046531  -0.00029618  0.74953518  1
  Fe  Fe172  1  0.25020304  0.50041155  0.37567871  1
  Fe  Fe173  1  0.25018118  0.16686406  0.12418977  1
  Fe  Fe174  1  0.24994102  0.00147590  0.37475771  1
  Fe  Fe175  1  0.75020528  0.33283538  0.87548536  1
  Fe  Fe176  1  0.74995225  0.00056138  0.37397569  1
  Fe  Fe177  1  -0.00026254  -0.00009345  0.49975022  1
  Fe  Fe178  1  0.50010286  0.49948525  0.75120496  1
  Fe  Fe179  1  0.25049034  0.33250351  0.87507134  1
  Fe  Fe180  1  0.50035424  0.33406630  -0.00006046  1
  Fe  Fe181  1  0.00015844  0.33278498  0.24985786  1
  Fe  Fe182  1  0.75010583  0.83227608  0.87501402  1
  Fe  Fe183  1  -0.00017608  0.33331414  0.75093175  1
  Fe  Fe184  1  0.75010609  0.16694422  0.12560804  1
  Fe  Fe185  1  0.75040730  0.49948608  0.37461907  1
  Fe  Fe186  1  0.00050476  0.16625005  0.24966104  1
  Fe  Fe187  1  0.25031049  0.00113606  0.62499412  1
  Fe  Fe188  1  0.50029505  0.49939472  0.00076533  1
  Fe  Fe189  1  0.49937360  0.83371941  -0.00025378  1
  Fe  Fe190  1  0.00027544  -0.00002055  0.24990640  1
  Fe  Fe191  1  0.49984977  0.33394540  0.75081598  1
  P  P192  1  0.04224525  0.25090942  0.10333019  1
  P  P193  1  0.04163264  0.24943848  0.35124635  1
  P  P194  1  0.04303621  0.24957560  0.60358753  1
  P  P195  1  0.04203223  0.25142089  0.85308855  1
  P  P196  1  0.04223305  0.58121016  0.10324189  1
  P  P197  1  0.04154287  0.58291868  0.35109750  1
  P  P198  1  0.04306679  0.58281617  0.60330714  1
  P  P199  1  0.04302692  0.58218277  0.85391321  1
  P  P200  1  0.04295424  0.91684699  0.10354146  1
  P  P201  1  0.04228511  0.91801837  0.35229275  1
  P  P202  1  0.04158437  0.91795144  0.60269045  1
  P  P203  1  0.04178635  0.91646273  0.85087023  1
  P  P204  1  0.54208914  0.25273623  0.10284433  1
  P  P205  1  0.54219857  0.25237722  0.35220019  1
  P  P206  1  0.54278091  0.25072510  0.60441419  1
  P  P207  1  0.54112825  0.25063364  0.85228978  1
  P  P208  1  0.54231052  0.58178661  0.10289811  1
  P  P209  1  0.54204082  0.58187734  0.35243247  1
  P  P210  1  0.54176140  0.58137939  0.60308954  1
  P  P211  1  0.54201090  0.58141262  0.85353160  1
  P  P212  1  0.54116902  0.91682333  0.10115482  1
  P  P213  1  0.54213357  0.91574499  0.35154902  1
  P  P214  1  0.54310178  0.91735879  0.60307010  1
  P  P215  1  0.54236886  0.91686567  0.85442640  1
  P  P216  1  0.45706201  0.08379805  0.14567787  1
  P  P217  1  0.45697668  0.08432310  0.39635185  1
  P  P218  1  0.45776894  0.08552109  0.64793826  1
  P  P219  1  0.45813223  0.08347807  0.89736953  1
  P  P220  1  0.45847234  0.41724168  0.14786937  1
  P  P221  1  0.45806583  0.41831706  0.39747052  1
  P  P222  1  0.45837596  0.41731221  0.64933824  1
  P  P223  1  0.45875869  0.41678193  0.89820908  1
  P  P224  1  0.45781784  0.75166796  0.14674504  1
  P  P225  1  0.45660005  0.75011907  0.39618236  1
  P  P226  1  0.45646519  0.74962060  0.64704554  1
  P  P227  1  0.45753521  0.75075806  0.89785505  1
  P  P228  1  0.95870598  0.08290907  0.14837624  1
  P  P229  1  0.95837197  0.08184962  0.39643594  1
  P  P230  1  0.95739359  0.08168701  0.64734837  1
  P  P231  1  0.95743145  0.08298303  0.89622542  1
  P  P232  1  0.95893223  0.41571786  0.14802634  1
  P  P233  1  0.95820881  0.41595636  0.39547223  1
  P  P234  1  0.95765964  0.41467780  0.64788456  1
  P  P235  1  0.95877836  0.41592296  0.89902979  1
  P  P236  1  0.95748468  0.74789337  0.14736418  1
  P  P237  1  0.95683057  0.74917756  0.39579779  1
  P  P238  1  0.95743147  0.75107162  0.64741442  1
  P  P239  1  0.95764139  0.75009776  0.89628551  1
  P  P240  1  0.20793697  0.08558891  0.22719990  1
  P  P241  1  0.20783090  0.08290195  0.47815806  1
  P  P242  1  0.20902541  0.08389826  0.72712314  1
  P  P243  1  0.20809783  0.08354455  0.97610026  1
  P  P244  1  0.20805961  0.41700660  0.22915345  1
  P  P245  1  0.20875163  0.41651845  0.47725069  1
  P  P246  1  0.20853084  0.41527407  0.72878043  1
  P  P247  1  0.20945445  0.41584146  0.97626070  1
  P  P248  1  0.20763519  0.75203900  0.22736224  1
  P  P249  1  0.20649120  0.75063693  0.47887417  1
  P  P250  1  0.20783928  0.74853984  0.72783663  1
  P  P251  1  0.20759697  0.74909247  0.97755038  1
  P  P252  1  0.70780528  0.08499044  0.22793912  1
  P  P253  1  0.70807383  0.08340809  0.47594001  1
  P  P254  1  0.70726876  0.08388392  0.72900124  1
  P  P255  1  0.70783413  0.08471773  0.97818835  1
  P  P256  1  0.70856543  0.41761191  0.22802421  1
  P  P257  1  0.70895544  0.41666548  0.47651158  1
  P  P258  1  0.70837940  0.41730501  0.72772422  1
  P  P259  1  0.70819644  0.41488346  0.97794141  1
  P  P260  1  0.70732753  0.75109988  0.22698419  1
  P  P261  1  0.70622636  0.74917425  0.47799868  1
  P  P262  1  0.70720681  0.74916020  0.72920204  1
  P  P263  1  0.70864728  0.74914007  0.97691655  1
  P  P264  1  0.29196336  0.24856103  0.02138185  1
  P  P265  1  0.29250040  0.25170585  0.27266429  1
  P  P266  1  0.29164073  0.25122166  0.52381173  1
  P  P267  1  0.29132334  0.24994929  0.77276116  1
  P  P268  1  0.29291319  0.58328493  0.02097339  1
  P  P269  1  0.29199086  0.58287521  0.27294655  1
  P  P270  1  0.29187382  0.58445662  0.52256840  1
  P  P271  1  0.29148456  0.58374017  0.77352307  1
  P  P272  1  0.29169597  0.91581787  0.02177894  1
  P  P273  1  0.29167712  0.91896893  0.27219388  1
  P  P274  1  0.29219187  0.91919312  0.52256434  1
  P  P275  1  0.29198362  0.91878023  0.77195890  1
  P  P276  1  0.79250813  0.24807518  0.02236994  1
  P  P277  1  0.79147151  0.24969843  0.27309442  1
  P  P278  1  0.79297982  0.24964418  0.52053774  1
  P  P279  1  0.79154605  0.24997714  0.77362668  1
  P  P280  1  0.79240664  0.58154424  0.02235694  1
  P  P281  1  0.79183038  0.58171236  0.27188564  1
  P  P282  1  0.79228682  0.58084795  0.52210064  1
  P  P283  1  0.79278221  0.58368193  0.77260710  1
  P  P284  1  0.79197232  0.91465298  0.02208631  1
  P  P285  1  0.79163072  0.91783520  0.27168796  1
  P  P286  1  0.79225419  0.91705370  0.52118096  1
  P  P287  1  0.79190694  0.91527700  0.77306077  1
  O  O288  1  0.03683939  0.25045779  0.18320985  1
  O  O289  1  0.03699088  0.24869841  0.43123966  1
  O  O290  1  0.03782576  0.24996206  0.68350682  1
  O  O291  1  0.03686492  0.25157061  0.93306910  1
  O  O292  1  0.03650866  0.58164771  0.18314245  1
  O  O293  1  0.03669747  0.58294475  0.43113742  1
  O  O294  1  0.03806111  0.58277309  0.68329649  1
  O  O295  1  0.03778998  0.58152563  0.93386690  1
  O  O296  1  0.03769732  0.91742441  0.18346109  1
  O  O297  1  0.03682126  0.91813522  0.43222885  1
  O  O298  1  0.03607965  0.91753696  0.68259251  1
  O  O299  1  0.03717106  0.91634234  0.93093825  1
  O  O300  1  0.53663588  0.25290149  0.18274130  1
  O  O301  1  0.53740314  0.25213662  0.43221642  1
  O  O302  1  0.53748037  0.25027287  0.68431976  1
  O  O303  1  0.53636477  0.25124418  0.93227228  1
  O  O304  1  0.53685331  0.58204159  0.18281693  1
  O  O305  1  0.53675533  0.58178955  0.43239346  1
  O  O306  1  0.53646186  0.58130048  0.68305774  1
  O  O307  1  0.53690192  0.58144653  0.93348157  1
  O  O308  1  0.53625276  0.91629953  0.18117417  1
  O  O309  1  0.53724673  0.91612568  0.43153855  1
  O  O310  1  0.53810681  0.91751479  0.68309723  1
  O  O311  1  0.53668517  0.91683830  0.93434524  1
  O  O312  1  0.46272244  0.08338404  0.06577536  1
  O  O313  1  0.46169586  0.08427673  0.31631126  1
  O  O314  1  0.46270827  0.08523066  0.56792048  1
  O  O315  1  0.46356776  0.08427949  0.81744733  1
  O  O316  1  0.46375482  0.41707891  0.06795079  1
  O  O317  1  0.46319258  0.41791572  0.31757531  1
  O  O318  1  0.46288299  0.41739103  0.56935712  1
  O  O319  1  0.46386302  0.41694541  0.81832835  1
  O  O320  1  0.46334581  0.75166806  0.06679674  1
  O  O321  1  0.46191407  0.75055826  0.31617544  1
  O  O322  1  0.46156230  0.74934551  0.56706260  1
  O  O323  1  0.46224783  0.75036302  0.81785719  1
  O  O324  1  0.96325244  0.08350931  0.06834088  1
  O  O325  1  0.96400891  0.08239553  0.31657699  1
  O  O326  1  0.96255261  0.08162339  0.56736023  1
  O  O327  1  0.96244528  0.08252299  0.81627380  1
  O  O328  1  0.96426721  0.41583134  0.06810821  1
  O  O329  1  0.96353948  0.41619708  0.31556243  1
  O  O330  1  0.96272458  0.41495076  0.56791016  1
  O  O331  1  0.96352021  0.41543234  0.81902001  1
  O  O332  1  0.96279452  0.74813552  0.06738615  1
  O  O333  1  0.96228686  0.74847477  0.31584994  1
  O  O334  1  0.96241877  0.75086851  0.56737818  1
  O  O335  1  0.96296734  0.75082389  0.81634223  1
  O  O336  1  0.21315154  0.08380529  0.05605163  1
  O  O337  1  0.21301926  0.08520611  0.30710078  1
  O  O338  1  0.21332506  0.08298922  0.55797332  1
  O  O339  1  0.21390143  0.08400906  0.80704247  1
  O  O340  1  0.21409223  0.41604829  0.05626189  1
  O  O341  1  0.21315793  0.41721415  0.30907509  1
  O  O342  1  0.21363771  0.41636761  0.55727047  1
  O  O343  1  0.21406196  0.41544216  0.80860750  1
  O  O344  1  0.21298881  0.75012105  0.05748141  1
  O  O345  1  0.21233955  0.75199164  0.30736360  1
  O  O346  1  0.21182181  0.75005634  0.55880998  1
  O  O347  1  0.21344671  0.74844318  0.80778830  1
  O  O348  1  0.71317582  0.08490609  0.05812072  1
  O  O349  1  0.71325604  0.08441383  0.30783471  1
  O  O350  1  0.71291368  0.08329639  0.55600058  1
  O  O351  1  0.71238287  0.08419429  0.80897682  1
  O  O352  1  0.71332267  0.41522607  0.05784565  1
  O  O353  1  0.71388737  0.41762038  0.30787954  1
  O  O354  1  0.71392068  0.41672391  0.55649229  1
  O  O355  1  0.71347656  0.41656195  0.80763556  1
  O  O356  1  0.71374920  0.74971307  0.05689869  1
  O  O357  1  0.71215622  0.75089181  0.30693385  1
  O  O358  1  0.71139623  0.74896721  0.55797562  1
  O  O359  1  0.71292376  0.74909227  0.80911753  1
  O  O360  1  0.28734722  0.25101900  0.19278055  1
  O  O361  1  0.28673291  0.25143281  0.44383541  1
  O  O362  1  0.28630775  0.25043371  0.69288298  1
  O  O363  1  0.28652011  0.24864481  0.94151164  1
  O  O364  1  0.28738655  0.58291317  0.19291330  1
  O  O365  1  0.28633165  0.58365817  0.44265569  1
  O  O366  1  0.28663045  0.58393076  0.69351475  1
  O  O367  1  0.28766484  0.58325412  0.94107050  1
  O  O368  1  0.28628863  0.91799151  0.19226512  1
  O  O369  1  0.28669944  0.91951854  0.44261904  1
  O  O370  1  0.28683970  0.91901133  0.69202440  1
  O  O371  1  0.28647721  0.91624192  0.94184151  1
  O  O372  1  0.78676541  0.24945945  0.19309940  1
  O  O373  1  0.78770925  0.24964573  0.44065930  1
  O  O374  1  0.78682533  0.25031944  0.69360182  1
  O  O375  1  0.78707464  0.24833275  0.94249553  1
  O  O376  1  0.78671938  0.58164423  0.19194920  1
  O  O377  1  0.78696395  0.58080772  0.44213252  1
  O  O378  1  0.78745744  0.58293943  0.69269028  1
  O  O379  1  0.78713324  0.58239377  0.94242742  1
  O  O380  1  0.78643140  0.91721758  0.19172503  1
  O  O381  1  0.78691137  0.91788265  0.44120127  1
  O  O382  1  0.78667182  0.91567608  0.69311229  1
  O  O383  1  0.78664952  0.91447244  0.94215942  1
  O  O384  1  0.22784937  0.24860484  0.05767280  1
  O  O385  1  0.22824939  0.25223939  0.30859647  1
  O  O386  1  0.22749355  0.25153171  0.55980452  1
  O  O387  1  0.22729974  0.24966332  0.80916027  1
  O  O388  1  0.22869032  0.58355451  0.05668610  1
  O  O389  1  0.22758017  0.58265115  0.30811810  1
  O  O390  1  0.22773765  0.58467525  0.55871615  1
  O  O391  1  0.22739325  0.58380732  0.80955960  1
  O  O392  1  0.22749752  0.91571929  0.05770382  1
  O  O393  1  0.22744158  0.91982850  0.30819179  1
  O  O394  1  0.22799115  0.91899252  0.55852363  1
  O  O395  1  0.22769958  0.91838049  0.80765340  1
  O  O396  1  0.72829666  0.24816483  0.05846162  1
  O  O397  1  0.72734632  0.24955936  0.30904998  1
  O  O398  1  0.72873376  0.25007516  0.55628196  1
  O  O399  1  0.72731992  0.25044387  0.80948613  1
  O  O400  1  0.72817331  0.58142727  0.05818977  1
  O  O401  1  0.72754817  0.58128032  0.30759467  1
  O  O402  1  0.72798172  0.58057149  0.55788840  1
  O  O403  1  0.72857528  0.58404783  0.80856025  1
  O  O404  1  0.72770134  0.91511734  0.05787062  1
  O  O405  1  0.72739884  0.91848868  0.30749160  1
  O  O406  1  0.72791224  0.91658404  0.55660416  1
  O  O407  1  0.72771373  0.91521763  0.80883275  1
  O  O408  1  0.27214295  0.08530643  0.19127679  1
  O  O409  1  0.27195400  0.08289520  0.44182489  1
  O  O410  1  0.27305873  0.08379766  0.69087604  1
  O  O411  1  0.27227563  0.08350609  0.94003322  1
  O  O412  1  0.27227164  0.41647119  0.19338323  1
  O  O413  1  0.27293315  0.41624488  0.44126904  1
  O  O414  1  0.27258867  0.41534954  0.69238991  1
  O  O415  1  0.27365474  0.41555387  0.94062962  1
  O  O416  1  0.27204865  0.75236036  0.19199179  1
  O  O417  1  0.27075406  0.75103317  0.44335746  1
  O  O418  1  0.27196761  0.74878783  0.69171614  1
  O  O419  1  0.27181115  0.74879791  0.94162066  1
  O  O420  1  0.77197594  0.08489581  0.19179261  1
  O  O421  1  0.77236030  0.08350274  0.44022801  1
  O  O422  1  0.77162889  0.08340393  0.69362353  1
  O  O423  1  0.77199811  0.08455062  0.94226235  1
  O  O424  1  0.77270757  0.41765941  0.19183705  1
  O  O425  1  0.77308473  0.41656040  0.44045000  1
  O  O426  1  0.77268638  0.41782383  0.69199048  1
  O  O427  1  0.77250128  0.41447062  0.94226853  1
  O  O428  1  0.77175438  0.75101156  0.19166926  1
  O  O429  1  0.77064666  0.74939136  0.44291317  1
  O  O430  1  0.77130871  0.74905666  0.69310050  1
  O  O431  1  0.77275805  0.74865900  0.94074949  1
  O  O432  1  0.02303429  0.08234127  0.18367866  1
  O  O433  1  0.02240529  0.08108855  0.43290835  1
  O  O434  1  0.02172235  0.08188382  0.68288385  1
  O  O435  1  0.02182999  0.08359897  0.93136320  1
  O  O436  1  0.02292450  0.41542364  0.18439806  1
  O  O437  1  0.02242972  0.41601451  0.43124311  1
  O  O438  1  0.02210488  0.41420692  0.68319261  1
  O  O439  1  0.02306965  0.41638062  0.93478719  1
  O  O440  1  0.02177486  0.74785587  0.18289364  1
  O  O441  1  0.02110563  0.74983520  0.43125984  1
  O  O442  1  0.02180099  0.75160251  0.68282319  1
  O  O443  1  0.02193696  0.74949527  0.93170987  1
  O  O444  1  0.52124055  0.08401045  0.18133248  1
  O  O445  1  0.52158214  0.08443667  0.43097336  1
  O  O446  1  0.52216534  0.08604420  0.68327002  1
  O  O447  1  0.52223376  0.08313569  0.93332959  1
  O  O448  1  0.52253533  0.41716306  0.18428145  1
  O  O449  1  0.52232182  0.41882651  0.43337332  1
  O  O450  1  0.52268728  0.41760281  0.68482500  1
  O  O451  1  0.52284071  0.41653123  0.93454759  1
  O  O452  1  0.52198799  0.75145540  0.18268905  1
  O  O453  1  0.52093257  0.74954604  0.43150026  1
  O  O454  1  0.52088558  0.74936958  0.68212075  1
  O  O455  1  0.52193785  0.75097400  0.93300079  1
  O  O456  1  0.47791143  0.25267459  0.06694447  1
  O  O457  1  0.47780005  0.25271849  0.31689929  1
  O  O458  1  0.47848850  0.25100059  0.56883299  1
  O  O459  1  0.47699961  0.25020406  0.81635750  1
  O  O460  1  0.47815261  0.58209961  0.06703194  1
  O  O461  1  0.47780954  0.58194924  0.31666460  1
  O  O462  1  0.47746909  0.58103786  0.56732457  1
  O  O463  1  0.47768694  0.58105803  0.81792669  1
  O  O464  1  0.47695113  0.91704833  0.06540639  1
  O  O465  1  0.47768052  0.91525154  0.31631115  1
  O  O466  1  0.47857814  0.91753941  0.56824552  1
  O  O467  1  0.47827585  0.91749297  0.81845908  1
  O  O468  1  0.97806827  0.25133605  0.06730241  1
  O  O469  1  0.97746120  0.25007714  0.31554695  1
  O  O470  1  0.97872310  0.24910256  0.56825022  1
  O  O471  1  0.97778886  0.25125400  0.81733022  1
  O  O472  1  0.97817811  0.58056426  0.06694582  1
  O  O473  1  0.97733004  0.58271991  0.31534350  1
  O  O474  1  0.97857668  0.58246972  0.56840685  1
  O  O475  1  0.97875141  0.58248918  0.81852678  1
  O  O476  1  0.97856353  0.91673264  0.06832253  1
  O  O477  1  0.97808083  0.91779940  0.31643808  1
  O  O478  1  0.97749417  0.91843526  0.56635069  1
  O  O479  1  0.97741178  0.91624254  0.81550462  1
  O  O480  1  0.07345726  0.31428425  0.07484695  1
  O  O481  1  0.07292602  0.31300059  0.32366201  1
  O  O482  1  0.07412976  0.31280551  0.57483152  1
  O  O483  1  0.07282750  0.31480952  0.82438179  1
  O  O484  1  0.07325534  0.64484564  0.07510358  1
  O  O485  1  0.07221016  0.64673407  0.32295415  1
  O  O486  1  0.07370729  0.64646780  0.57500571  1
  O  O487  1  0.07410764  0.64582661  0.82611956  1
  O  O488  1  0.07428479  0.97994527  0.07469011  1
  O  O489  1  0.07320975  0.98129618  0.32349880  1
  O  O490  1  0.07272709  0.98137631  0.57429244  1
  O  O491  1  0.07220519  0.98047111  0.82281525  1
  O  O492  1  0.57321352  0.31587321  0.07400210  1
  O  O493  1  0.57299266  0.31594235  0.32389591  1
  O  O494  1  0.57393363  0.31434560  0.57630215  1
  O  O495  1  0.57161988  0.31435596  0.82348258  1
  O  O496  1  0.57366108  0.64541287  0.07516284  1
  O  O497  1  0.57306766  0.64564678  0.32457935  1
  O  O498  1  0.57248383  0.64525186  0.57515709  1
  O  O499  1  0.57257666  0.64536715  0.82556799  1
  O  O500  1  0.57191484  0.98083421  0.07340746  1
  O  O501  1  0.57280180  0.97957177  0.32347470  1
  O  O502  1  0.57410855  0.98087507  0.57477147  1
  O  O503  1  0.57417506  0.98006852  0.82640147  1
  O  O504  1  0.42564757  0.02057455  0.17393917  1
  O  O505  1  0.42626468  0.02073454  0.42476384  1
  O  O506  1  0.42704889  0.02173542  0.67591515  1
  O  O507  1  0.42733637  0.01968960  0.92536101  1
  O  O508  1  0.42742199  0.35373932  0.17643675  1
  O  O509  1  0.42724184  0.35474613  0.42612597  1
  O  O510  1  0.42830665  0.35320005  0.67802289  1
  O  O511  1  0.42774886  0.35307503  0.92635518  1
  O  O512  1  0.42660439  0.68787443  0.17418394  1
  O  O513  1  0.42543739  0.68648776  0.42407263  1
  O  O514  1  0.42533692  0.68625931  0.67545989  1
  O  O515  1  0.42668885  0.68706036  0.92587587  1
  O  O516  1  0.92737510  0.01944287  0.17619706  1
  O  O517  1  0.92691908  0.01865663  0.42483069  1
  O  O518  1  0.92650781  0.01839774  0.67620282  1
  O  O519  1  0.92655270  0.01957368  0.92491787  1
  O  O520  1  0.92754410  0.35230806  0.17627740  1
  O  O521  1  0.92711153  0.35241648  0.42364270  1
  O  O522  1  0.92675412  0.35127336  0.67650428  1
  O  O523  1  0.92811406  0.35234082  0.92773127  1
  O  O524  1  0.92671124  0.68422539  0.17546731  1
  O  O525  1  0.92576212  0.68594685  0.42465031  1
  O  O526  1  0.92678778  0.68718071  0.67527438  1
  O  O527  1  0.92644066  0.68643099  0.92393098  1
  O  O528  1  0.17634727  0.02243765  0.19897435  1
  O  O529  1  0.17697449  0.01967410  0.44899481  1
  O  O530  1  0.17770357  0.02052857  0.69879691  1
  O  O531  1  0.17758450  0.01950714  0.94807605  1
  O  O532  1  0.17659560  0.35377924  0.20067857  1
  O  O533  1  0.17747006  0.35320832  0.44889964  1
  O  O534  1  0.17752215  0.35196552  0.70000912  1
  O  O535  1  0.17825128  0.35225923  0.94858632  1
  O  O536  1  0.17701937  0.68806401  0.19965244  1
  O  O537  1  0.17528206  0.68747080  0.45008678  1
  O  O538  1  0.17696751  0.68514991  0.69932666  1
  O  O539  1  0.17687744  0.68523675  0.94976966  1
  O  O540  1  0.67630228  0.02174894  0.19946907  1
  O  O541  1  0.67733099  0.01978447  0.44758011  1
  O  O542  1  0.67609118  0.02032014  0.70104549  1
  O  O543  1  0.67676931  0.02079761  0.95096800  1
  O  O544  1  0.67744953  0.35391205  0.20019553  1
  O  O545  1  0.67833119  0.35279228  0.44818582  1
  O  O546  1  0.67731139  0.35392664  0.69930659  1
  O  O547  1  0.67747475  0.35133800  0.94932138  1
  O  O548  1  0.67621317  0.68746499  0.19921701  1
  O  O549  1  0.67544290  0.68549146  0.44987928  1
  O  O550  1  0.67581179  0.68579281  0.70090513  1
  O  O551  1  0.67779396  0.68520111  0.94929062  1
  O  O552  1  0.32328956  0.31203279  0.04943172  1
  O  O553  1  0.32341269  0.31517549  0.30113212  1
  O  O554  1  0.32310989  0.31438370  0.55226438  1
  O  O555  1  0.32210880  0.31354364  0.80156930  1
  O  O556  1  0.32425236  0.64653411  0.04957128  1
  O  O557  1  0.32291577  0.64671761  0.30043275  1
  O  O558  1  0.32264425  0.64816164  0.55056054  1
  O  O559  1  0.32283315  0.64690154  0.80198585  1
  O  O560  1  0.32297790  0.97929383  0.04967925  1
  O  O561  1  0.32264859  0.98269194  0.29996814  1
  O  O562  1  0.32330058  0.98234761  0.55134845  1
  O  O563  1  0.32269566  0.98209959  0.80103254  1
  O  O564  1  0.82370610  0.31160399  0.05058954  1
  O  O565  1  0.82174422  0.31387071  0.30102046  1
  O  O566  1  0.82449521  0.31281960  0.54904969  1
  O  O567  1  0.82254649  0.31350061  0.80201958  1
  O  O568  1  0.82386847  0.64475749  0.05063454  1
  O  O569  1  0.82226801  0.64584342  0.29959180  1
  O  O570  1  0.82305625  0.64479076  0.54979031  1
  O  O571  1  0.82360682  0.64723927  0.80090373  1
  O  O572  1  0.82321280  0.97843512  0.04952294  1
  O  O573  1  0.82252191  0.98149812  0.29980363  1
  O  O574  1  0.82332921  0.98022608  0.55008889  1
  O  O575  1  0.82313563  0.97880115  0.80092747  1
  O  O576  1  0.42601825  0.14751513  0.17340183  1
  O  O577  1  0.42603744  0.14785955  0.42456531  1
  O  O578  1  0.42686064  0.14894688  0.67641481  1
  O  O579  1  0.42677234  0.14682781  0.92543280  1
  O  O580  1  0.42758742  0.48090708  0.17621754  1
  O  O581  1  0.42694471  0.48157085  0.42623883  1
  O  O582  1  0.42692442  0.48037486  0.67792414  1
  O  O583  1  0.42796076  0.48030270  0.92693386  1
  O  O584  1  0.42700465  0.81507104  0.17536793  1
  O  O585  1  0.42554929  0.81341642  0.42480521  1
  O  O586  1  0.42572995  0.81339419  0.67489524  1
  O  O587  1  0.42670045  0.81435896  0.92607468  1
  O  O588  1  0.92866414  0.14692758  0.17710871  1
  O  O589  1  0.92762398  0.14559227  0.42477477  1
  O  O590  1  0.92631854  0.14544361  0.67507597  1
  O  O591  1  0.92626087  0.14648660  0.92425862  1
  O  O592  1  0.92825264  0.47948730  0.17641129  1
  O  O593  1  0.92700405  0.47922666  0.42413474  1
  O  O594  1  0.92699120  0.47847269  0.67591281  1
  O  O595  1  0.92792393  0.47967620  0.92702673  1
  O  O596  1  0.92639606  0.81154766  0.17506463  1
  O  O597  1  0.92559560  0.81289516  0.42324479  1
  O  O598  1  0.92648359  0.81456218  0.67567186  1
  O  O599  1  0.92665595  0.81333588  0.92513700  1
  O  O600  1  0.07315195  0.18734909  0.07479977  1
  O  O601  1  0.07186096  0.18551679  0.32258715  1
  O  O602  1  0.07412358  0.18598309  0.57554796  1
  O  O603  1  0.07308052  0.18766863  0.82540215  1
  O  O604  1  0.07354508  0.51782024  0.07494963  1
  O  O605  1  0.07242007  0.51919212  0.32313632  1
  O  O606  1  0.07422431  0.51932640  0.57521961  1
  O  O607  1  0.07419310  0.51892914  0.82535890  1
  O  O608  1  0.07372391  0.85302105  0.07567081  1
  O  O609  1  0.07338013  0.85417629  0.32485751  1
  O  O610  1  0.07259292  0.85436079  0.57442668  1
  O  O611  1  0.07269178  0.85294940  0.82251113  1
  O  O612  1  0.57305902  0.18885261  0.07529741  1
  O  O613  1  0.57295768  0.18866560  0.32416100  1
  O  O614  1  0.57402429  0.18769030  0.57520733  1
  O  O615  1  0.57216589  0.18692921  0.82458632  1
  O  O616  1  0.57309421  0.51830553  0.07441029  1
  O  O617  1  0.57305895  0.51866540  0.32363984  1
  O  O618  1  0.57293098  0.51819149  0.57433904  1
  O  O619  1  0.57325912  0.51826222  0.82486530  1
  O  O620  1  0.57209261  0.85333756  0.07258727  1
  O  O621  1  0.57301159  0.85230322  0.32307669  1
  O  O622  1  0.57385936  0.85367467  0.57511500  1
  O  O623  1  0.57318877  0.85324650  0.82609197  1
  O  O624  1  0.32263904  0.18501324  0.05015079  1
  O  O625  1  0.32348847  0.18820342  0.30096785  1
  O  O626  1  0.32174371  0.18700064  0.55193245  1
  O  O627  1  0.32248551  0.18644487  0.80094452  1
  O  O628  1  0.32394965  0.51978544  0.04935564  1
  O  O629  1  0.32266234  0.51940798  0.30175958  1
  O  O630  1  0.32304503  0.52101416  0.55089775  1
  O  O631  1  0.32171497  0.51942463  0.80145685  1
  O  O632  1  0.32223284  0.85215499  0.05031601  1
  O  O633  1  0.32254820  0.85551720  0.30076765  1
  O  O634  1  0.32317472  0.85525454  0.54996048  1
  O  O635  1  0.32318050  0.85498779  0.79939019  1
  O  O636  1  0.82344866  0.18476547  0.05125750  1
  O  O637  1  0.82274679  0.18643916  0.30146422  1
  O  O638  1  0.82383674  0.18612862  0.54921805  1
  O  O639  1  0.82189491  0.18594465  0.80148610  1
  O  O640  1  0.82281318  0.51757042  0.05035236  1
  O  O641  1  0.82316828  0.51867344  0.30062988  1
  O  O642  1  0.82339002  0.51766921  0.55092350  1
  O  O643  1  0.82400556  0.52020328  0.80072142  1
  O  O644  1  0.82268362  0.85126467  0.05093267  1
  O  O645  1  0.82265997  0.85430079  0.29982237  1
  O  O646  1  0.82330818  0.85326019  0.54869631  1
  O  O647  1  0.82261002  0.85160863  0.80123861  1
  O  O648  1  0.17776659  0.14949672  0.19866103  1
  O  O649  1  0.17665128  0.14662497  0.45031357  1
  O  O650  1  0.17853284  0.14775042  0.69841769  1
  O  O651  1  0.17695444  0.14688486  0.94767770  1
  O  O652  1  0.17715821  0.48039619  0.20031164  1
  O  O653  1  0.17857215  0.48069508  0.44908963  1
  O  O654  1  0.17729611  0.47884719  0.70071827  1
  O  O655  1  0.17910527  0.47976702  0.94793121  1
  O  O656  1  0.17682147  0.81544543  0.19873653  1
  O  O657  1  0.17540322  0.81436674  0.45122481  1
  O  O658  1  0.17675424  0.81246103  0.70060182  1
  O  O659  1  0.17625387  0.81231444  0.94896900  1
  O  O660  1  0.67702502  0.14865978  0.19966377  1
  O  O661  1  0.67726787  0.14721324  0.44805405  1
  O  O662  1  0.67643834  0.14727941  0.70026428  1
  O  O663  1  0.67684489  0.14795532  0.94938524  1
  O  O664  1  0.67763110  0.48084122  0.19891192  1
  O  O665  1  0.67786104  0.48007802  0.44823029  1
  O  O666  1  0.67772729  0.48106225  0.69955974  1
  O  O667  1  0.67712166  0.47837143  0.94987083  1
  O  O668  1  0.67689243  0.81472967  0.19829186  1
  O  O669  1  0.67502474  0.81257659  0.45001491  1
  O  O670  1  0.67591052  0.81255780  0.70100212  1
  O  O671  1  0.67787028  0.81270448  0.94837543  1
