# generated using pymatgen
data_Na2MnFe(PO4)2
_symmetry_space_group_name_H-M   'P 1'
_cell_length_a   22.34339616
_cell_length_b   20.09262806
_cell_length_c   19.44888955
_cell_angle_alpha   90.00357859
_cell_angle_beta   90.00001437
_cell_angle_gamma   89.91622844
_symmetry_Int_Tables_number   1
_chemical_formula_structural   Na2MnFe(PO4)2
_chemical_formula_sum   'Na96 Mn48 Fe48 P96 O384'
_cell_volume   8731.32744638
_cell_formula_units_Z   48
loop_
 _symmetry_equiv_pos_site_id
 _symmetry_equiv_pos_as_xyz
  1  'x, y, z'
loop_
 _atom_site_type_symbol
 _atom_site_label
 _atom_site_symmetry_multiplicity
 _atom_site_fract_x
 _atom_site_fract_y
 _atom_site_fract_z
 _atom_site_occupancy
  Na  Na0  1  0.14091281  0.24919593  0.24355897  1
  Na  Na1  1  0.14104722  0.24888621  0.49288543  1
  Na  Na2  1  0.14080159  0.24913289  0.74341270  1
  Na  Na3  1  0.14067588  0.25042081  0.99370502  1
  Na  Na4  1  0.14014448  0.58379431  0.24334647  1
  Na  Na5  1  0.14108251  0.58310472  0.49319556  1
  Na  Na6  1  0.14066968  0.58328213  0.74359747  1
  Na  Na7  1  0.14042564  0.58456965  0.99505730  1
  Na  Na8  1  0.14068664  0.91636264  0.24410824  1
  Na  Na9  1  0.14084189  0.91559741  0.49301370  1
  Na  Na10  1  0.14088072  0.91591449  0.74405811  1
  Na  Na11  1  0.14072968  0.91742387  0.99502128  1
  Na  Na12  1  0.64044671  0.25157619  0.24351841  1
  Na  Na13  1  0.64038448  0.24969402  0.49473092  1
  Na  Na14  1  0.63989936  0.25028510  0.74260843  1
  Na  Na15  1  0.64005057  0.25241118  0.99302201  1
  Na  Na16  1  0.63934702  0.58304602  0.24171173  1
  Na  Na17  1  0.63984027  0.58217619  0.49390464  1
  Na  Na18  1  0.64008568  0.58271069  0.74385201  1
  Na  Na19  1  0.63932778  0.58469958  0.99349818  1
  Na  Na20  1  0.63980946  0.91636483  0.24373311  1
  Na  Na21  1  0.63981072  0.91729197  0.49420641  1
  Na  Na22  1  0.64019574  0.91634100  0.74460927  1
  Na  Na23  1  0.63958863  0.91701522  0.99351299  1
  Na  Na24  1  0.35944030  0.08325388  0.00614443  1
  Na  Na25  1  0.35945088  0.08229410  0.25660402  1
  Na  Na26  1  0.36007903  0.08195616  0.50679383  1
  Na  Na27  1  0.36004377  0.08265675  0.75742345  1
  Na  Na28  1  0.36040910  0.41749554  0.00727514  1
  Na  Na29  1  0.35944163  0.41740026  0.25632851  1
  Na  Na30  1  0.35932764  0.41719089  0.50579741  1
  Na  Na31  1  0.35993406  0.41635241  0.75673193  1
  Na  Na32  1  0.35997452  0.75099056  0.00878720  1
  Na  Na33  1  0.35998823  0.74982652  0.25788107  1
  Na  Na34  1  0.35942631  0.74893407  0.50639840  1
  Na  Na35  1  0.35966663  0.74997121  0.75685343  1
  Na  Na36  1  0.85951906  0.08457182  0.00636687  1
  Na  Na37  1  0.85971904  0.08462064  0.25669014  1
  Na  Na38  1  0.85970296  0.08396627  0.50538070  1
  Na  Na39  1  0.85962412  0.08221381  0.75497726  1
  Na  Na40  1  0.85968354  0.41784059  0.00618900  1
  Na  Na41  1  0.85943401  0.41748285  0.25450932  1
  Na  Na42  1  0.85946545  0.41606481  0.50483236  1
  Na  Na43  1  0.85990182  0.41593685  0.75523758  1
  Na  Na44  1  0.85945918  0.74917998  0.00608400  1
  Na  Na45  1  0.85932341  0.74989222  0.25627032  1
  Na  Na46  1  0.85943143  0.74989871  0.50618327  1
  Na  Na47  1  0.85973390  0.74834641  0.75632250  1
  Na  Na48  1  0.10975775  0.08392283  0.11896532  1
  Na  Na49  1  0.10973863  0.08292926  0.36869916  1
  Na  Na50  1  0.11031774  0.08161196  0.61852134  1
  Na  Na51  1  0.11044882  0.08371489  0.86839788  1
  Na  Na52  1  0.11004176  0.41755333  0.11908560  1
  Na  Na53  1  0.11048283  0.41658082  0.36728888  1
  Na  Na54  1  0.11035878  0.41548594  0.61795104  1
  Na  Na55  1  0.10976757  0.41697957  0.86900152  1
  Na  Na56  1  0.11029197  0.75003846  0.11978646  1
  Na  Na57  1  0.11008896  0.75043875  0.36810980  1
  Na  Na58  1  0.11002595  0.74877141  0.61813681  1
  Na  Na59  1  0.10998895  0.74915327  0.87025052  1
  Na  Na60  1  0.60905949  0.08355610  0.11871738  1
  Na  Na61  1  0.60956540  0.08139558  0.36886938  1
  Na  Na62  1  0.60961733  0.08262389  0.61943908  1
  Na  Na63  1  0.60879664  0.08379361  0.86840451  1
  Na  Na64  1  0.60915609  0.41876315  0.11707961  1
  Na  Na65  1  0.60962703  0.41701448  0.36794503  1
  Na  Na66  1  0.60995181  0.41654309  0.61853646  1
  Na  Na67  1  0.60954163  0.41772418  0.86849840  1
  Na  Na68  1  0.60906717  0.75010627  0.11803295  1
  Na  Na69  1  0.60873083  0.74848580  0.36822847  1
  Na  Na70  1  0.60899071  0.75004618  0.61979475  1
  Na  Na71  1  0.60910958  0.75140785  0.86977229  1
  Na  Na72  1  0.39033075  0.25212673  0.13092873  1
  Na  Na73  1  0.39038721  0.24972877  0.38126754  1
  Na  Na74  1  0.39095084  0.24879731  0.63226521  1
  Na  Na75  1  0.39058703  0.25001805  0.88144834  1
  Na  Na76  1  0.39054682  0.58491778  0.13250660  1
  Na  Na77  1  0.38957270  0.58314632  0.38146328  1
  Na  Na78  1  0.38959052  0.58305207  0.63155382  1
  Na  Na79  1  0.39079165  0.58420693  0.88195391  1
  Na  Na80  1  0.38987322  0.91569150  0.13222767  1
  Na  Na81  1  0.38988322  0.91482543  0.38211483  1
  Na  Na82  1  0.39021957  0.91760575  0.63191455  1
  Na  Na83  1  0.39035329  0.91722872  0.88276431  1
  Na  Na84  1  0.89037654  0.25132330  0.13127818  1
  Na  Na85  1  0.89020309  0.25045173  0.38022118  1
  Na  Na86  1  0.89065154  0.24960833  0.63001251  1
  Na  Na87  1  0.89052351  0.25076918  0.87997252  1
  Na  Na88  1  0.88991021  0.58351610  0.13106285  1
  Na  Na89  1  0.89010877  0.58369362  0.37969160  1
  Na  Na90  1  0.89047074  0.58162629  0.63119598  1
  Na  Na91  1  0.89031482  0.58230273  0.88128980  1
  Na  Na92  1  0.89050795  0.91702876  0.13186226  1
  Na  Na93  1  0.89019103  0.91821554  0.38150418  1
  Na  Na94  1  0.89030813  0.91545139  0.63079551  1
  Na  Na95  1  0.89044033  0.91527643  0.88101240  1
  Mn  Mn96  1  0.49982931  0.16659242  0.24960717  1
  Mn  Mn97  1  0.50020381  0.33464313  0.25010402  1
  Mn  Mn98  1  0.74962726  0.49905680  0.37348516  1
  Mn  Mn99  1  0.49903864  -0.00153807  0.24945118  1
  Mn  Mn100  1  0.74903735  0.83406082  0.37559890  1
  Mn  Mn101  1  0.00051539  0.33366015  0.24971781  1
  Mn  Mn102  1  0.00042261  0.49917771  0.75043225  1
  Mn  Mn103  1  0.00061714  0.50054443  -0.00057973  1
  Mn  Mn104  1  0.24960821  0.83411376  0.87602720  1
  Mn  Mn105  1  0.50012605  0.16753885  -0.00052865  1
  Mn  Mn106  1  0.25057864  0.16502789  0.62405509  1
  Mn  Mn107  1  0.25062718  0.16583350  0.37475041  1
  Mn  Mn108  1  0.50001057  0.50066810  0.75036408  1
  Mn  Mn109  1  0.24955935  0.33307152  0.87488939  1
  Mn  Mn110  1  0.25063167  0.66718838  0.87555752  1
  Mn  Mn111  1  0.00007035  0.16698988  0.74947429  1
  Mn  Mn112  1  -0.00027627  0.83361828  0.24981835  1
  Mn  Mn113  1  0.74910683  0.16857589  0.12576882  1
  Mn  Mn114  1  0.00050023  0.33217526  0.49823564  1
  Mn  Mn115  1  0.75072757  0.83338170  0.12535200  1
  Mn  Mn116  1  0.50007399  0.33309070  0.49988421  1
  Mn  Mn117  1  0.00043134  0.83230357  0.00090551  1
  Mn  Mn118  1  -0.00025094  0.16784746  -0.00093731  1
  Mn  Mn119  1  0.75020470  0.33466415  0.87390940  1
  Mn  Mn120  1  0.74995674  0.66629140  0.87485946  1
  Mn  Mn121  1  0.00044552  -0.00102909  0.74924554  1
  Mn  Mn122  1  0.74955841  0.66613057  0.37499215  1
  Mn  Mn123  1  0.74949904  0.66519397  0.62579069  1
  Mn  Mn124  1  0.25050078  0.16667348  0.12544792  1
  Mn  Mn125  1  0.74979052  0.16714641  0.87439950  1
  Mn  Mn126  1  0.74975355  -0.00056274  0.87556838  1
  Mn  Mn127  1  0.50063581  0.16525180  0.50098020  1
  Mn  Mn128  1  0.74972519  0.00068325  0.12459852  1
  Mn  Mn129  1  0.74962988  0.16771018  0.37527746  1
  Mn  Mn130  1  0.25042280  0.83324629  0.62517085  1
  Mn  Mn131  1  -0.00015543  0.00044943  0.00030903  1
  Mn  Mn132  1  0.00055093  0.83122479  0.75093477  1
  Mn  Mn133  1  0.00047340  0.49967389  0.49988717  1
  Mn  Mn134  1  0.00059975  0.66687052  0.49987840  1
  Mn  Mn135  1  0.49954833  0.83251169  0.50085323  1
  Mn  Mn136  1  0.74992155  0.16622971  0.62397995  1
  Mn  Mn137  1  0.74936918  0.83358948  0.62501495  1
  Mn  Mn138  1  0.49927501  0.83387193  0.75045953  1
  Mn  Mn139  1  0.49935368  0.50070121  0.50010559  1
  Mn  Mn140  1  0.25057537  0.50052167  0.87564702  1
  Mn  Mn141  1  0.25116310  0.33349639  0.62458476  1
  Mn  Mn142  1  -0.00001914  -0.00020862  0.49982358  1
  Mn  Mn143  1  0.25016731  0.50018983  0.12593502  1
  Fe  Fe144  1  0.25028642  0.00010620  0.87561131  1
  Fe  Fe145  1  0.00045128  0.16611440  0.49958431  1
  Fe  Fe146  1  -0.00027771  0.83291927  0.49961568  1
  Fe  Fe147  1  0.24990422  0.49987337  0.62447914  1
  Fe  Fe148  1  0.74987969  0.50022675  0.87508880  1
  Fe  Fe149  1  0.24959158  0.50002309  0.37487491  1
  Fe  Fe150  1  0.25027140  0.83271180  0.37520226  1
  Fe  Fe151  1  0.49940122  0.50087790  0.24908835  1
  Fe  Fe152  1  0.49949677  0.83368500  0.00019891  1
  Fe  Fe153  1  0.49946493  0.00022338  0.00024171  1
  Fe  Fe154  1  0.74972467  0.33470936  0.12373777  1
  Fe  Fe155  1  0.24994319  -0.00004872  0.12529994  1
  Fe  Fe156  1  0.00026449  0.66587718  0.74976978  1
  Fe  Fe157  1  0.25017491  0.66638701  0.62483191  1
  Fe  Fe158  1  0.24973632  0.66644854  0.37540543  1
  Fe  Fe159  1  0.75020654  0.33355066  0.62451333  1
  Fe  Fe160  1  0.74952920  0.50056075  0.12459781  1
  Fe  Fe161  1  0.25025843  -0.00077650  0.62539031  1
  Fe  Fe162  1  0.74978519  0.00051727  0.37496584  1
  Fe  Fe163  1  0.00090251  0.33281079  0.74923721  1
  Fe  Fe164  1  0.49966884  0.50128445  -0.00065787  1
  Fe  Fe165  1  0.49999465  0.33385957  0.75036210  1
  Fe  Fe166  1  0.74916500  0.66701546  0.12438314  1
  Fe  Fe167  1  0.49969393  0.66654122  0.24968341  1
  Fe  Fe168  1  0.25030498  0.16631446  0.87506321  1
  Fe  Fe169  1  0.25023898  -0.00104145  0.37496114  1
  Fe  Fe170  1  -0.00023161  0.66628354  0.00077408  1
  Fe  Fe171  1  0.25063659  0.33314083  0.37505792  1
  Fe  Fe172  1  0.75033795  0.83304552  0.87501549  1
  Fe  Fe173  1  -0.00006496  0.00079166  0.25066926  1
  Fe  Fe174  1  0.74946772  0.33407711  0.37438283  1
  Fe  Fe175  1  0.00024041  0.33390625  0.00030649  1
  Fe  Fe176  1  0.75017881  0.49914516  0.62405671  1
  Fe  Fe177  1  0.75031915  -0.00042550  0.62532281  1
  Fe  Fe178  1  0.25046958  0.83369676  0.12652793  1
  Fe  Fe179  1  -0.00007295  0.50076282  0.24907129  1
  Fe  Fe180  1  0.50003881  0.66608131  0.49952225  1
  Fe  Fe181  1  0.50027831  0.00013875  0.75099187  1
  Fe  Fe182  1  0.49964965  -0.00064306  0.50061184  1
  Fe  Fe183  1  0.50017329  0.83267399  0.25023707  1
  Fe  Fe184  1  0.49899684  0.66766997  0.00086594  1
  Fe  Fe185  1  0.00034261  0.16711783  0.24949518  1
  Fe  Fe186  1  0.49969872  0.66742508  0.75094864  1
  Fe  Fe187  1  0.49996568  0.16663504  0.75082245  1
  Fe  Fe188  1  0.24987408  0.33343581  0.12519266  1
  Fe  Fe189  1  0.50000301  0.33424082  -0.00005831  1
  Fe  Fe190  1  -0.00036675  0.66714176  0.25029502  1
  Fe  Fe191  1  0.25032172  0.66705521  0.12627024  1
  P  P192  1  0.04237285  0.25124622  0.10254709  1
  P  P193  1  0.04278574  0.24835810  0.35214981  1
  P  P194  1  0.04300816  0.24838354  0.60186321  1
  P  P195  1  0.04278552  0.25166911  0.85240680  1
  P  P196  1  0.04209566  0.58462409  0.10355215  1
  P  P197  1  0.04169765  0.58371111  0.35113952  1
  P  P198  1  0.04317969  0.58294918  0.60343390  1
  P  P199  1  0.04260125  0.58456355  0.85282576  1
  P  P200  1  0.04249398  0.91707506  0.10413144  1
  P  P201  1  0.04193488  0.91778589  0.35267027  1
  P  P202  1  0.04261376  0.91432813  0.60204160  1
  P  P203  1  0.04321648  0.91587523  0.85338257  1
  P  P204  1  0.54221230  0.25206997  0.10212852  1
  P  P205  1  0.54288299  0.24963483  0.35305247  1
  P  P206  1  0.54249035  0.24974812  0.60439197  1
  P  P207  1  0.54145806  0.25095938  0.85190721  1
  P  P208  1  0.54051757  0.58423996  0.10186814  1
  P  P209  1  0.54109116  0.58322418  0.35115051  1
  P  P210  1  0.54186126  0.58497768  0.60292698  1
  P  P211  1  0.54161593  0.58544262  0.85359518  1
  P  P212  1  0.54077874  0.91639450  0.10181578  1
  P  P213  1  0.54171922  0.91460259  0.35285892  1
  P  P214  1  0.54182735  0.91771455  0.60336558  1
  P  P215  1  0.54177547  0.91783567  0.85364474  1
  P  P216  1  0.45687160  0.08307061  0.14620489  1
  P  P217  1  0.45767043  0.08121084  0.39787659  1
  P  P218  1  0.45881770  0.08269476  0.64914375  1
  P  P219  1  0.45805612  0.08257638  0.89722055  1
  P  P220  1  0.45773342  0.41892096  0.14645096  1
  P  P221  1  0.45721485  0.41740356  0.39636218  1
  P  P222  1  0.45782034  0.41589446  0.64797999  1
  P  P223  1  0.45867696  0.41685136  0.89811604  1
  P  P224  1  0.45858821  0.75029098  0.14828529  1
  P  P225  1  0.45771970  0.74808349  0.39720455  1
  P  P226  1  0.45747617  0.74868158  0.64778862  1
  P  P227  1  0.45789783  0.75032951  0.89887202  1
  P  P228  1  0.95837226  0.08407121  0.14845900  1
  P  P229  1  0.95801714  0.08480287  0.39648517  1
  P  P230  1  0.95753119  0.08303659  0.64595587  1
  P  P231  1  0.95704245  0.08353300  0.89643296  1
  P  P232  1  0.95829266  0.41809245  0.14679600  1
  P  P233  1  0.95780123  0.41729117  0.39562416  1
  P  P234  1  0.95842009  0.41470257  0.64711433  1
  P  P235  1  0.95817033  0.41521234  0.89715665  1
  P  P236  1  0.95756014  0.74844992  0.14751117  1
  P  P237  1  0.95771042  0.75091409  0.39704560  1
  P  P238  1  0.95766774  0.74824119  0.64727061  1
  P  P239  1  0.95781302  0.74762070  0.89783309  1
  P  P240  1  0.20829991  0.08161122  0.22798399  1
  P  P241  1  0.20820140  0.08094776  0.47733396  1
  P  P242  1  0.20833345  0.08159085  0.72813930  1
  P  P243  1  0.20870574  0.08337164  0.97715616  1
  P  P244  1  0.20808009  0.41518257  0.22842618  1
  P  P245  1  0.20882240  0.41676178  0.47651879  1
  P  P246  1  0.20816162  0.41757415  0.72709355  1
  P  P247  1  0.20746798  0.41685901  0.97890361  1
  P  P248  1  0.20917423  0.75008307  0.22823093  1
  P  P249  1  0.20880214  0.74942636  0.47701268  1
  P  P250  1  0.20798088  0.74885209  0.72722503  1
  P  P251  1  0.20806012  0.75057454  0.98002762  1
  P  P252  1  0.70691270  0.08371690  0.22873796  1
  P  P253  1  0.70786499  0.08216796  0.47776793  1
  P  P254  1  0.70773135  0.08189223  0.72731351  1
  P  P255  1  0.70654534  0.08436036  0.97808777  1
  P  P256  1  0.70780706  0.41686049  0.22571871  1
  P  P257  1  0.70745455  0.41546054  0.47759834  1
  P  P258  1  0.70844995  0.41716790  0.72630315  1
  P  P259  1  0.70777182  0.41872925  0.97763397  1
  P  P260  1  0.70722602  0.74905719  0.22714819  1
  P  P261  1  0.70645399  0.74968298  0.47836586  1
  P  P262  1  0.70714802  0.74985333  0.72883056  1
  P  P263  1  0.70786317  0.75095903  0.97778650  1
  P  P264  1  0.29214703  0.25099269  0.02236862  1
  P  P265  1  0.29251687  0.25113122  0.27226593  1
  P  P266  1  0.29332795  0.24967079  0.52122731  1
  P  P267  1  0.29249639  0.24837917  0.77258833  1
  P  P268  1  0.29272718  0.58494317  0.02388313  1
  P  P269  1  0.29089628  0.58382774  0.27355397  1
  P  P270  1  0.29094404  0.58311396  0.52259838  1
  P  P271  1  0.29292821  0.58346845  0.77127676  1
  P  P272  1  0.29135358  0.91701189  0.02399397  1
  P  P273  1  0.29140324  0.91585661  0.27308345  1
  P  P274  1  0.29233547  0.91734515  0.52210805  1
  P  P275  1  0.29239159  0.91786204  0.77305130  1
  P  P276  1  0.79220714  0.25211637  0.02217626  1
  P  P277  1  0.79187113  0.25242990  0.27194490  1
  P  P278  1  0.79207410  0.25167267  0.52173346  1
  P  P279  1  0.79253881  0.25040039  0.77050720  1
  P  P280  1  0.79088690  0.58333274  0.02293993  1
  P  P281  1  0.79177359  0.58329140  0.27021817  1
  P  P282  1  0.79237167  0.58155953  0.52217562  1
  P  P283  1  0.79209163  0.58100942  0.77213104  1
  P  P284  1  0.79307835  0.91644635  0.02155895  1
  P  P285  1  0.79202485  0.91799886  0.27284966  1
  P  P286  1  0.79201194  0.91828629  0.52205828  1
  P  P287  1  0.79241008  0.91529818  0.77231811  1
  O  O288  1  0.03719716  0.25023027  0.18249479  1
  O  O289  1  0.03774782  0.24799501  0.43209494  1
  O  O290  1  0.03772415  0.24933473  0.68181617  1
  O  O291  1  0.03749763  0.25211264  0.93236233  1
  O  O292  1  0.03642317  0.58414804  0.18340617  1
  O  O293  1  0.03724303  0.58352198  0.43117711  1
  O  O294  1  0.03805350  0.58321915  0.68337985  1
  O  O295  1  0.03727031  0.58459038  0.93280992  1
  O  O296  1  0.03695214  0.91775490  0.18406089  1
  O  O297  1  0.03679619  0.91709973  0.43260153  1
  O  O298  1  0.03775972  0.91425661  0.68204093  1
  O  O299  1  0.03802315  0.91609946  0.93334762  1
  O  O300  1  0.53701789  0.25184017  0.18206138  1
  O  O301  1  0.53783346  0.24935930  0.43304810  1
  O  O302  1  0.53709781  0.25002886  0.68429963  1
  O  O303  1  0.53658146  0.25128263  0.93192447  1
  O  O304  1  0.53565123  0.58358487  0.18176426  1
  O  O305  1  0.53659448  0.58370094  0.43114728  1
  O  O306  1  0.53682174  0.58498919  0.68286573  1
  O  O307  1  0.53576681  0.58508221  0.93341380  1
  O  O308  1  0.53596718  0.91538912  0.18179774  1
  O  O309  1  0.53661554  0.91521622  0.43277698  1
  O  O310  1  0.53666460  0.91792285  0.68332103  1
  O  O311  1  0.53630914  0.91776026  0.93348381  1
  O  O312  1  0.46228737  0.08298140  0.06628780  1
  O  O313  1  0.46241000  0.08144010  0.31789014  1
  O  O314  1  0.46353216  0.08242611  0.56912529  1
  O  O315  1  0.46368406  0.08258743  0.81735967  1
  O  O316  1  0.46306632  0.41859797  0.06656345  1
  O  O317  1  0.46232429  0.41808853  0.31638645  1
  O  O318  1  0.46279828  0.41622543  0.56800689  1
  O  O319  1  0.46382631  0.41656994  0.81815475  1
  O  O320  1  0.46313757  0.75011800  0.06838078  1
  O  O321  1  0.46308051  0.74865405  0.31735878  1
  O  O322  1  0.46306248  0.74854137  0.56790103  1
  O  O323  1  0.46273883  0.75043371  0.81892710  1
  O  O324  1  0.96302033  0.08413213  0.06840751  1
  O  O325  1  0.96361935  0.08453821  0.31658118  1
  O  O326  1  0.96281454  0.08334582  0.56598711  1
  O  O327  1  0.96217767  0.08338423  0.81647323  1
  O  O328  1  0.96341179  0.41778644  0.06684590  1
  O  O329  1  0.96306173  0.41799062  0.31569312  1
  O  O330  1  0.96346233  0.41503432  0.56715537  1
  O  O331  1  0.96363267  0.41496934  0.81721748  1
  O  O332  1  0.96274480  0.74838996  0.06758295  1
  O  O333  1  0.96283423  0.75036135  0.31709756  1
  O  O334  1  0.96273607  0.74945634  0.56731230  1
  O  O335  1  0.96313750  0.74731553  0.81787877  1
  O  O336  1  0.21382876  0.08336453  0.05711673  1
  O  O337  1  0.21368135  0.08148835  0.30787394  1
  O  O338  1  0.21341196  0.08084412  0.55729570  1
  O  O339  1  0.21376888  0.08226572  0.80802950  1
  O  O340  1  0.21261086  0.41640662  0.05886955  1
  O  O341  1  0.21358280  0.41510809  0.30828728  1
  O  O342  1  0.21393122  0.41754431  0.55648313  1
  O  O343  1  0.21314595  0.41726684  0.80708819  1
  O  O344  1  0.21367448  0.75079880  0.05991829  1
  O  O345  1  0.21414376  0.74960974  0.30816673  1
  O  O346  1  0.21357371  0.74933162  0.55696946  1
  O  O347  1  0.21273539  0.74933066  0.80721362  1
  O  O348  1  0.71126572  0.08472302  0.05811614  1
  O  O349  1  0.71231887  0.08316060  0.30871686  1
  O  O350  1  0.71336227  0.08178695  0.55769909  1
  O  O351  1  0.71293918  0.08227271  0.80726184  1
  O  O352  1  0.71301392  0.41843725  0.05750036  1
  O  O353  1  0.71277590  0.41621801  0.30570327  1
  O  O354  1  0.71308277  0.41580333  0.55744801  1
  O  O355  1  0.71328506  0.41761786  0.80629257  1
  O  O356  1  0.71327281  0.75020385  0.05772143  1
  O  O357  1  0.71172900  0.74924720  0.30715648  1
  O  O358  1  0.71153704  0.74950265  0.55833275  1
  O  O359  1  0.71267797  0.75038176  0.80875709  1
  O  O360  1  0.28702465  0.25134739  0.19231074  1
  O  O361  1  0.28799212  0.25006986  0.44128144  1
  O  O362  1  0.28786918  0.24835840  0.69258262  1
  O  O363  1  0.28666680  0.25011936  0.94244557  1
  O  O364  1  0.28618293  0.58398897  0.19360212  1
  O  O365  1  0.28568419  0.58340934  0.44270548  1
  O  O366  1  0.28754454  0.58319698  0.69135860  1
  O  O367  1  0.28798275  0.58487953  0.94390075  1
  O  O368  1  0.28629112  0.91530538  0.19319199  1
  O  O369  1  0.28705443  0.91712881  0.44223233  1
  O  O370  1  0.28742115  0.91769015  0.69308672  1
  O  O371  1  0.28639226  0.91739252  0.94401513  1
  O  O372  1  0.78641708  0.25255040  0.19200949  1
  O  O373  1  0.78659834  0.25191202  0.44179872  1
  O  O374  1  0.78726571  0.25061535  0.69057055  1
  O  O375  1  0.78729817  0.25170873  0.94217038  1
  O  O376  1  0.78620967  0.58369365  0.19033208  1
  O  O377  1  0.78728699  0.58187329  0.44217582  1
  O  O378  1  0.78689003  0.58075977  0.69219317  1
  O  O379  1  0.78637833  0.58314322  0.94291779  1
  O  O380  1  0.78747885  0.91763503  0.19282227  1
  O  O381  1  0.78648816  0.91861510  0.44210548  1
  O  O382  1  0.78695918  0.91609408  0.69234848  1
  O  O383  1  0.78791055  0.91574015  0.94160506  1
  O  O384  1  0.22801645  0.25131150  0.05849658  1
  O  O385  1  0.22837526  0.25070818  0.30823776  1
  O  O386  1  0.22907404  0.24959579  0.55669854  1
  O  O387  1  0.22809900  0.24817422  0.80785987  1
  O  O388  1  0.22835001  0.58492824  0.05917952  1
  O  O389  1  0.22672127  0.58411183  0.30936789  1
  O  O390  1  0.22703207  0.58255319  0.55921211  1
  O  O391  1  0.22869589  0.58355462  0.80707116  1
  O  O392  1  0.22726500  0.91630101  0.06005554  1
  O  O393  1  0.22740881  0.91644863  0.30944092  1
  O  O394  1  0.22819418  0.91776464  0.55828505  1
  O  O395  1  0.22804664  0.91817480  0.80858272  1
  O  O396  1  0.72773170  0.25251077  0.05738707  1
  O  O397  1  0.72766824  0.25231320  0.30788340  1
  O  O398  1  0.72795439  0.25145318  0.55776087  1
  O  O399  1  0.72821673  0.25067318  0.80594695  1
  O  O400  1  0.72662899  0.58301699  0.05857929  1
  O  O401  1  0.72758112  0.58310187  0.30605455  1
  O  O402  1  0.72799393  0.58112833  0.55761142  1
  O  O403  1  0.72781604  0.58149098  0.80785287  1
  O  O404  1  0.72861602  0.91656801  0.05660712  1
  O  O405  1  0.72749087  0.91809414  0.30776905  1
  O  O406  1  0.72779673  0.91851575  0.55797065  1
  O  O407  1  0.72816971  0.91464509  0.80822486  1
  O  O408  1  0.27248028  0.08185997  0.19213421  1
  O  O409  1  0.27247593  0.08094547  0.44164180  1
  O  O410  1  0.27249760  0.08088863  0.69187020  1
  O  O411  1  0.27279666  0.08331757  0.94093881  1
  O  O412  1  0.27215061  0.41517443  0.19210258  1
  O  O413  1  0.27290284  0.41666207  0.44046506  1
  O  O414  1  0.27251952  0.41839467  0.69161856  1
  O  O415  1  0.27181825  0.41659069  0.94358507  1
  O  O416  1  0.27323543  0.75044074  0.19197495  1
  O  O417  1  0.27293925  0.74886444  0.44109177  1
  O  O418  1  0.27236801  0.74880444  0.69195209  1
  O  O419  1  0.27219218  0.75096973  0.94402034  1
  O  O420  1  0.77122170  0.08417762  0.19330812  1
  O  O421  1  0.77199669  0.08273950  0.44176453  1
  O  O422  1  0.77198372  0.08172206  0.69158328  1
  O  O423  1  0.77112156  0.08390031  0.94344522  1
  O  O424  1  0.77202666  0.41720870  0.18978255  1
  O  O425  1  0.77158918  0.41515592  0.44129731  1
  O  O426  1  0.77267333  0.41713756  0.69039167  1
  O  O427  1  0.77203258  0.41884962  0.94172294  1
  O  O428  1  0.77177571  0.74871803  0.19232435  1
  O  O429  1  0.77090217  0.75004302  0.44334203  1
  O  O430  1  0.77133683  0.74957800  0.69317133  1
  O  O431  1  0.77202258  0.75123100  0.94173181  1
  O  O432  1  0.02268518  0.08389938  0.18397356  1
  O  O433  1  0.02211174  0.08466828  0.43282511  1
  O  O434  1  0.02186885  0.08304458  0.68131321  1
  O  O435  1  0.02150895  0.08381987  0.93143242  1
  O  O436  1  0.02246325  0.41817347  0.18262407  1
  O  O437  1  0.02219018  0.41666226  0.43085597  1
  O  O438  1  0.02273360  0.41482988  0.68268398  1
  O  O439  1  0.02236919  0.41525874  0.93312832  1
  O  O440  1  0.02185554  0.74866708  0.18313059  1
  O  O441  1  0.02209660  0.75141673  0.43252331  1
  O  O442  1  0.02208540  0.74733283  0.68278315  1
  O  O443  1  0.02206737  0.74742420  0.93369573  1
  O  O444  1  0.52114817  0.08265965  0.18174298  1
  O  O445  1  0.52207926  0.08076815  0.43324464  1
  O  O446  1  0.52295363  0.08271682  0.68504202  1
  O  O447  1  0.52207369  0.08226986  0.93360276  1
  O  O448  1  0.52189786  0.41941624  0.18256634  1
  O  O449  1  0.52154806  0.41739211  0.43166344  1
  O  O450  1  0.52213903  0.41569919  0.68349597  1
  O  O451  1  0.52274331  0.41663082  0.93422548  1
  O  O452  1  0.52273992  0.75069103  0.18422643  1
  O  O453  1  0.52182006  0.74809170  0.43346698  1
  O  O454  1  0.52157120  0.74911980  0.68404222  1
  O  O455  1  0.52204539  0.74975780  0.93485066  1
  O  O456  1  0.47792602  0.25219738  0.06650981  1
  O  O457  1  0.47844471  0.25023880  0.31802044  1
  O  O458  1  0.47834838  0.24939678  0.56845205  1
  O  O459  1  0.47730459  0.25127104  0.81602494  1
  O  O460  1  0.47649006  0.58489182  0.06562244  1
  O  O461  1  0.47678698  0.58254202  0.31558339  1
  O  O462  1  0.47754415  0.58533540  0.56719918  1
  O  O463  1  0.47764527  0.58537927  0.81702563  1
  O  O464  1  0.47657917  0.91711378  0.06603935  1
  O  O465  1  0.47739782  0.91392970  0.31717389  1
  O  O466  1  0.47758823  0.91764567  0.56754593  1
  O  O467  1  0.47763683  0.91826444  0.81746024  1
  O  O468  1  0.97806421  0.25189885  0.06687005  1
  O  O469  1  0.97847820  0.24886254  0.31657112  1
  O  O470  1  0.97871932  0.24795402  0.56605444  1
  O  O471  1  0.97849473  0.25183211  0.81667575  1
  O  O472  1  0.97804382  0.58467591  0.06711112  1
  O  O473  1  0.97735886  0.58387413  0.31568811  1
  O  O474  1  0.97879991  0.58320943  0.56818884  1
  O  O475  1  0.97836813  0.58434935  0.81695017  1
  O  O476  1  0.97828510  0.91660881  0.06851206  1
  O  O477  1  0.97769575  0.91810442  0.31695954  1
  O  O478  1  0.97817639  0.91471408  0.56675628  1
  O  O479  1  0.97882776  0.91561386  0.81822194  1
  O  O480  1  0.07309718  0.31498316  0.07465716  1
  O  O481  1  0.07388486  0.31213632  0.32470032  1
  O  O482  1  0.07410732  0.31174743  0.57339814  1
  O  O483  1  0.07393720  0.31464904  0.82326444  1
  O  O484  1  0.07300138  0.64810461  0.07520600  1
  O  O485  1  0.07233408  0.64758790  0.32322470  1
  O  O486  1  0.07450908  0.64597647  0.57468337  1
  O  O487  1  0.07350110  0.64778380  0.82410197  1
  O  O488  1  0.07363647  0.98028266  0.07556447  1
  O  O489  1  0.07253093  0.98151263  0.32443770  1
  O  O490  1  0.07383434  0.97787444  0.57444664  1
  O  O491  1  0.07402990  0.97930226  0.82490038  1
  O  O492  1  0.57287944  0.31560472  0.07372097  1
  O  O493  1  0.57412592  0.31303278  0.32512043  1
  O  O494  1  0.57352315  0.31308369  0.57573362  1
  O  O495  1  0.57290222  0.31410258  0.82348140  1
  O  O496  1  0.57186714  0.64772637  0.07400128  1
  O  O497  1  0.57125768  0.64703648  0.32215110  1
  O  O498  1  0.57301885  0.64798115  0.57398707  1
  O  O499  1  0.57242114  0.64894594  0.82517857  1
  O  O500  1  0.57185697  0.98011571  0.07421715  1
  O  O501  1  0.57251518  0.97808191  0.32432968  1
  O  O502  1  0.57255931  0.98093745  0.57423571  1
  O  O503  1  0.57307851  0.98092851  0.82486979  1
  O  O504  1  0.42539478  0.01995700  0.17451030  1
  O  O505  1  0.42701226  0.01768297  0.42641964  1
  O  O506  1  0.42763636  0.01940756  0.67753014  1
  O  O507  1  0.42689486  0.01942523  0.92607263  1
  O  O508  1  0.42688609  0.35528172  0.17472918  1
  O  O509  1  0.42643603  0.35366263  0.42418851  1
  O  O510  1  0.42694232  0.35246464  0.67632269  1
  O  O511  1  0.42726806  0.35366915  0.92650858  1
  O  O512  1  0.42828245  0.68645881  0.17719093  1
  O  O513  1  0.42709886  0.68442664  0.42567787  1
  O  O514  1  0.42678976  0.68539038  0.67664922  1
  O  O515  1  0.42636042  0.68727249  0.92722393  1
  O  O516  1  0.92765280  0.02041121  0.17676236  1
  O  O517  1  0.92669275  0.02135928  0.42448391  1
  O  O518  1  0.92680785  0.01922811  0.67384966  1
  O  O519  1  0.92614359  0.02013962  0.92477208  1
  O  O520  1  0.92701181  0.35470865  0.17478591  1
  O  O521  1  0.92678824  0.35356108  0.42325954  1
  O  O522  1  0.92796404  0.35098749  0.67530958  1
  O  O523  1  0.92710344  0.35218449  0.92615981  1
  O  O524  1  0.92682681  0.68514100  0.17638599  1
  O  O525  1  0.92674276  0.68739596  0.42524681  1
  O  O526  1  0.92688037  0.68452919  0.67521039  1
  O  O527  1  0.92659254  0.68453815  0.92658899  1
  O  O528  1  0.17753838  0.01828744  0.19915388  1
  O  O529  1  0.17718156  0.01781293  0.44850793  1
  O  O530  1  0.17713595  0.01825698  0.69976267  1
  O  O531  1  0.17766101  0.01984340  0.94904927  1
  O  O532  1  0.17717851  0.35193408  0.19941777  1
  O  O533  1  0.17813178  0.35277068  0.44895844  1
  O  O534  1  0.17791439  0.35350613  0.69917205  1
  O  O535  1  0.17594680  0.35397652  0.95012048  1
  O  O536  1  0.17863226  0.68637365  0.19943835  1
  O  O537  1  0.17713140  0.68640351  0.44862303  1
  O  O538  1  0.17752307  0.68529881  0.69854479  1
  O  O539  1  0.17720173  0.68700141  0.95173422  1
  O  O540  1  0.67575600  0.02052619  0.20007116  1
  O  O541  1  0.67717627  0.01883369  0.44880757  1
  O  O542  1  0.67706411  0.01820329  0.69934978  1
  O  O543  1  0.67550319  0.02084878  0.95018363  1
  O  O544  1  0.67696761  0.35349261  0.19701579  1
  O  O545  1  0.67640160  0.35215644  0.44900337  1
  O  O546  1  0.67805124  0.35315578  0.69828438  1
  O  O547  1  0.67674040  0.35529165  0.94912447  1
  O  O548  1  0.67658852  0.68566191  0.19818185  1
  O  O549  1  0.67575594  0.68611441  0.45004826  1
  O  O550  1  0.67614751  0.68609846  0.70122718  1
  O  O551  1  0.67667880  0.68752303  0.94973877  1
  O  O552  1  0.32284364  0.31469446  0.05047517  1
  O  O553  1  0.32329693  0.31443551  0.30109774  1
  O  O554  1  0.32456757  0.31286336  0.54974880  1
  O  O555  1  0.32323132  0.31223057  0.80026052  1
  O  O556  1  0.32329230  0.64841830  0.05268331  1
  O  O557  1  0.32232321  0.64695065  0.30194352  1
  O  O558  1  0.32132555  0.64697975  0.55127382  1
  O  O559  1  0.32404407  0.64684767  0.79972989  1
  O  O560  1  0.32159565  0.98099602  0.05228374  1
  O  O561  1  0.32283864  0.97927550  0.30095359  1
  O  O562  1  0.32347268  0.98043985  0.55104300  1
  O  O563  1  0.32337922  0.98096434  0.80203154  1
  O  O564  1  0.82286725  0.31575259  0.05037587  1
  O  O565  1  0.82278130  0.31578042  0.30041935  1
  O  O566  1  0.82299001  0.31489601  0.55059178  1
  O  O567  1  0.82384840  0.31358239  0.79894679  1
  O  O568  1  0.82089929  0.64750145  0.05122286  1
  O  O569  1  0.82302909  0.64638362  0.29914438  1
  O  O570  1  0.82304726  0.64528570  0.55024166  1
  O  O571  1  0.82320927  0.64471076  0.79976603  1
  O  O572  1  0.82382695  0.98029084  0.04933813  1
  O  O573  1  0.82254012  0.98165319  0.30123784  1
  O  O574  1  0.82325004  0.98132449  0.55086771  1
  O  O575  1  0.82341928  0.97881713  0.80042437  1
  O  O576  1  0.42620758  0.14695211  0.17427314  1
  O  O577  1  0.42690454  0.14500628  0.42587827  1
  O  O578  1  0.42843961  0.14678792  0.67747443  1
  O  O579  1  0.42698333  0.14646464  0.92479580  1
  O  O580  1  0.42651779  0.48224323  0.17515789  1
  O  O581  1  0.42587161  0.48053506  0.42517441  1
  O  O582  1  0.42696102  0.47969163  0.67584684  1
  O  O583  1  0.42828107  0.48109125  0.92600776  1
  O  O584  1  0.42728560  0.81359445  0.17691742  1
  O  O585  1  0.42626711  0.81134370  0.42575271  1
  O  O586  1  0.42618467  0.81253854  0.67517937  1
  O  O587  1  0.42782459  0.81454593  0.92734432  1
  O  O588  1  0.92767715  0.14800319  0.17639196  1
  O  O589  1  0.92718120  0.14834782  0.42510919  1
  O  O590  1  0.92606441  0.14624093  0.67425635  1
  O  O591  1  0.92591280  0.14714612  0.92443480  1
  O  O592  1  0.92763334  0.48184736  0.17513290  1
  O  O593  1  0.92663673  0.48044391  0.42453799  1
  O  O594  1  0.92716731  0.47820692  0.67516799  1
  O  O595  1  0.92725460  0.47927968  0.92451105  1
  O  O596  1  0.92635074  0.81220238  0.17516041  1
  O  O597  1  0.92693217  0.81457861  0.42545007  1
  O  O598  1  0.92670362  0.81165866  0.67602053  1
  O  O599  1  0.92709028  0.81168226  0.92542703  1
  O  O600  1  0.07345782  0.18778549  0.07401453  1
  O  O601  1  0.07357081  0.18503767  0.32311957  1
  O  O602  1  0.07378445  0.18456315  0.57393063  1
  O  O603  1  0.07354777  0.18757472  0.82492418  1
  O  O604  1  0.07353115  0.52122415  0.07523507  1
  O  O605  1  0.07231807  0.51999689  0.32266545  1
  O  O606  1  0.07392872  0.51917033  0.57527021  1
  O  O607  1  0.07370149  0.52064237  0.82534803  1
  O  O608  1  0.07365268  0.85327218  0.07668512  1
  O  O609  1  0.07329202  0.85438015  0.32453415  1
  O  O610  1  0.07292996  0.85063637  0.57315867  1
  O  O611  1  0.07441740  0.85222921  0.82567702  1
  O  O612  1  0.57330881  0.18834617  0.07449160  1
  O  O613  1  0.57348190  0.18590890  0.32474712  1
  O  O614  1  0.57392886  0.18627184  0.57625436  1
  O  O615  1  0.57160036  0.18664295  0.82383648  1
  O  O616  1  0.57096537  0.52055930  0.07263306  1
  O  O617  1  0.57242153  0.51983104  0.32286119  1
  O  O618  1  0.57240045  0.52087603  0.57502417  1
  O  O619  1  0.57301090  0.52189027  0.82553024  1
  O  O620  1  0.57132454  0.85272474  0.07281817  1
  O  O621  1  0.57270726  0.85106146  0.32446259  1
  O  O622  1  0.57283295  0.85380339  0.57588892  1
  O  O623  1  0.57263866  0.85402773  0.82551108  1
  O  O624  1  0.32351050  0.18755963  0.05047878  1
  O  O625  1  0.32388179  0.18727796  0.29948942  1
  O  O626  1  0.32435535  0.18592506  0.54906571  1
  O  O627  1  0.32322770  0.18493867  0.80138791  1
  O  O628  1  0.32374201  0.52118087  0.05149604  1
  O  O629  1  0.32107174  0.51959953  0.30174103  1
  O  O630  1  0.32247331  0.51970744  0.55069260  1
  O  O631  1  0.32413693  0.52011943  0.80006142  1
  O  O632  1  0.32283324  0.85367602  0.05221824  1
  O  O633  1  0.32182641  0.85206880  0.30219727  1
  O  O634  1  0.32322819  0.85348447  0.55015964  1
  O  O635  1  0.32312988  0.85389327  0.80094395  1
  O  O636  1  0.82311364  0.18852772  0.05048390  1
  O  O637  1  0.82295688  0.18867606  0.29977232  1
  O  O638  1  0.82324536  0.18774493  0.54893647  1
  O  O639  1  0.82339386  0.18666511  0.79858353  1
  O  O640  1  0.82238828  0.52013742  0.05139236  1
  O  O641  1  0.82303489  0.51969343  0.29814219  1
  O  O642  1  0.82339475  0.51802850  0.55033452  1
  O  O643  1  0.82289360  0.51771098  0.80119548  1
  O  O644  1  0.82449486  0.85338876  0.05037212  1
  O  O645  1  0.82295555  0.85427387  0.30085207  1
  O  O646  1  0.82278058  0.85417334  0.54948375  1
  O  O647  1  0.82333766  0.85158556  0.80034169  1
  O  O648  1  0.17711551  0.14536804  0.20032781  1
  O  O649  1  0.17729466  0.14490950  0.44973822  1
  O  O650  1  0.17743165  0.14523538  0.69959724  1
  O  O651  1  0.17808109  0.14727195  0.94888611  1
  O  O652  1  0.17688936  0.47902600  0.20087920  1
  O  O653  1  0.17774745  0.48019651  0.44765362  1
  O  O654  1  0.17682387  0.48077231  0.69873861  1
  O  O655  1  0.17683516  0.48088300  0.95114278  1
  O  O656  1  0.17782463  0.81357749  0.20013714  1
  O  O657  1  0.17881982  0.81366153  0.44855616  1
  O  O658  1  0.17688538  0.81248330  0.69920174  1
  O  O659  1  0.17639244  0.81369802  0.95148013  1
  O  O660  1  0.67569029  0.14743775  0.20109912  1
  O  O661  1  0.67643312  0.14598309  0.45065243  1
  O  O662  1  0.67667605  0.14554777  0.69944539  1
  O  O663  1  0.67583915  0.14793096  0.94947852  1
  O  O664  1  0.67697495  0.48080844  0.19798973  1
  O  O665  1  0.67635968  0.47908735  0.44924728  1
  O  O666  1  0.67727469  0.48052434  0.69773252  1
  O  O667  1  0.67683073  0.48220185  0.94895306  1
  O  O668  1  0.67642649  0.81287664  0.19924219  1
  O  O669  1  0.67526299  0.81323440  0.45046005  1
  O  O670  1  0.67565952  0.81300092  0.70037307  1
  O  O671  1  0.67709063  0.81467901  0.94972485  1
