# generated using pymatgen
data_Na2MnFe(PO4)2
_symmetry_space_group_name_H-M   'P 1'
_cell_length_a   22.34733409
_cell_length_b   20.09680032
_cell_length_c   19.44787535
_cell_angle_alpha   89.99751656
_cell_angle_beta   89.98880596
_cell_angle_gamma   89.98563007
_symmetry_Int_Tables_number   1
_chemical_formula_structural   Na2MnFe(PO4)2
_chemical_formula_sum   'Na96 Mn48 Fe48 P96 O384'
_cell_volume   8734.23311563
_cell_formula_units_Z   48
loop_
 _symmetry_equiv_pos_site_id
 _symmetry_equiv_pos_as_xyz
  1  'x, y, z'
loop_
 _atom_site_type_symbol
 _atom_site_label
 _atom_site_symmetry_multiplicity
 _atom_site_fract_x
 _atom_site_fract_y
 _atom_site_fract_z
 _atom_site_occupancy
  Na  Na0  1  0.14051308  0.25066495  0.24463839  1
  Na  Na1  1  0.14069457  0.24988707  0.49465129  1
  Na  Na2  1  0.14008268  0.25012137  0.74393157  1
  Na  Na3  1  0.14032877  0.24970366  0.99344567  1
  Na  Na4  1  0.14048776  0.58352413  0.24475388  1
  Na  Na5  1  0.14104127  0.58275763  0.49264193  1
  Na  Na6  1  0.14101847  0.58366578  0.74414811  1
  Na  Na7  1  0.14052041  0.58326440  0.99474108  1
  Na  Na8  1  0.14085586  0.91561907  0.24535252  1
  Na  Na9  1  0.14080212  0.91511021  0.49370729  1
  Na  Na10  1  0.14119990  0.91735500  0.74363360  1
  Na  Na11  1  0.14131048  0.91636824  0.99372717  1
  Na  Na12  1  0.63988163  0.24929202  0.24306320  1
  Na  Na13  1  0.63938550  0.25030430  0.49368792  1
  Na  Na14  1  0.63927426  0.24939891  0.74212639  1
  Na  Na15  1  0.63966086  0.24853151  0.99287524  1
  Na  Na16  1  0.64038910  0.58331368  0.24358110  1
  Na  Na17  1  0.64020343  0.58313185  0.49420471  1
  Na  Na18  1  0.64000543  0.58382816  0.74221628  1
  Na  Na19  1  0.64006135  0.58432196  0.99403805  1
  Na  Na20  1  0.63989349  0.91681316  0.24215341  1
  Na  Na21  1  0.64045418  0.91704170  0.49266472  1
  Na  Na22  1  0.64060256  0.91724015  0.74442939  1
  Na  Na23  1  0.64031137  0.91780300  0.99278293  1
  Na  Na24  1  0.36056997  0.08435442  0.00653968  1
  Na  Na25  1  0.36026183  0.08268138  0.25769554  1
  Na  Na26  1  0.36015457  0.08314700  0.50728502  1
  Na  Na27  1  0.36018239  0.08572617  0.75663652  1
  Na  Na28  1  0.35955704  0.41700227  0.00566958  1
  Na  Na29  1  0.36000753  0.41706967  0.25814134  1
  Na  Na30  1  0.35999132  0.41542201  0.50676198  1
  Na  Na31  1  0.35997443  0.41635219  0.75720075  1
  Na  Na32  1  0.36020769  0.75000813  0.00635239  1
  Na  Na33  1  0.35963585  0.74965789  0.25773129  1
  Na  Na34  1  0.36022216  0.74919803  0.50568896  1
  Na  Na35  1  0.36027546  0.75060182  0.75587987  1
  Na  Na36  1  0.85960591  0.08358634  0.00472123  1
  Na  Na37  1  0.85913426  0.08335071  0.25440247  1
  Na  Na38  1  0.85879445  0.08372875  0.50633360  1
  Na  Na39  1  0.85902241  0.08272628  0.75667056  1
  Na  Na40  1  0.85846993  0.41615869  0.00629282  1
  Na  Na41  1  0.85901954  0.41696819  0.25627977  1
  Na  Na42  1  0.85944405  0.41675775  0.50615882  1
  Na  Na43  1  0.85923013  0.41535142  0.75515995  1
  Na  Na44  1  0.85953091  0.74966949  0.00685429  1
  Na  Na45  1  0.85958957  0.74961997  0.25579505  1
  Na  Na46  1  0.85913297  0.75040188  0.50642276  1
  Na  Na47  1  0.85933753  0.75083708  0.75621481  1
  Na  Na48  1  0.11018724  0.08345553  0.11955214  1
  Na  Na49  1  0.10967377  0.08332431  0.36968985  1
  Na  Na50  1  0.10982370  0.08352625  0.61914212  1
  Na  Na51  1  0.10999291  0.08495904  0.86843818  1
  Na  Na52  1  0.10947460  0.41593311  0.11979708  1
  Na  Na53  1  0.10999676  0.41797610  0.36898855  1
  Na  Na54  1  0.11019496  0.41551838  0.61899444  1
  Na  Na55  1  0.10934743  0.41539629  0.86887885  1
  Na  Na56  1  0.11045318  0.74858044  0.11965375  1
  Na  Na57  1  0.11008873  0.75004870  0.36896374  1
  Na  Na58  1  0.11014399  0.74963132  0.61829353  1
  Na  Na59  1  0.11022218  0.74889136  0.86962878  1
  Na  Na60  1  0.60949100  0.08225721  0.11728240  1
  Na  Na61  1  0.60948982  0.08372386  0.36778779  1
  Na  Na62  1  0.60935141  0.08452920  0.61790704  1
  Na  Na63  1  0.60981581  0.08438431  0.86865751  1
  Na  Na64  1  0.60913434  0.41627705  0.11943786  1
  Na  Na65  1  0.60920282  0.41589969  0.36905589  1
  Na  Na66  1  0.60937434  0.41662051  0.61839499  1
  Na  Na67  1  0.60869748  0.41717613  0.86703972  1
  Na  Na68  1  0.60947074  0.75100350  0.11823773  1
  Na  Na69  1  0.60959920  0.74924807  0.36795712  1
  Na  Na70  1  0.60987758  0.75077398  0.61801663  1
  Na  Na71  1  0.60979049  0.75118934  0.86876511  1
  Na  Na72  1  0.39084867  0.24932565  0.13157760  1
  Na  Na73  1  0.39074439  0.24990525  0.38304010  1
  Na  Na74  1  0.39004975  0.25107804  0.63241802  1
  Na  Na75  1  0.38997710  0.25011289  0.88109437  1
  Na  Na76  1  0.39025709  0.58367666  0.13262015  1
  Na  Na77  1  0.39042393  0.58209173  0.38168915  1
  Na  Na78  1  0.39098485  0.58340231  0.63155272  1
  Na  Na79  1  0.39071062  0.58487887  0.88079796  1
  Na  Na80  1  0.39110054  0.91674673  0.13152992  1
  Na  Na81  1  0.39071268  0.91645228  0.38220934  1
  Na  Na82  1  0.39057941  0.91727073  0.63067463  1
  Na  Na83  1  0.39118045  0.91776997  0.88159038  1
  Na  Na84  1  0.88978009  0.24875509  0.13040805  1
  Na  Na85  1  0.88968320  0.25130542  0.38037701  1
  Na  Na86  1  0.88980005  0.25004961  0.63123688  1
  Na  Na87  1  0.88952322  0.24921876  0.88009661  1
  Na  Na88  1  0.88959800  0.58293043  0.13163161  1
  Na  Na89  1  0.88986270  0.58482837  0.38072678  1
  Na  Na90  1  0.89048936  0.58182639  0.63034542  1
  Na  Na91  1  0.88998716  0.58273252  0.88098396  1
  Na  Na92  1  0.89058715  0.91637967  0.12987500  1
  Na  Na93  1  0.88999781  0.91682861  0.38122155  1
  Na  Na94  1  0.88956147  0.91666718  0.63186459  1
  Na  Na95  1  0.89015459  0.91664532  0.88150975  1
  Mn  Mn96  1  0.25097711  0.83226956  0.12508630  1
  Mn  Mn97  1  0.75026332  0.66770900  0.87412343  1
  Mn  Mn98  1  0.74906392  0.33275461  0.37460335  1
  Mn  Mn99  1  -0.00025219  0.16734406  0.49978926  1
  Mn  Mn100  1  0.50034147  0.00173562  0.75016933  1
  Mn  Mn101  1  0.25094864  0.83310520  0.87493615  1
  Mn  Mn102  1  0.00003303  0.66543692  0.74929046  1
  Mn  Mn103  1  0.00040439  0.33442262  0.50047124  1
  Mn  Mn104  1  0.50021938  0.66647862  0.24996419  1
  Mn  Mn105  1  0.00015423  0.66682715  0.50039635  1
  Mn  Mn106  1  0.49959842  0.50025856  -0.00024505  1
  Mn  Mn107  1  0.25028645  0.50036539  0.87548076  1
  Mn  Mn108  1  0.74944933  0.33266742  0.12468961  1
  Mn  Mn109  1  0.74939456  0.16623604  0.62472200  1
  Mn  Mn110  1  0.75009959  0.83277808  0.37379869  1
  Mn  Mn111  1  0.25063012  0.33376217  0.12555264  1
  Mn  Mn112  1  0.50052199  0.66786652  0.00077139  1
  Mn  Mn113  1  0.74827298  0.33232848  0.87542591  1
  Mn  Mn114  1  0.00075127  0.00031328  0.75043220  1
  Mn  Mn115  1  0.00106994  0.00042270  0.00003521  1
  Mn  Mn116  1  0.25131611  0.00145323  0.87415060  1
  Mn  Mn117  1  -0.00085771  0.33202216  -0.00078453  1
  Mn  Mn118  1  -0.00035741  0.50030149  0.24941444  1
  Mn  Mn119  1  0.00065962  0.49857955  0.75074848  1
  Mn  Mn120  1  0.74987056  0.00052621  0.37416116  1
  Mn  Mn121  1  0.25070331  0.49930459  0.62501521  1
  Mn  Mn122  1  0.00084974  0.83185643  0.00078993  1
  Mn  Mn123  1  0.49989803  0.49961345  0.50073520  1
  Mn  Mn124  1  0.49978728  0.16585278  0.25039215  1
  Mn  Mn125  1  0.25065130  -0.00010953  0.62534939  1
  Mn  Mn126  1  0.74929713  0.50059470  0.37542439  1
  Mn  Mn127  1  0.25027266  0.16653508  0.37612732  1
  Mn  Mn128  1  0.49936251  0.33293429  -0.00053412  1
  Mn  Mn129  1  0.74994726  0.83374379  0.12456333  1
  Mn  Mn130  1  0.50094616  0.83379753  0.74959747  1
  Mn  Mn131  1  0.50036915  0.83337312  0.49984567  1
  Mn  Mn132  1  0.00003629  -0.00009866  0.25002344  1
  Mn  Mn133  1  0.74916829  0.49999880  0.87470465  1
  Mn  Mn134  1  0.74993920  0.66708475  0.62518649  1
  Mn  Mn135  1  0.00052300  0.83249543  0.25011244  1
  Mn  Mn136  1  0.24968068  0.50056058  0.12575916  1
  Mn  Mn137  1  0.25035779  0.16704715  0.12623633  1
  Mn  Mn138  1  -0.00047385  0.16748363  0.24985937  1
  Mn  Mn139  1  0.25074693  0.66735061  0.62407798  1
  Mn  Mn140  1  -0.00080723  -0.00032624  0.50015097  1
  Mn  Mn141  1  0.00010938  0.83257613  0.75071272  1
  Mn  Mn142  1  0.25021659  -0.00000956  0.12546795  1
  Mn  Mn143  1  -0.00101149  0.49972941  -0.00000496  1
  Fe  Fe144  1  0.74966214  0.83413288  0.62528865  1
  Fe  Fe145  1  0.25081429  0.66624582  0.12592798  1
  Fe  Fe146  1  0.24999149  0.16758078  0.87531286  1
  Fe  Fe147  1  0.25010271  -0.00071548  0.37631427  1
  Fe  Fe148  1  0.49947991  0.16742816  0.74957760  1
  Fe  Fe149  1  -0.00071587  0.16678820  0.74966504  1
  Fe  Fe150  1  0.25047952  0.66617229  0.37555794  1
  Fe  Fe151  1  0.50006998  0.16721344  0.49968738  1
  Fe  Fe152  1  -0.00077778  0.33274676  0.74953286  1
  Fe  Fe153  1  -0.00026666  0.33364635  0.24992989  1
  Fe  Fe154  1  -0.00017215  0.83327354  0.50010109  1
  Fe  Fe155  1  0.50003737  0.50079053  0.74954520  1
  Fe  Fe156  1  0.74947122  0.16590687  0.12366475  1
  Fe  Fe157  1  0.74912595  0.50029303  0.12507754  1
  Fe  Fe158  1  -0.00026456  0.66664077  0.25068604  1
  Fe  Fe159  1  0.74972873  0.66654845  0.37518975  1
  Fe  Fe160  1  0.74952232  0.66697097  0.12470462  1
  Fe  Fe161  1  0.25039851  0.49950272  0.37539741  1
  Fe  Fe162  1  0.50004478  0.33332902  0.74961811  1
  Fe  Fe163  1  -0.00001828  0.50019409  0.49951184  1
  Fe  Fe164  1  0.49972559  0.83419041  -0.00019327  1
  Fe  Fe165  1  0.49985941  0.33247105  0.25043305  1
  Fe  Fe166  1  -0.00011474  0.66586203  0.00025363  1
  Fe  Fe167  1  0.50037626  0.49918028  0.25087304  1
  Fe  Fe168  1  0.25050950  0.83329514  0.62460710  1
  Fe  Fe169  1  0.74983318  0.33291963  0.62452173  1
  Fe  Fe170  1  0.49990800  0.00032021  -0.00008857  1
  Fe  Fe171  1  0.00022144  0.16688679  -0.00024996  1
  Fe  Fe172  1  0.25041445  0.83253879  0.37483457  1
  Fe  Fe173  1  0.74994220  0.00003431  0.87458321  1
  Fe  Fe174  1  0.25016424  0.16686936  0.62536611  1
  Fe  Fe175  1  0.49945481  0.33337504  0.50052488  1
  Fe  Fe176  1  0.25041903  0.33295218  0.37595444  1
  Fe  Fe177  1  0.50066174  0.66620156  0.49968472  1
  Fe  Fe178  1  0.50003919  -0.00040939  0.24935189  1
  Fe  Fe179  1  0.24974367  0.33320682  0.87546050  1
  Fe  Fe180  1  0.49997881  0.66743894  0.75006840  1
  Fe  Fe181  1  0.74980779  0.83431661  0.87529882  1
  Fe  Fe182  1  0.24987574  0.33309185  0.62581320  1
  Fe  Fe183  1  0.50040016  0.16666273  0.00012857  1
  Fe  Fe184  1  0.75003755  0.49976121  0.62453953  1
  Fe  Fe185  1  0.50047027  0.00045640  0.49960311  1
  Fe  Fe186  1  0.74962697  0.16586503  0.87393770  1
  Fe  Fe187  1  0.74949453  -0.00045114  0.62554513  1
  Fe  Fe188  1  0.25038925  0.66692155  0.87471538  1
  Fe  Fe189  1  0.50016448  0.83376100  0.24969807  1
  Fe  Fe190  1  0.75023057  0.00050454  0.12354043  1
  Fe  Fe191  1  0.74965855  0.16644760  0.37451285  1
  P  P192  1  0.04235477  0.24902522  0.10260267  1
  P  P193  1  0.04234475  0.25210005  0.35248881  1
  P  P194  1  0.04251924  0.24993042  0.60404521  1
  P  P195  1  0.04097713  0.24976693  0.85134734  1
  P  P196  1  0.04184347  0.58407944  0.10304249  1
  P  P197  1  0.04192603  0.58435857  0.35290104  1
  P  P198  1  0.04304790  0.58137541  0.60213381  1
  P  P199  1  0.04301210  0.58296393  0.85377656  1
  P  P200  1  0.04378270  0.91608348  0.10327232  1
  P  P201  1  0.04261545  0.91623056  0.35391480  1
  P  P202  1  0.04227246  0.91533469  0.60259261  1
  P  P203  1  0.04361611  0.91631251  0.85345048  1
  P  P204  1  0.54198211  0.24891755  0.10260673  1
  P  P205  1  0.54191861  0.25059166  0.35299188  1
  P  P206  1  0.54064437  0.25029213  0.60212882  1
  P  P207  1  0.54113530  0.24996185  0.85134439  1
  P  P208  1  0.54228764  0.58292377  0.10378443  1
  P  P209  1  0.54224334  0.58185348  0.35293339  1
  P  P210  1  0.54209120  0.58468201  0.60323401  1
  P  P211  1  0.54175373  0.58415835  0.85115254  1
  P  P212  1  0.54153810  0.91688388  0.10166605  1
  P  P213  1  0.54139280  0.91697754  0.35132922  1
  P  P214  1  0.54237328  0.91842594  0.60191425  1
  P  P215  1  0.54254793  0.91773368  0.85375844  1
  P  P216  1  0.45791533  0.08164917  0.14715449  1
  P  P217  1  0.45883039  0.08341235  0.39828334  1
  P  P218  1  0.45788401  0.08559753  0.64664960  1
  P  P219  1  0.45888839  0.08441423  0.89816090  1
  P  P220  1  0.45842395  0.41623569  0.14910991  1
  P  P221  1  0.45817731  0.41511794  0.39741325  1
  P  P222  1  0.45874528  0.41679683  0.64853891  1
  P  P223  1  0.45728907  0.41709888  0.89570458  1
  P  P224  1  0.45788212  0.75187552  0.14766054  1
  P  P225  1  0.45857337  0.74877498  0.39723683  1
  P  P226  1  0.45845266  0.74906343  0.64699864  1
  P  P227  1  0.45833515  0.75154115  0.89732972  1
  P  P228  1  0.95749900  0.08357999  0.14610019  1
  P  P229  1  0.95645030  0.08389568  0.39682442  1
  P  P230  1  0.95732317  0.08412672  0.64779515  1
  P  P231  1  0.95842954  0.08508595  0.89693088  1
  P  P232  1  0.95695830  0.41503991  0.14739743  1
  P  P233  1  0.95742706  0.41826568  0.39700608  1
  P  P234  1  0.95774862  0.41565175  0.64711811  1
  P  P235  1  0.95620578  0.41568668  0.89630749  1
  P  P236  1  0.95781568  0.74777118  0.14742021  1
  P  P237  1  0.95744670  0.75105754  0.39761545  1
  P  P238  1  0.95715408  0.74986753  0.64648259  1
  P  P239  1  0.95760551  0.74811915  0.89793710  1
  P  P240  1  0.20773111  0.08283009  0.22969858  1
  P  P241  1  0.20817697  0.08205016  0.47860973  1
  P  P242  1  0.20839441  0.08534447  0.72788090  1
  P  P243  1  0.20825117  0.08470559  0.97739653  1
  P  P244  1  0.20772762  0.41688901  0.22970672  1
  P  P245  1  0.20894255  0.41592127  0.47732137  1
  P  P246  1  0.20827710  0.41525629  0.72835051  1
  P  P247  1  0.20746705  0.41577303  0.97766516  1
  P  P248  1  0.20855565  0.74830088  0.22876185  1
  P  P249  1  0.20908090  0.74980470  0.47668993  1
  P  P250  1  0.20821791  0.75125718  0.72728974  1
  P  P251  1  0.20864426  0.74823492  0.97792829  1
  P  P252  1  0.70797734  0.08319317  0.22565394  1
  P  P253  1  0.70722910  0.08444537  0.47718335  1
  P  P254  1  0.70750213  0.08165276  0.72783338  1
  P  P255  1  0.70865900  0.08320673  0.97637671  1
  P  P256  1  0.70757360  0.41759476  0.22733909  1
  P  P257  1  0.70705925  0.41641526  0.47896498  1
  P  P258  1  0.70816019  0.41624454  0.72605314  1
  P  P259  1  0.70601785  0.41698219  0.97849424  1
  P  P260  1  0.70758496  0.74870518  0.22721263  1
  P  P261  1  0.70766969  0.74933587  0.47739640  1
  P  P262  1  0.70778183  0.75233837  0.72766494  1
  P  P263  1  0.70794808  0.75138191  0.97747892  1
  P  P264  1  0.29287138  0.25011929  0.02164861  1
  P  P265  1  0.29298047  0.25104783  0.27372087  1
  P  P266  1  0.29132407  0.25036861  0.52385596  1
  P  P267  1  0.29107504  0.25056224  0.77303243  1
  P  P268  1  0.29264576  0.58460206  0.02269889  1
  P  P269  1  0.29163224  0.58339752  0.27376487  1
  P  P270  1  0.29307700  0.58277606  0.52099546  1
  P  P271  1  0.29269031  0.58460926  0.77253334  1
  P  P272  1  0.29358709  0.91678909  0.02212264  1
  P  P273  1  0.29180598  0.91651975  0.27418707  1
  P  P274  1  0.29234209  0.91512469  0.52176200  1
  P  P275  1  0.29385202  0.91692289  0.77136737  1
  P  P276  1  0.79144374  0.24802373  0.02153379  1
  P  P277  1  0.79140502  0.24806326  0.27153846  1
  P  P278  1  0.79179005  0.25064708  0.52204910  1
  P  P279  1  0.79081490  0.24882484  0.77181636  1
  P  P280  1  0.79090058  0.58342895  0.02338953  1
  P  P281  1  0.79141279  0.58476374  0.27185738  1
  P  P282  1  0.79199002  0.58268578  0.52240429  1
  P  P283  1  0.79238200  0.58299643  0.77109456  1
  P  P284  1  0.79211817  0.91818262  0.02120553  1
  P  P285  1  0.79264345  0.91705605  0.27075117  1
  P  P286  1  0.79087026  0.91721159  0.52328131  1
  P  P287  1  0.79147402  0.91680227  0.77285832  1
  O  O288  1  0.03719137  0.25004238  0.18253377  1
  O  O289  1  0.03748661  0.25202665  0.43248082  1
  O  O290  1  0.03689211  0.24974359  0.68392926  1
  O  O291  1  0.03612043  0.24906223  0.93134403  1
  O  O292  1  0.03645012  0.58430892  0.18300365  1
  O  O293  1  0.03675734  0.58344142  0.43282204  1
  O  O294  1  0.03812140  0.58146046  0.68212726  1
  O  O295  1  0.03752481  0.58340210  0.93372044  1
  O  O296  1  0.03841717  0.91605853  0.18324733  1
  O  O297  1  0.03714619  0.91581077  0.43386388  1
  O  O298  1  0.03742828  0.91569514  0.68262232  1
  O  O299  1  0.03884000  0.91631109  0.93344944  1
  O  O300  1  0.53678793  0.24918645  0.18252235  1
  O  O301  1  0.53668493  0.25038896  0.43287524  1
  O  O302  1  0.53543556  0.25013023  0.68202782  1
  O  O303  1  0.53670581  0.24997694  0.93131828  1
  O  O304  1  0.53705819  0.58232980  0.18372268  1
  O  O305  1  0.53685776  0.58239231  0.43287986  1
  O  O306  1  0.53658078  0.58481287  0.68311077  1
  O  O307  1  0.53691851  0.58390142  0.93117795  1
  O  O308  1  0.53640385  0.91677772  0.18159814  1
  O  O309  1  0.53679594  0.91718859  0.43131286  1
  O  O310  1  0.53757962  0.91838152  0.68185772  1
  O  O311  1  0.53683966  0.91757797  0.93361251  1
  O  O312  1  0.46304098  0.08178011  0.06730428  1
  O  O313  1  0.46347281  0.08284016  0.31832684  1
  O  O314  1  0.46316565  0.08557953  0.56682175  1
  O  O315  1  0.46391995  0.08500321  0.81819639  1
  O  O316  1  0.46322756  0.41611766  0.06908077  1
  O  O317  1  0.46365187  0.41523951  0.31757427  1
  O  O318  1  0.46330046  0.41616103  0.56852474  1
  O  O319  1  0.46276862  0.41745646  0.81585782  1
  O  O320  1  0.46308353  0.75219187  0.06769167  1
  O  O321  1  0.46383262  0.74962186  0.31734457  1
  O  O322  1  0.46392288  0.74867102  0.56706645  1
  O  O323  1  0.46365011  0.75079305  0.81738434  1
  O  O324  1  0.96303055  0.08404993  0.06616139  1
  O  O325  1  0.96160778  0.08377972  0.31685778  1
  O  O326  1  0.96200835  0.08376006  0.56779250  1
  O  O327  1  0.96386139  0.08519801  0.81696457  1
  O  O328  1  0.96175493  0.41527568  0.06740636  1
  O  O329  1  0.96251338  0.41749128  0.31703550  1
  O  O330  1  0.96311756  0.41683567  0.56717936  1
  O  O331  1  0.96143788  0.41526864  0.81634858  1
  O  O332  1  0.96301508  0.74739054  0.06746322  1
  O  O333  1  0.96270145  0.75033328  0.31765975  1
  O  O334  1  0.96236072  0.75061577  0.56651479  1
  O  O335  1  0.96257413  0.74849483  0.81793717  1
  O  O336  1  0.21308422  0.08428874  0.05742934  1
  O  O337  1  0.21300110  0.08217464  0.30966105  1
  O  O338  1  0.21351318  0.08277531  0.55854147  1
  O  O339  1  0.21359295  0.08590765  0.80783328  1
  O  O340  1  0.21251232  0.41629005  0.05765837  1
  O  O341  1  0.21302112  0.41680552  0.30961991  1
  O  O342  1  0.21378517  0.41585592  0.55733777  1
  O  O343  1  0.21343998  0.41532051  0.80827696  1
  O  O344  1  0.21410245  0.74795872  0.05788191  1
  O  O345  1  0.21400152  0.74852550  0.30864312  1
  O  O346  1  0.21375328  0.75070101  0.55665445  1
  O  O347  1  0.21350324  0.75056274  0.80721999  1
  O  O348  1  0.71410754  0.08339573  0.05625032  1
  O  O349  1  0.71273758  0.08352026  0.30565840  1
  O  O350  1  0.71211909  0.08388706  0.55708103  1
  O  O351  1  0.71300025  0.08189596  0.80769065  1
  O  O352  1  0.71147635  0.41739497  0.05843503  1
  O  O353  1  0.71276258  0.41734787  0.30730514  1
  O  O354  1  0.71270553  0.41627830  0.55885630  1
  O  O355  1  0.71265989  0.41615219  0.80612495  1
  O  O356  1  0.71297499  0.75073238  0.05744314  1
  O  O357  1  0.71279846  0.74853189  0.30717094  1
  O  O358  1  0.71297892  0.75032170  0.55731697  1
  O  O359  1  0.71305464  0.75245460  0.80761365  1
  O  O360  1  0.28815447  0.25079375  0.19373430  1
  O  O361  1  0.28664031  0.25057874  0.44388628  1
  O  O362  1  0.28587589  0.25043874  0.69311393  1
  O  O363  1  0.28743367  0.25005933  0.94169744  1
  O  O364  1  0.28675031  0.58368178  0.19375461  1
  O  O365  1  0.28766455  0.58256466  0.44109631  1
  O  O366  1  0.28765686  0.58409947  0.69256456  1
  O  O367  1  0.28744357  0.58455371  0.94272629  1
  O  O368  1  0.28721400  0.91632623  0.19417506  1
  O  O369  1  0.28673152  0.91541215  0.44190161  1
  O  O370  1  0.28859549  0.91642017  0.69139486  1
  O  O371  1  0.28877523  0.91692324  0.94215381  1
  O  O372  1  0.78604094  0.24802081  0.19157914  1
  O  O373  1  0.78674462  0.25009923  0.44209826  1
  O  O374  1  0.78562298  0.24963143  0.69186802  1
  O  O375  1  0.78598120  0.24802547  0.94160477  1
  O  O376  1  0.78586271  0.58438847  0.19197701  1
  O  O377  1  0.78671423  0.58328843  0.44247074  1
  O  O378  1  0.78718323  0.58253052  0.69116256  1
  O  O379  1  0.78611865  0.58362567  0.94337032  1
  O  O380  1  0.78759484  0.91740558  0.19082543  1
  O  O381  1  0.78622411  0.91704383  0.44326499  1
  O  O382  1  0.78607283  0.91668641  0.69292478  1
  O  O383  1  0.78652373  0.91773791  0.94132820  1
  O  O384  1  0.22862378  0.25020426  0.05732896  1
  O  O385  1  0.22854952  0.25105740  0.30894812  1
  O  O386  1  0.22715738  0.25061205  0.55968377  1
  O  O387  1  0.22708697  0.25055899  0.80959813  1
  O  O388  1  0.22835580  0.58517293  0.05848554  1
  O  O389  1  0.22757542  0.58370579  0.30986804  1
  O  O390  1  0.22889159  0.58290342  0.55674916  1
  O  O391  1  0.22840442  0.58482121  0.80812621  1
  O  O392  1  0.22913396  0.91623310  0.05710286  1
  O  O393  1  0.22760279  0.91693548  0.30981264  1
  O  O394  1  0.22833187  0.91512061  0.55826203  1
  O  O395  1  0.22954769  0.91722135  0.80671118  1
  O  O396  1  0.72725496  0.24836660  0.05741732  1
  O  O397  1  0.72721115  0.24795453  0.30751024  1
  O  O398  1  0.72750997  0.25102645  0.55768827  1
  O  O399  1  0.72661669  0.24802522  0.80769410  1
  O  O400  1  0.72669416  0.58319968  0.05912262  1
  O  O401  1  0.72734594  0.58523052  0.30825856  1
  O  O402  1  0.72781911  0.58248934  0.55825841  1
  O  O403  1  0.72799719  0.58384320  0.80631209  1
  O  O404  1  0.72804344  0.91844433  0.05749798  1
  O  O405  1  0.72827219  0.91677181  0.30599939  1
  O  O406  1  0.72664152  0.91767090  0.55896280  1
  O  O407  1  0.72746525  0.91711606  0.80936327  1
  O  O408  1  0.27206970  0.08310614  0.19429198  1
  O  O409  1  0.27239655  0.08193660  0.44281639  1
  O  O410  1  0.27261254  0.08482292  0.69216581  1
  O  O411  1  0.27267837  0.08546171  0.94214855  1
  O  O412  1  0.27198269  0.41735687  0.19402768  1
  O  O413  1  0.27311167  0.41559898  0.44140614  1
  O  O414  1  0.27250562  0.41488144  0.69247516  1
  O  O415  1  0.27179476  0.41548078  0.94221756  1
  O  O416  1  0.27270723  0.74788591  0.19251945  1
  O  O417  1  0.27326875  0.74885708  0.44093739  1
  O  O418  1  0.27251916  0.75170906  0.69151564  1
  O  O419  1  0.27283425  0.74826534  0.94194357  1
  O  O420  1  0.77221352  0.08296265  0.18981938  1
  O  O421  1  0.77156627  0.08478099  0.44154062  1
  O  O422  1  0.77160289  0.08148672  0.69161966  1
  O  O423  1  0.77254583  0.08315432  0.93956698  1
  O  O424  1  0.77169952  0.41758522  0.19143871  1
  O  O425  1  0.77113514  0.41640032  0.44296697  1
  O  O426  1  0.77240649  0.41610604  0.69038980  1
  O  O427  1  0.77034260  0.41632358  0.94311732  1
  O  O428  1  0.77181268  0.74887952  0.19145234  1
  O  O429  1  0.77190998  0.74875640  0.44152820  1
  O  O430  1  0.77196827  0.75195913  0.69186406  1
  O  O431  1  0.77219495  0.75165591  0.94177990  1
  O  O432  1  0.02169508  0.08370712  0.18176772  1
  O  O433  1  0.02092201  0.08343139  0.43175823  1
  O  O434  1  0.02178811  0.08467369  0.68283670  1
  O  O435  1  0.02261863  0.08541807  0.93284163  1
  O  O436  1  0.02137367  0.41521385  0.18265565  1
  O  O437  1  0.02181386  0.41882447  0.43254606  1
  O  O438  1  0.02195960  0.41424273  0.68295725  1
  O  O439  1  0.02055508  0.41605428  0.93153186  1
  O  O440  1  0.02211357  0.74758858  0.18307385  1
  O  O441  1  0.02174779  0.75162501  0.43331917  1
  O  O442  1  0.02160772  0.74954486  0.68151579  1
  O  O443  1  0.02206147  0.74749474  0.93314825  1
  O  O444  1  0.52216387  0.08178493  0.18295421  1
  O  O445  1  0.52304418  0.08445807  0.43396594  1
  O  O446  1  0.52207329  0.08604214  0.68269270  1
  O  O447  1  0.52293870  0.08396924  0.93441834  1
  O  O448  1  0.52262875  0.41654905  0.18488928  1
  O  O449  1  0.52215536  0.41492118  0.43383073  1
  O  O450  1  0.52290035  0.41721285  0.68425652  1
  O  O451  1  0.52143152  0.41684408  0.93163509  1
  O  O452  1  0.52217864  0.75145042  0.18324073  1
  O  O453  1  0.52273851  0.74879771  0.43316915  1
  O  O454  1  0.52264982  0.74880949  0.68290461  1
  O  O455  1  0.52248621  0.75235606  0.93332125  1
  O  O456  1  0.47777000  0.24832204  0.06677333  1
  O  O457  1  0.47770535  0.25051063  0.31709760  1
  O  O458  1  0.47669621  0.24972557  0.56557536  1
  O  O459  1  0.47688907  0.24973670  0.81569556  1
  O  O460  1  0.47801477  0.58375408  0.06834065  1
  O  O461  1  0.47810699  0.58151334  0.31693427  1
  O  O462  1  0.47805338  0.58489455  0.56689106  1
  O  O463  1  0.47750127  0.58415455  0.81546925  1
  O  O464  1  0.47748811  0.91701662  0.06527445  1
  O  O465  1  0.47714326  0.91677255  0.31568207  1
  O  O466  1  0.47805797  0.91795071  0.56657226  1
  O  O467  1  0.47855911  0.91749665  0.81756595  1
  O  O468  1  0.97798134  0.24786625  0.06701456  1
  O  O469  1  0.97789137  0.25216171  0.31729469  1
  O  O470  1  0.97829626  0.25049917  0.56832663  1
  O  O471  1  0.97676256  0.25011750  0.81543698  1
  O  O472  1  0.97756518  0.58435662  0.06724288  1
  O  O473  1  0.97770790  0.58462682  0.31708410  1
  O  O474  1  0.97859124  0.58165969  0.56696190  1
  O  O475  1  0.97867254  0.58239489  0.81844548  1
  O  O476  1  0.97942464  0.91615286  0.06808553  1
  O  O477  1  0.97838250  0.91612951  0.31835352  1
  O  O478  1  0.97778692  0.91488095  0.56744021  1
  O  O479  1  0.97903263  0.91660201  0.81884390  1
  O  O480  1  0.07288945  0.31269534  0.07399481  1
  O  O481  1  0.07282052  0.31568041  0.32382797  1
  O  O482  1  0.07412051  0.31308515  0.57577604  1
  O  O483  1  0.07158265  0.31376898  0.82363596  1
  O  O484  1  0.07311803  0.64709770  0.07426118  1
  O  O485  1  0.07241922  0.64829550  0.32501178  1
  O  O486  1  0.07422269  0.64499292  0.57442884  1
  O  O487  1  0.07398722  0.64616250  0.82486739  1
  O  O488  1  0.07494116  0.97949229  0.07523552  1
  O  O489  1  0.07344950  0.98000374  0.32610394  1
  O  O490  1  0.07297142  0.97922747  0.57486423  1
  O  O491  1  0.07463161  0.97977496  0.82515782  1
  O  O492  1  0.57289977  0.31245410  0.07441209  1
  O  O493  1  0.57268281  0.31402662  0.32408640  1
  O  O494  1  0.57099138  0.31436639  0.57397421  1
  O  O495  1  0.57136362  0.31394300  0.82265096  1
  O  O496  1  0.57350888  0.64655830  0.07599373  1
  O  O497  1  0.57344864  0.64528901  0.32489076  1
  O  O498  1  0.57327141  0.64778931  0.57417547  1
  O  O499  1  0.57254450  0.64800187  0.82345930  1
  O  O500  1  0.57247416  0.98044185  0.07318045  1
  O  O501  1  0.57218767  0.98048158  0.32258341  1
  O  O502  1  0.57247286  0.98222799  0.57314903  1
  O  O503  1  0.57355434  0.98131141  0.82560725  1
  O  O504  1  0.42727025  0.01823641  0.17637331  1
  O  O505  1  0.42892172  0.01938579  0.42717715  1
  O  O506  1  0.42709128  0.02181389  0.67477119  1
  O  O507  1  0.42790838  0.02065411  0.92588551  1
  O  O508  1  0.42805343  0.35224745  0.17725754  1
  O  O509  1  0.42713179  0.35185851  0.42639189  1
  O  O510  1  0.42811413  0.35319183  0.67730793  1
  O  O511  1  0.42607450  0.35371173  0.92406550  1
  O  O512  1  0.42664817  0.68821978  0.17525583  1
  O  O513  1  0.42817892  0.68485037  0.42527652  1
  O  O514  1  0.42711611  0.68612562  0.67604533  1
  O  O515  1  0.42762161  0.68788626  0.92569264  1
  O  O516  1  0.92666090  0.01974320  0.17377256  1
  O  O517  1  0.92514709  0.02061881  0.42508997  1
  O  O518  1  0.92670900  0.02035829  0.67596178  1
  O  O519  1  0.92774017  0.02105051  0.92442986  1
  O  O520  1  0.92656139  0.35135629  0.17591041  1
  O  O521  1  0.92638146  0.35486450  0.42543104  1
  O  O522  1  0.92640247  0.35216371  0.67489457  1
  O  O523  1  0.92505461  0.35239311  0.92470413  1
  O  O524  1  0.92666981  0.68481043  0.17662712  1
  O  O525  1  0.92649107  0.68751724  0.42579595  1
  O  O526  1  0.92635588  0.68592746  0.67400647  1
  O  O527  1  0.92652498  0.68475836  0.92622539  1
  O  O528  1  0.17647690  0.01978760  0.20079984  1
  O  O529  1  0.17757861  0.01830822  0.45041709  1
  O  O530  1  0.17705969  0.02162197  0.70058725  1
  O  O531  1  0.17771013  0.02092228  0.94921596  1
  O  O532  1  0.17681615  0.35348759  0.20102686  1
  O  O533  1  0.17759459  0.35261383  0.44912856  1
  O  O534  1  0.17704370  0.35217453  0.69958654  1
  O  O535  1  0.17666394  0.35222351  0.94941749  1
  O  O536  1  0.17743186  0.68504230  0.20015803  1
  O  O537  1  0.17780690  0.68615563  0.44911767  1
  O  O538  1  0.17713206  0.68777377  0.69901573  1
  O  O539  1  0.17771126  0.68507341  0.94886635  1
  O  O540  1  0.67745408  0.01935325  0.19732995  1
  O  O541  1  0.67621928  0.02100424  0.44875807  1
  O  O542  1  0.67658435  0.01829935  0.69907032  1
  O  O543  1  0.67755131  0.01965780  0.94833883  1
  O  O544  1  0.67639521  0.35391643  0.19988295  1
  O  O545  1  0.67569978  0.35321644  0.45035313  1
  O  O546  1  0.67735569  0.35251946  0.69803095  1
  O  O547  1  0.67478221  0.35340395  0.95063831  1
  O  O548  1  0.67659714  0.68553233  0.19829621  1
  O  O549  1  0.67692431  0.68557165  0.44947755  1
  O  O550  1  0.67651054  0.68874804  0.69998314  1
  O  O551  1  0.67664493  0.68801576  0.94929012  1
  O  O552  1  0.32416304  0.31354299  0.04987762  1
  O  O553  1  0.32351814  0.31460088  0.30224597  1
  O  O554  1  0.32264015  0.31352105  0.55249432  1
  O  O555  1  0.32205064  0.31410271  0.80142837  1
  O  O556  1  0.32408798  0.64751101  0.05150885  1
  O  O557  1  0.32329519  0.64647594  0.30199627  1
  O  O558  1  0.32428848  0.64622343  0.54914558  1
  O  O559  1  0.32336037  0.64828222  0.80062589  1
  O  O560  1  0.32415620  0.98042796  0.05045418  1
  O  O561  1  0.32290866  0.97991412  0.30252021  1
  O  O562  1  0.32371815  0.97860057  0.54969746  1
  O  O563  1  0.32487112  0.98071097  0.79904261  1
  O  O564  1  0.82266778  0.31166612  0.04928677  1
  O  O565  1  0.82227231  0.31196529  0.29915784  1
  O  O566  1  0.82254918  0.31423335  0.55051384  1
  O  O567  1  0.82173710  0.31224746  0.80023581  1
  O  O568  1  0.82142064  0.64730071  0.05151643  1
  O  O569  1  0.82241905  0.64808456  0.30066168  1
  O  O570  1  0.82339833  0.64600451  0.55040713  1
  O  O571  1  0.82368456  0.64652500  0.79895615  1
  O  O572  1  0.82308928  0.98168981  0.04951060  1
  O  O573  1  0.82377554  0.98021496  0.29947227  1
  O  O574  1  0.82193113  0.98071602  0.55142382  1
  O  O575  1  0.82268951  0.98030470  0.80100724  1
  O  O576  1  0.42653364  0.14502935  0.17543462  1
  O  O577  1  0.42722487  0.14669033  0.42628910  1
  O  O578  1  0.42668549  0.14870805  0.67582347  1
  O  O579  1  0.42821045  0.14801967  0.92676733  1
  O  O580  1  0.42747841  0.47986442  0.17724360  1
  O  O581  1  0.42701765  0.47871374  0.42542344  1
  O  O582  1  0.42782190  0.48062841  0.67626303  1
  O  O583  1  0.42612054  0.48042361  0.92445279  1
  O  O584  1  0.42726273  0.81525240  0.17675084  1
  O  O585  1  0.42712745  0.81204230  0.42550831  1
  O  O586  1  0.42782512  0.81322562  0.67430268  1
  O  O587  1  0.42716331  0.81501005  0.92537566  1
  O  O588  1  0.92594670  0.14663473  0.17456936  1
  O  O589  1  0.92586210  0.14767288  0.42484465  1
  O  O590  1  0.92634820  0.14759572  0.67610959  1
  O  O591  1  0.92715985  0.14822788  0.92550862  1
  O  O592  1  0.92584807  0.47863585  0.17523213  1
  O  O593  1  0.92676981  0.48199578  0.42528383  1
  O  O594  1  0.92711220  0.47924281  0.67559182  1
  O  O595  1  0.92508085  0.47919951  0.92448321  1
  O  O596  1  0.92707191  0.81191451  0.17466631  1
  O  O597  1  0.92649818  0.81461203  0.42584678  1
  O  O598  1  0.92586332  0.81285455  0.67548515  1
  O  O599  1  0.92707790  0.81201736  0.92597648  1
  O  O600  1  0.07355270  0.18561765  0.07443582  1
  O  O601  1  0.07333597  0.18832142  0.32493130  1
  O  O602  1  0.07339875  0.18643809  0.57542419  1
  O  O603  1  0.07188038  0.18639566  0.82258140  1
  O  O604  1  0.07242800  0.51989712  0.07564006  1
  O  O605  1  0.07329404  0.52120748  0.32437934  1
  O  O606  1  0.07343831  0.51774495  0.57345167  1
  O  O607  1  0.07432140  0.51938777  0.82603170  1
  O  O608  1  0.07476138  0.85241514  0.07547403  1
  O  O609  1  0.07414165  0.85310684  0.32553581  1
  O  O610  1  0.07316060  0.85193119  0.57406241  1
  O  O611  1  0.07440354  0.85269807  0.82533968  1
  O  O612  1  0.57281114  0.18532917  0.07411163  1
  O  O613  1  0.57319031  0.18718412  0.32463579  1
  O  O614  1  0.57238639  0.18725762  0.57357349  1
  O  O615  1  0.57234689  0.18668927  0.82283620  1
  O  O616  1  0.57315686  0.51965692  0.07497773  1
  O  O617  1  0.57301712  0.51814753  0.32482124  1
  O  O618  1  0.57304319  0.52082206  0.57553715  1
  O  O619  1  0.57242113  0.52049390  0.82258663  1
  O  O620  1  0.57237610  0.85323686  0.07322435  1
  O  O621  1  0.57210803  0.85313484  0.32311494  1
  O  O622  1  0.57377973  0.85498435  0.57415477  1
  O  O623  1  0.57412840  0.85458389  0.82532197  1
  O  O624  1  0.32402469  0.18684940  0.05039967  1
  O  O625  1  0.32403151  0.18742048  0.30161563  1
  O  O626  1  0.32152614  0.18617182  0.55194289  1
  O  O627  1  0.32205942  0.18694310  0.80139909  1
  O  O628  1  0.32304624  0.52046556  0.05058788  1
  O  O629  1  0.32178717  0.51919636  0.30189833  1
  O  O630  1  0.32430027  0.51949409  0.54965990  1
  O  O631  1  0.32363588  0.52098572  0.80049080  1
  O  O632  1  0.32471774  0.85336888  0.05032045  1
  O  O633  1  0.32203403  0.85237780  0.30232364  1
  O  O634  1  0.32319263  0.85157783  0.55027754  1
  O  O635  1  0.32510966  0.85380361  0.80000046  1
  O  O636  1  0.82233537  0.18466183  0.05008600  1
  O  O637  1  0.82233578  0.18479467  0.30034061  1
  O  O638  1  0.82293388  0.18722097  0.55032745  1
  O  O639  1  0.82181334  0.18511029  0.79963971  1
  O  O640  1  0.82177458  0.51973852  0.05150278  1
  O  O641  1  0.82249645  0.52112712  0.29994583  1
  O  O642  1  0.82256296  0.51884225  0.55058278  1
  O  O643  1  0.82317927  0.51961382  0.79984289  1
  O  O644  1  0.82337949  0.85470470  0.04936990  1
  O  O645  1  0.82362890  0.85341935  0.29885615  1
  O  O646  1  0.82112979  0.85324481  0.55166470  1
  O  O647  1  0.82230319  0.85319475  0.80143829  1
  O  O648  1  0.17685425  0.14670235  0.20204107  1
  O  O649  1  0.17672307  0.14542169  0.45058819  1
  O  O650  1  0.17773874  0.14866721  0.69872762  1
  O  O651  1  0.17714218  0.14807834  0.94903366  1
  O  O652  1  0.17630147  0.48016568  0.20123596  1
  O  O653  1  0.17875963  0.48001002  0.44893840  1
  O  O654  1  0.17766608  0.47925209  0.70051416  1
  O  O655  1  0.17652830  0.47943984  0.94975134  1
  O  O656  1  0.17771504  0.81206080  0.20057679  1
  O  O657  1  0.17883064  0.81347926  0.44754110  1
  O  O658  1  0.17752548  0.81492634  0.69897766  1
  O  O659  1  0.17765532  0.81218190  0.95059234  1
  O  O660  1  0.67704586  0.14667972  0.19710220  1
  O  O661  1  0.67673029  0.14814637  0.44863432  1
  O  O662  1  0.67629124  0.14517512  0.69973667  1
  O  O663  1  0.67766259  0.14681306  0.94798475  1
  O  O664  1  0.67683142  0.48124951  0.19929077  1
  O  O665  1  0.67573962  0.47986616  0.45088414  1
  O  O666  1  0.67771241  0.48020201  0.69801041  1
  O  O667  1  0.67505951  0.48025378  0.94963459  1
  O  O668  1  0.67657317  0.81254392  0.19960002  1
  O  O669  1  0.67656603  0.81271258  0.44881450  1
  O  O670  1  0.67707260  0.81576412  0.69880542  1
  O  O671  1  0.67733855  0.81516752  0.94931283  1
