# generated using pymatgen
data_Na2MnFe(PO4)2
_symmetry_space_group_name_H-M   'P 1'
_cell_length_a   22.34858995
_cell_length_b   20.10406771
_cell_length_c   19.44647041
_cell_angle_alpha   89.98651894
_cell_angle_beta   89.90687890
_cell_angle_gamma   90.04388908
_symmetry_Int_Tables_number   1
_chemical_formula_structural   Na2MnFe(PO4)2
_chemical_formula_sum   'Na96 Mn48 Fe48 P96 O384'
_cell_volume   8737.23746701
_cell_formula_units_Z   48
loop_
 _symmetry_equiv_pos_site_id
 _symmetry_equiv_pos_as_xyz
  1  'x, y, z'
loop_
 _atom_site_type_symbol
 _atom_site_label
 _atom_site_symmetry_multiplicity
 _atom_site_fract_x
 _atom_site_fract_y
 _atom_site_fract_z
 _atom_site_occupancy
  Na  Na0  1  0.14001094  0.25108879  0.24397948  1
  Na  Na1  1  0.14096951  0.25094772  0.49365939  1
  Na  Na2  1  0.14045589  0.25030323  0.74448558  1
  Na  Na3  1  0.14002103  0.25002036  0.99631903  1
  Na  Na4  1  0.14049176  0.58220475  0.24302694  1
  Na  Na5  1  0.14017346  0.58193217  0.49255679  1
  Na  Na6  1  0.14045059  0.58213096  0.74391085  1
  Na  Na7  1  0.14008362  0.58279533  0.99499028  1
  Na  Na8  1  0.14038365  0.91635360  0.24335414  1
  Na  Na9  1  0.14051520  0.91706171  0.49350460  1
  Na  Na10  1  0.14029915  0.91729215  0.74413248  1
  Na  Na11  1  0.14017361  0.91656804  0.99511759  1
  Na  Na12  1  0.64080110  0.25067354  0.24290674  1
  Na  Na13  1  0.64118411  0.25024442  0.49386935  1
  Na  Na14  1  0.64084284  0.24980341  0.74308370  1
  Na  Na15  1  0.64092050  0.25041023  0.99276822  1
  Na  Na16  1  0.64127706  0.58363480  0.24317761  1
  Na  Na17  1  0.64138872  0.58322721  0.49318432  1
  Na  Na18  1  0.64148612  0.58165616  0.74339696  1
  Na  Na19  1  0.64090621  0.58203754  0.99303896  1
  Na  Na20  1  0.64105433  0.91831574  0.24387322  1
  Na  Na21  1  0.64100009  0.91819763  0.49321990  1
  Na  Na22  1  0.64052582  0.91629358  0.74253315  1
  Na  Na23  1  0.64070177  0.91762056  0.99281301  1
  Na  Na24  1  0.36028726  0.08379315  0.00706889  1
  Na  Na25  1  0.35975387  0.08494814  0.25585047  1
  Na  Na26  1  0.35965055  0.08436831  0.50644465  1
  Na  Na27  1  0.36014269  0.08508319  0.75673730  1
  Na  Na28  1  0.35934563  0.41619854  0.00654987  1
  Na  Na29  1  0.35944567  0.41549922  0.25516629  1
  Na  Na30  1  0.35950102  0.41537610  0.50531093  1
  Na  Na31  1  0.35985073  0.41580893  0.75588745  1
  Na  Na32  1  0.35937685  0.74917073  0.00644475  1
  Na  Na33  1  0.35950817  0.74887891  0.25468504  1
  Na  Na34  1  0.35968477  0.75012496  0.50554269  1
  Na  Na35  1  0.35974753  0.75067567  0.75569415  1
  Na  Na36  1  0.85884355  0.08386218  0.00738956  1
  Na  Na37  1  0.85889772  0.08476617  0.25765405  1
  Na  Na38  1  0.85882287  0.08418958  0.50587071  1
  Na  Na39  1  0.85914165  0.08263142  0.75652162  1
  Na  Na40  1  0.85868620  0.41601744  0.00712522  1
  Na  Na41  1  0.85907932  0.41728328  0.25788454  1
  Na  Na42  1  0.85913597  0.41706671  0.50612140  1
  Na  Na43  1  0.85896069  0.41539429  0.75579369  1
  Na  Na44  1  0.85906959  0.74932873  0.00716298  1
  Na  Na45  1  0.85903542  0.75111722  0.25777675  1
  Na  Na46  1  0.85960682  0.74977599  0.50693876  1
  Na  Na47  1  0.85923480  0.74793052  0.75580067  1
  Na  Na48  1  0.10910273  0.08449388  0.12052298  1
  Na  Na49  1  0.10946646  0.08397032  0.36842657  1
  Na  Na50  1  0.10966896  0.08315945  0.61872670  1
  Na  Na51  1  0.10929451  0.08278555  0.87050885  1
  Na  Na52  1  0.10977868  0.41697392  0.11976402  1
  Na  Na53  1  0.10967468  0.41640940  0.36741377  1
  Na  Na54  1  0.10997669  0.41658477  0.61802870  1
  Na  Na55  1  0.10982015  0.41588652  0.87010172  1
  Na  Na56  1  0.10973931  0.75098646  0.11879722  1
  Na  Na57  1  0.10937971  0.74878244  0.36833490  1
  Na  Na58  1  0.10922010  0.74892845  0.61826501  1
  Na  Na59  1  0.10951191  0.74948930  0.87060054  1
  Na  Na60  1  0.61009615  0.08445756  0.11853046  1
  Na  Na61  1  0.61045541  0.08333998  0.36881095  1
  Na  Na62  1  0.61067068  0.08354542  0.61901764  1
  Na  Na63  1  0.60963143  0.08394583  0.86760256  1
  Na  Na64  1  0.61080659  0.41582061  0.11750047  1
  Na  Na65  1  0.61089047  0.41564735  0.36746733  1
  Na  Na66  1  0.61077190  0.41593909  0.61843882  1
  Na  Na67  1  0.61053950  0.41612581  0.86787165  1
  Na  Na68  1  0.61038808  0.75116578  0.11789366  1
  Na  Na69  1  0.61061315  0.75057491  0.36801096  1
  Na  Na70  1  0.60977566  0.75114866  0.61805277  1
  Na  Na71  1  0.60982990  0.75121383  0.86790939  1
  Na  Na72  1  0.38996548  0.24968103  0.13112652  1
  Na  Na73  1  0.38981309  0.24844291  0.38145676  1
  Na  Na74  1  0.39010800  0.24944608  0.63231406  1
  Na  Na75  1  0.39034335  0.25058622  0.88108372  1
  Na  Na76  1  0.39019862  0.58269911  0.13078582  1
  Na  Na77  1  0.39033429  0.58249932  0.37977868  1
  Na  Na78  1  0.39086530  0.58325335  0.63054966  1
  Na  Na79  1  0.39080163  0.58341208  0.88109166  1
  Na  Na80  1  0.39077538  0.91796950  0.13034389  1
  Na  Na81  1  0.39048872  0.91704816  0.38027964  1
  Na  Na82  1  0.39102733  0.91826015  0.63114858  1
  Na  Na83  1  0.39086521  0.91815539  0.88042163  1
  Na  Na84  1  0.88919459  0.25123699  0.13359966  1
  Na  Na85  1  0.88914337  0.25091208  0.38149614  1
  Na  Na86  1  0.88933160  0.24972845  0.63154551  1
  Na  Na87  1  0.88911988  0.24905697  0.88241128  1
  Na  Na88  1  0.88981841  0.58398539  0.13279293  1
  Na  Na89  1  0.88984901  0.58356767  0.38274187  1
  Na  Na90  1  0.88938653  0.58293110  0.63065396  1
  Na  Na91  1  0.88970807  0.58245855  0.88141427  1
  Na  Na92  1  0.88977002  0.91756447  0.13230040  1
  Na  Na93  1  0.88981488  0.91548274  0.38211301  1
  Na  Na94  1  0.89000656  0.91576878  0.63066605  1
  Na  Na95  1  0.88965108  0.91511923  0.88210141  1
  Mn  Mn96  1  0.74981680  0.66710791  0.12521381  1
  Mn  Mn97  1  0.50054746  0.83412473  0.24916306  1
  Mn  Mn98  1  0.49971634  0.83499459  -0.00125440  1
  Mn  Mn99  1  0.24972528  0.66539642  0.37443284  1
  Mn  Mn100  1  0.24970867  0.83329236  0.87511720  1
  Mn  Mn101  1  0.25037187  0.49840625  0.87485565  1
  Mn  Mn102  1  0.00007917  0.66569796  0.74954101  1
  Mn  Mn103  1  0.74984532  0.66547395  0.87545197  1
  Mn  Mn104  1  -0.00037452  0.83225900  0.75076697  1
  Mn  Mn105  1  0.25040871  0.00185427  0.62440631  1
  Mn  Mn106  1  0.00006851  0.49985486  0.75023587  1
  Mn  Mn107  1  -0.00022408  0.16672665  0.49975459  1
  Mn  Mn108  1  0.50064334  0.66654402  0.24898448  1
  Mn  Mn109  1  0.74998117  0.83296489  0.62451617  1
  Mn  Mn110  1  -0.00029906  -0.00004241  0.25105606  1
  Mn  Mn111  1  -0.00051005  0.66723428  0.25118286  1
  Mn  Mn112  1  0.50041904  0.00118807  0.24967437  1
  Mn  Mn113  1  0.75007895  0.00070101  0.12507575  1
  Mn  Mn114  1  0.25042883  0.49850118  0.62437239  1
  Mn  Mn115  1  0.25008405  0.66592794  0.62450968  1
  Mn  Mn116  1  -0.00102593  0.50078045  0.00061369  1
  Mn  Mn117  1  0.24983606  0.66593500  0.87531711  1
  Mn  Mn118  1  0.24954452  0.16809814  0.87610103  1
  Mn  Mn119  1  0.24987881  0.83387105  0.62502217  1
  Mn  Mn120  1  -0.00043404  0.16610922  0.00140762  1
  Mn  Mn121  1  0.24976934  0.00045306  0.12564648  1
  Mn  Mn122  1  0.25008990  0.00079867  0.87573539  1
  Mn  Mn123  1  -0.00048165  0.33297946  0.75014738  1
  Mn  Mn124  1  -0.00036980  -0.00106587  0.74989559  1
  Mn  Mn125  1  0.49982632  0.33179313  0.24870757  1
  Mn  Mn126  1  -0.00075299  -0.00136297  0.49910847  1
  Mn  Mn127  1  -0.00052523  0.83352683  0.00045235  1
  Mn  Mn128  1  0.50053762  0.66716694  0.49984173  1
  Mn  Mn129  1  0.50018904  0.83466614  0.49931165  1
  Mn  Mn130  1  0.50096480  0.49944918  0.74982445  1
  Mn  Mn131  1  0.50069388  0.49935276  0.24949323  1
  Mn  Mn132  1  0.75016922  -0.00040333  0.87511031  1
  Mn  Mn133  1  -0.00061204  0.16579597  0.75088743  1
  Mn  Mn134  1  0.50118489  0.66769158  0.75002354  1
  Mn  Mn135  1  0.25051727  0.00147071  0.37429405  1
  Mn  Mn136  1  0.49998590  0.66652977  -0.00136334  1
  Mn  Mn137  1  0.50050104  0.33214634  0.49964072  1
  Mn  Mn138  1  0.50026383  0.33298353  -0.00051848  1
  Mn  Mn139  1  0.00013202  0.33383150  0.49984277  1
  Mn  Mn140  1  -0.00071023  0.33340189  0.00131080  1
  Mn  Mn141  1  0.50112431  0.16555937  0.50112614  1
  Mn  Mn142  1  0.50065132  0.49919055  0.49988351  1
  Mn  Mn143  1  0.24999497  0.83309995  0.37430148  1
  Fe  Fe144  1  0.50043814  0.16692748  -0.00093807  1
  Fe  Fe145  1  0.49988972  0.83481319  0.74910197  1
  Fe  Fe146  1  0.75007411  0.83420095  0.37560517  1
  Fe  Fe147  1  0.50030968  0.16657218  0.75024583  1
  Fe  Fe148  1  0.50042569  0.00061619  0.50040181  1
  Fe  Fe149  1  0.25053164  0.83297910  0.12471499  1
  Fe  Fe150  1  0.25008369  0.33290982  0.12592319  1
  Fe  Fe151  1  0.74984338  0.83240908  0.87455323  1
  Fe  Fe152  1  0.50051099  0.00112391  0.75031063  1
  Fe  Fe153  1  0.50068836  0.00124639  -0.00080533  1
  Fe  Fe154  1  0.75016621  0.33280264  0.87472846  1
  Fe  Fe155  1  0.24975642  0.16787047  0.62565078  1
  Fe  Fe156  1  0.74997705  0.83405388  0.12587575  1
  Fe  Fe157  1  0.49998067  0.33322767  0.75030832  1
  Fe  Fe158  1  0.74975570  0.33370929  0.12488239  1
  Fe  Fe159  1  0.49998293  0.16612074  0.24975553  1
  Fe  Fe160  1  -0.00110392  0.16710704  0.24996261  1
  Fe  Fe161  1  -0.00024533  0.50089411  0.25050122  1
  Fe  Fe162  1  -0.00028777  0.66691092  0.00118268  1
  Fe  Fe163  1  -0.00020575  0.83355181  0.24997702  1
  Fe  Fe164  1  0.24987509  0.66562207  0.12508231  1
  Fe  Fe165  1  -0.00010724  0.66596043  0.49953004  1
  Fe  Fe166  1  0.75073371  0.49873753  0.87457550  1
  Fe  Fe167  1  0.74980033  0.50022449  0.37523117  1
  Fe  Fe168  1  0.75007088  0.00133254  0.37463442  1
  Fe  Fe169  1  0.24974798  0.33315770  0.62437336  1
  Fe  Fe170  1  0.74969106  0.33377130  0.37498211  1
  Fe  Fe171  1  0.24984589  0.33299403  0.87569967  1
  Fe  Fe172  1  -0.00054127  -0.00000606  0.00123839  1
  Fe  Fe173  1  0.74953947  0.66614717  0.62474159  1
  Fe  Fe174  1  0.00037924  0.83229085  0.50028751  1
  Fe  Fe175  1  0.75033149  0.16669062  0.62470222  1
  Fe  Fe176  1  0.24989407  0.49884787  0.12480026  1
  Fe  Fe177  1  0.75007297  0.16690107  0.87486481  1
  Fe  Fe178  1  -0.00044641  0.49990190  0.49945858  1
  Fe  Fe179  1  0.74974446  0.16788731  0.37523648  1
  Fe  Fe180  1  0.24980065  0.16749519  0.12577331  1
  Fe  Fe181  1  0.74997284  0.49924735  0.62456859  1
  Fe  Fe182  1  0.75028168  0.49959995  0.12515554  1
  Fe  Fe183  1  0.25010988  0.33300249  0.37457111  1
  Fe  Fe184  1  0.75039826  0.00017200  0.62424961  1
  Fe  Fe185  1  0.25040031  0.49893784  0.37394229  1
  Fe  Fe186  1  0.24964764  0.16794824  0.37556934  1
  Fe  Fe187  1  0.74990769  0.16780698  0.12540245  1
  Fe  Fe188  1  0.50050280  0.49965775  -0.00064240  1
  Fe  Fe189  1  0.75014725  0.33293172  0.62488527  1
  Fe  Fe190  1  0.74999654  0.66719839  0.37506009  1
  Fe  Fe191  1  -0.00069513  0.33429835  0.25088031  1
  P  P192  1  0.04146295  0.25035495  0.10536740  1
  P  P193  1  0.04050252  0.25016444  0.35139374  1
  P  P194  1  0.04266082  0.24985375  0.60313757  1
  P  P195  1  0.04229512  0.24948892  0.85400267  1
  P  P196  1  0.04152896  0.58473598  0.10371610  1
  P  P197  1  0.04192423  0.58220638  0.35327549  1
  P  P198  1  0.04125656  0.58260921  0.60092470  1
  P  P199  1  0.04277598  0.58345859  0.85400459  1
  P  P200  1  0.04181681  0.91799539  0.10352580  1
  P  P201  1  0.04224780  0.91435114  0.35296522  1
  P  P202  1  0.04224384  0.91503132  0.60213393  1
  P  P203  1  0.04250793  0.91639745  0.85417110  1
  P  P204  1  0.54236079  0.24814733  0.10199795  1
  P  P205  1  0.54247740  0.24785748  0.35192376  1
  P  P206  1  0.54307868  0.24972110  0.60439791  1
  P  P207  1  0.54153191  0.24983608  0.85153600  1
  P  P208  1  0.54272733  0.58215380  0.10145067  1
  P  P209  1  0.54373072  0.58312640  0.35258780  1
  P  P210  1  0.54363447  0.58333536  0.60289039  1
  P  P211  1  0.54352101  0.58299778  0.85313106  1
  P  P212  1  0.54280392  0.91918309  0.10144555  1
  P  P213  1  0.54327461  0.91767680  0.35306465  1
  P  P214  1  0.54258739  0.91875969  0.60306278  1
  P  P215  1  0.54191888  0.91795122  0.85117120  1
  P  P216  1  0.45789882  0.08514477  0.14631142  1
  P  P217  1  0.45802212  0.08244638  0.39767304  1
  P  P218  1  0.45901539  0.08318702  0.64858446  1
  P  P219  1  0.45869456  0.08396410  0.89747320  1
  P  P220  1  0.45783280  0.41640372  0.14559107  1
  P  P221  1  0.45776925  0.41554410  0.39627476  1
  P  P222  1  0.45811955  0.41498483  0.64750338  1
  P  P223  1  0.45810309  0.41728484  0.89699492  1
  P  P224  1  0.45764723  0.75051667  0.14584524  1
  P  P225  1  0.45744731  0.75030242  0.39626600  1
  P  P226  1  0.45816924  0.75189552  0.64731773  1
  P  P227  1  0.45728089  0.75128617  0.89565842  1
  P  P228  1  0.95690136  0.08419790  0.14818647  1
  P  P229  1  0.95681438  0.08347217  0.39630092  1
  P  P230  1  0.95663313  0.08262574  0.64681930  1
  P  P231  1  0.95684865  0.08146163  0.89860016  1
  P  P232  1  0.95807748  0.41784012  0.14952189  1
  P  P233  1  0.95775883  0.41806688  0.39679855  1
  P  P234  1  0.95719908  0.41706787  0.64632616  1
  P  P235  1  0.95641724  0.41637320  0.89766119  1
  P  P236  1  0.95732152  0.75124930  0.14810123  1
  P  P237  1  0.95851834  0.74990261  0.39852653  1
  P  P238  1  0.95711543  0.74925477  0.64600967  1
  P  P239  1  0.95695514  0.74816556  0.89840035  1
  P  P240  1  0.20775689  0.08581511  0.22841048  1
  P  P241  1  0.20773977  0.08575479  0.47773377  1
  P  P242  1  0.20751892  0.08536339  0.72777046  1
  P  P243  1  0.20738023  0.08433088  0.97963235  1
  P  P244  1  0.20877303  0.41607580  0.22723712  1
  P  P245  1  0.20858571  0.41582248  0.47595674  1
  P  P246  1  0.20764481  0.41442888  0.72754198  1
  P  P247  1  0.20787447  0.41474348  0.97891515  1
  P  P248  1  0.20845438  0.74928694  0.22611511  1
  P  P249  1  0.20697188  0.74957876  0.47758274  1
  P  P250  1  0.20683571  0.74963376  0.72798453  1
  P  P251  1  0.20756741  0.74954421  0.97952457  1
  P  P252  1  0.70846334  0.08553583  0.22795090  1
  P  P253  1  0.70896455  0.08430185  0.47699104  1
  P  P254  1  0.70945819  0.08314323  0.72639588  1
  P  P255  1  0.70799685  0.08505150  0.97726517  1
  P  P256  1  0.70886438  0.41675387  0.22708980  1
  P  P257  1  0.70897816  0.41659776  0.47701547  1
  P  P258  1  0.70902720  0.41573559  0.72685386  1
  P  P259  1  0.70893884  0.41598692  0.97663151  1
  P  P260  1  0.70806345  0.75193457  0.22839728  1
  P  P261  1  0.70901809  0.75016559  0.47690453  1
  P  P262  1  0.70778260  0.74815306  0.72729792  1
  P  P263  1  0.70778224  0.75098276  0.97768159  1
  P  P264  1  0.29154320  0.25060647  0.02373275  1
  P  P265  1  0.29132819  0.25020184  0.27285068  1
  P  P266  1  0.29181359  0.25007208  0.52295416  1
  P  P267  1  0.29202710  0.25151904  0.77223511  1
  P  P268  1  0.29126567  0.58242833  0.02344850  1
  P  P269  1  0.29183382  0.58114919  0.27099202  1
  P  P270  1  0.29296560  0.58200061  0.52077012  1
  P  P271  1  0.29319463  0.58244015  0.77177835  1
  P  P272  1  0.29230955  0.91591428  0.02285804  1
  P  P273  1  0.29272777  0.91660363  0.27086164  1
  P  P274  1  0.29312498  0.91751023  0.52146141  1
  P  P275  1  0.29277316  0.91769867  0.77195858  1
  P  P276  1  0.79136705  0.25058871  0.02322209  1
  P  P277  1  0.79070265  0.25101348  0.27304433  1
  P  P278  1  0.79113487  0.25023429  0.52270856  1
  P  P279  1  0.79112950  0.24959046  0.77275464  1
  P  P280  1  0.79177656  0.58165311  0.02285395  1
  P  P281  1  0.79114591  0.58357284  0.27371212  1
  P  P282  1  0.79064621  0.58324856  0.52269224  1
  P  P283  1  0.79200477  0.58118623  0.77183844  1
  P  P284  1  0.79182933  0.91538417  0.02277920  1
  P  P285  1  0.79116454  0.91731050  0.27360167  1
  P  P286  1  0.79189139  0.91806039  0.52155111  1
  P  P287  1  0.79198646  0.91492007  0.77231831  1
  O  O288  1  0.03587355  0.25043014  0.18527152  1
  O  O289  1  0.03604191  0.25043990  0.43141434  1
  O  O290  1  0.03762119  0.24977180  0.68313450  1
  O  O291  1  0.03720148  0.24945331  0.93404525  1
  O  O292  1  0.03627978  0.58419254  0.18368577  1
  O  O293  1  0.03666419  0.58214715  0.43316674  1
  O  O294  1  0.03704470  0.58284834  0.68100796  1
  O  O295  1  0.03750737  0.58411707  0.93398600  1
  O  O296  1  0.03651811  0.91724464  0.18348522  1
  O  O297  1  0.03699648  0.91395188  0.43291963  1
  O  O298  1  0.03721875  0.91531509  0.68216791  1
  O  O299  1  0.03721208  0.91718882  0.93417712  1
  O  O300  1  0.53721102  0.24789186  0.18196489  1
  O  O301  1  0.53774282  0.24810316  0.43195753  1
  O  O302  1  0.53784375  0.25027257  0.68430150  1
  O  O303  1  0.53682968  0.24924659  0.93155206  1
  O  O304  1  0.53768366  0.58246303  0.18148026  1
  O  O305  1  0.53884414  0.58310322  0.43259949  1
  O  O306  1  0.53864496  0.58345002  0.68289484  1
  O  O307  1  0.53807350  0.58238529  0.93309268  1
  O  O308  1  0.53779712  0.91882898  0.18143438  1
  O  O309  1  0.53820820  0.91817702  0.43305241  1
  O  O310  1  0.53705918  0.91835832  0.68297147  1
  O  O311  1  0.53677203  0.91852550  0.93115343  1
  O  O312  1  0.46329671  0.08500422  0.06643849  1
  O  O313  1  0.46296301  0.08342173  0.31768988  1
  O  O314  1  0.46382696  0.08285088  0.56862372  1
  O  O315  1  0.46397715  0.08379409  0.81756437  1
  O  O316  1  0.46311346  0.41686464  0.06562202  1
  O  O317  1  0.46269146  0.41534145  0.31624708  1
  O  O318  1  0.46312291  0.41512247  0.56747448  1
  O  O319  1  0.46350997  0.41640720  0.81703759  1
  O  O320  1  0.46252585  0.75042109  0.06582460  1
  O  O321  1  0.46255010  0.75025046  0.31624095  1
  O  O322  1  0.46335098  0.75173412  0.56729300  1
  O  O323  1  0.46277643  0.75180400  0.81569819  1
  O  O324  1  0.96224264  0.08326412  0.06822100  1
  O  O325  1  0.96203010  0.08402674  0.31632848  1
  O  O326  1  0.96169324  0.08270954  0.56681650  1
  O  O327  1  0.96186152  0.08171607  0.81856302  1
  O  O328  1  0.96246333  0.41739574  0.06951097  1
  O  O329  1  0.96291260  0.41813867  0.31687076  1
  O  O330  1  0.96242469  0.41748357  0.56631773  1
  O  O331  1  0.96152997  0.41629748  0.81766342  1
  O  O332  1  0.96250493  0.75044752  0.06817670  1
  O  O333  1  0.96305654  0.75020699  0.31850610  1
  O  O334  1  0.96244756  0.74938366  0.56606868  1
  O  O335  1  0.96199961  0.74825775  0.81838408  1
  O  O336  1  0.21264095  0.08458360  0.05958138  1
  O  O337  1  0.21321548  0.08603764  0.30835522  1
  O  O338  1  0.21294274  0.08578821  0.55771701  1
  O  O339  1  0.21238105  0.08494706  0.80779186  1
  O  O340  1  0.21323918  0.41499449  0.05879769  1
  O  O341  1  0.21363350  0.41653711  0.30709283  1
  O  O342  1  0.21336464  0.41526840  0.55594306  1
  O  O343  1  0.21278912  0.41442004  0.80750995  1
  O  O344  1  0.21324500  0.74962440  0.05943332  1
  O  O345  1  0.21341083  0.74918590  0.30611528  1
  O  O346  1  0.21190223  0.74960532  0.55754378  1
  O  O347  1  0.21192344  0.74950594  0.80801652  1
  O  O348  1  0.71317330  0.08502966  0.05716536  1
  O  O349  1  0.71369174  0.08552466  0.30778766  1
  O  O350  1  0.71403948  0.08365701  0.55684666  1
  O  O351  1  0.71415393  0.08323386  0.80631585  1
  O  O352  1  0.71374192  0.41542565  0.05650572  1
  O  O353  1  0.71358142  0.41721118  0.30696551  1
  O  O354  1  0.71393633  0.41591817  0.55685053  1
  O  O355  1  0.71417761  0.41623776  0.80669581  1
  O  O356  1  0.71284914  0.75127840  0.05766142  1
  O  O357  1  0.71357480  0.75174918  0.30825497  1
  O  O358  1  0.71395396  0.74924564  0.55686230  1
  O  O359  1  0.71297662  0.74854550  0.80723086  1
  O  O360  1  0.28619757  0.25006666  0.19296069  1
  O  O361  1  0.28667226  0.24978852  0.44305248  1
  O  O362  1  0.28676343  0.25114512  0.69236713  1
  O  O363  1  0.28640214  0.25120764  0.94379737  1
  O  O364  1  0.28630523  0.58153721  0.19110715  1
  O  O365  1  0.28777147  0.58153419  0.44078093  1
  O  O366  1  0.28830187  0.58229549  0.69175492  1
  O  O367  1  0.28671239  0.58221206  0.94342265  1
  O  O368  1  0.28724820  0.91619588  0.19090730  1
  O  O369  1  0.28811259  0.91771886  0.44144985  1
  O  O370  1  0.28775647  0.91794808  0.69196562  1
  O  O371  1  0.28716946  0.91633836  0.94288763  1
  O  O372  1  0.78584106  0.25171524  0.19318533  1
  O  O373  1  0.78587613  0.24976756  0.44286650  1
  O  O374  1  0.78630884  0.24997439  0.69289631  1
  O  O375  1  0.78666365  0.25000678  0.94335058  1
  O  O376  1  0.78666287  0.58380154  0.19376471  1
  O  O377  1  0.78563183  0.58317863  0.44280939  1
  O  O378  1  0.78647489  0.58192623  0.69200818  1
  O  O379  1  0.78689646  0.58122317  0.94293714  1
  O  O380  1  0.78623648  0.91721031  0.19361808  1
  O  O381  1  0.78637145  0.91787556  0.44170163  1
  O  O382  1  0.78693331  0.91552012  0.69241234  1
  O  O383  1  0.78664482  0.91515344  0.94285967  1
  O  O384  1  0.22745871  0.25061463  0.06010361  1
  O  O385  1  0.22721319  0.25028803  0.30918842  1
  O  O386  1  0.22765300  0.25015063  0.55931070  1
  O  O387  1  0.22783899  0.25199333  0.80845978  1
  O  O388  1  0.22710096  0.58319120  0.05927192  1
  O  O389  1  0.22776868  0.58074365  0.30743392  1
  O  O390  1  0.22856040  0.58201420  0.55611220  1
  O  O391  1  0.22869798  0.58213568  0.80674370  1
  O  O392  1  0.22804087  0.91580266  0.05852950  1
  O  O393  1  0.22846052  0.91721336  0.30643476  1
  O  O394  1  0.22865067  0.91773831  0.55649802  1
  O  O395  1  0.22831410  0.91754997  0.80706385  1
  O  O396  1  0.72718863  0.25133373  0.05937784  1
  O  O397  1  0.72666443  0.25032885  0.30939633  1
  O  O398  1  0.72726033  0.25076718  0.55948943  1
  O  O399  1  0.72708089  0.24940443  0.80918945  1
  O  O400  1  0.72758230  0.58225642  0.05870479  1
  O  O401  1  0.72699077  0.58360129  0.30953523  1
  O  O402  1  0.72677963  0.58337847  0.55937621  1
  O  O403  1  0.72802487  0.58067961  0.80847231  1
  O  O404  1  0.72761664  0.91568136  0.05872659  1
  O  O405  1  0.72713158  0.91685751  0.30976260  1
  O  O406  1  0.72790573  0.91811324  0.55813734  1
  O  O407  1  0.72772645  0.91491392  0.80820976  1
  O  O408  1  0.27190106  0.08546415  0.19237929  1
  O  O409  1  0.27205742  0.08590557  0.44201506  1
  O  O410  1  0.27194616  0.08590559  0.69231824  1
  O  O411  1  0.27167402  0.08448145  0.94407746  1
  O  O412  1  0.27277409  0.41542521  0.19082655  1
  O  O413  1  0.27278827  0.41612457  0.43998104  1
  O  O414  1  0.27195929  0.41419478  0.69175237  1
  O  O415  1  0.27199692  0.41428722  0.94250312  1
  O  O416  1  0.27262507  0.74888185  0.19013734  1
  O  O417  1  0.27145099  0.74932711  0.44256641  1
  O  O418  1  0.27136273  0.74975448  0.69299114  1
  O  O419  1  0.27170988  0.74963973  0.94345323  1
  O  O420  1  0.77250652  0.08531734  0.19165103  1
  O  O421  1  0.77286830  0.08512459  0.44033080  1
  O  O422  1  0.77347174  0.08274806  0.69016360  1
  O  O423  1  0.77222736  0.08488070  0.94139960  1
  O  O424  1  0.77296624  0.41583519  0.19083090  1
  O  O425  1  0.77294251  0.41694882  0.44050732  1
  O  O426  1  0.77292582  0.41532452  0.69010240  1
  O  O427  1  0.77303424  0.41614408  0.94033128  1
  O  O428  1  0.77217649  0.75182879  0.19203464  1
  O  O429  1  0.77311073  0.75092720  0.44080038  1
  O  O430  1  0.77195333  0.74807399  0.69124709  1
  O  O431  1  0.77204328  0.75078299  0.94189494  1
  O  O432  1  0.02111278  0.08483226  0.18387714  1
  O  O433  1  0.02116690  0.08294423  0.43136900  1
  O  O434  1  0.02107528  0.08281326  0.68172723  1
  O  O435  1  0.02123079  0.08136743  0.93393705  1
  O  O436  1  0.02241011  0.41808136  0.18472309  1
  O  O437  1  0.02199633  0.41835727  0.43251457  1
  O  O438  1  0.02153930  0.41649613  0.68154151  1
  O  O439  1  0.02082002  0.41687885  0.93262304  1
  O  O440  1  0.02162382  0.75145209  0.18363416  1
  O  O441  1  0.02275812  0.75001041  0.43395841  1
  O  O442  1  0.02138136  0.74949478  0.68156414  1
  O  O443  1  0.02128086  0.74838149  0.93382610  1
  O  O444  1  0.52210493  0.08559942  0.18227453  1
  O  O445  1  0.52244504  0.08166654  0.43300024  1
  O  O446  1  0.52322816  0.08302760  0.68426173  1
  O  O447  1  0.52283762  0.08386007  0.93363666  1
  O  O448  1  0.52213454  0.41572202  0.18083240  1
  O  O449  1  0.52228303  0.41566027  0.43099461  1
  O  O450  1  0.52250924  0.41461959  0.68267204  1
  O  O451  1  0.52238078  0.41770177  0.93259819  1
  O  O452  1  0.52214585  0.75050618  0.18062808  1
  O  O453  1  0.52191830  0.75066800  0.43112822  1
  O  O454  1  0.52248021  0.75227295  0.68268992  1
  O  O455  1  0.52155892  0.75100134  0.93099277  1
  O  O456  1  0.47812722  0.24835951  0.06640423  1
  O  O457  1  0.47802268  0.24767369  0.31679519  1
  O  O458  1  0.47883446  0.24922862  0.56889594  1
  O  O459  1  0.47736280  0.25030793  0.81590358  1
  O  O460  1  0.47836960  0.58163827  0.06614538  1
  O  O461  1  0.47919589  0.58298828  0.31790454  1
  O  O462  1  0.47914810  0.58318825  0.56810689  1
  O  O463  1  0.47926616  0.58333465  0.81784489  1
  O  O464  1  0.47845826  0.91973221  0.06613641  1
  O  O465  1  0.47893394  0.91753566  0.31788273  1
  O  O466  1  0.47846973  0.91908646  0.56692028  1
  O  O467  1  0.47778791  0.91828200  0.81520614  1
  O  O468  1  0.97733248  0.24987829  0.06959167  1
  O  O469  1  0.97620729  0.24994521  0.31615962  1
  O  O470  1  0.97818870  0.25017459  0.56831730  1
  O  O471  1  0.97782435  0.24944028  0.81909677  1
  O  O472  1  0.97726655  0.58517089  0.06808660  1
  O  O473  1  0.97764226  0.58228427  0.31763221  1
  O  O474  1  0.97689895  0.58207469  0.56581056  1
  O  O475  1  0.97838139  0.58296136  0.81889422  1
  O  O476  1  0.97758686  0.91820482  0.06780842  1
  O  O477  1  0.97787783  0.91475001  0.31760636  1
  O  O478  1  0.97786447  0.91444695  0.56686735  1
  O  O479  1  0.97811584  0.91590742  0.81898968  1
  O  O480  1  0.07242802  0.31395435  0.07707837  1
  O  O481  1  0.07084570  0.31424185  0.32320463  1
  O  O482  1  0.07377860  0.31324674  0.57476904  1
  O  O483  1  0.07322513  0.31300265  0.82580334  1
  O  O484  1  0.07220496  0.64839964  0.07538187  1
  O  O485  1  0.07313111  0.64579249  0.32527740  1
  O  O486  1  0.07134193  0.64662537  0.57227269  1
  O  O487  1  0.07390549  0.64654556  0.82498053  1
  O  O488  1  0.07247594  0.98185691  0.07563671  1
  O  O489  1  0.07341426  0.97822787  0.32561670  1
  O  O490  1  0.07289733  0.97889619  0.57408815  1
  O  O491  1  0.07368537  0.97953802  0.82524939  1
  O  O492  1  0.57341492  0.31201307  0.07441427  1
  O  O493  1  0.57335540  0.31151473  0.32380758  1
  O  O494  1  0.57418052  0.31282638  0.57507865  1
  O  O495  1  0.57259837  0.31354449  0.82377217  1
  O  O496  1  0.57357902  0.64595102  0.07367284  1
  O  O497  1  0.57450745  0.64667228  0.32415072  1
  O  O498  1  0.57448428  0.64689778  0.57464193  1
  O  O499  1  0.57466694  0.64669927  0.82550192  1
  O  O500  1  0.57376098  0.98266601  0.07313333  1
  O  O501  1  0.57451476  0.98083783  0.32436025  1
  O  O502  1  0.57348730  0.98223338  0.57436984  1
  O  O503  1  0.57346632  0.98113996  0.82279595  1
  O  O504  1  0.42691907  0.02152274  0.17458615  1
  O  O505  1  0.42716537  0.01888587  0.42593672  1
  O  O506  1  0.42747970  0.02020056  0.67717956  1
  O  O507  1  0.42772425  0.02048399  0.92613402  1
  O  O508  1  0.42658803  0.35278869  0.17341237  1
  O  O509  1  0.42686909  0.35200568  0.42454363  1
  O  O510  1  0.42724220  0.35161846  0.67622218  1
  O  O511  1  0.42694013  0.35384213  0.92527379  1
  O  O512  1  0.42670446  0.68695267  0.17401346  1
  O  O513  1  0.42663507  0.68669182  0.42451887  1
  O  O514  1  0.42718770  0.68814699  0.67499524  1
  O  O515  1  0.42621785  0.68757093  0.92351666  1
  O  O516  1  0.92582130  0.02077455  0.17654562  1
  O  O517  1  0.92576115  0.01975793  0.42403072  1
  O  O518  1  0.92578356  0.01900664  0.67492008  1
  O  O519  1  0.92616134  0.01794592  0.92717577  1
  O  O520  1  0.92764746  0.35402611  0.17822395  1
  O  O521  1  0.92679659  0.35430836  0.42477383  1
  O  O522  1  0.92591844  0.35353875  0.67426245  1
  O  O523  1  0.92568292  0.35279049  0.92602320  1
  O  O524  1  0.92590804  0.68805940  0.17664350  1
  O  O525  1  0.92836365  0.68562547  0.42666522  1
  O  O526  1  0.92616719  0.68564503  0.67437071  1
  O  O527  1  0.92643680  0.68459587  0.92709703  1
  O  O528  1  0.17641288  0.02206392  0.20122047  1
  O  O529  1  0.17682106  0.02198932  0.44986401  1
  O  O530  1  0.17667187  0.02174405  0.69959769  1
  O  O531  1  0.17652817  0.02066547  0.95160818  1
  O  O532  1  0.17730111  0.35268555  0.19930857  1
  O  O533  1  0.17777538  0.35225825  0.44739807  1
  O  O534  1  0.17643532  0.35148557  0.69856356  1
  O  O535  1  0.17666874  0.35150798  0.95037716  1
  O  O536  1  0.17720971  0.68571698  0.19842161  1
  O  O537  1  0.17590370  0.68615302  0.44936378  1
  O  O538  1  0.17594691  0.68610710  0.69973053  1
  O  O539  1  0.17640350  0.68608473  0.95131086  1
  O  O540  1  0.67706613  0.02208400  0.19994036  1
  O  O541  1  0.67875982  0.02044111  0.44793469  1
  O  O542  1  0.67848092  0.01955124  0.69814872  1
  O  O543  1  0.67700883  0.02130590  0.94946511  1
  O  O544  1  0.67708902  0.35371070  0.19872907  1
  O  O545  1  0.67825072  0.35300911  0.44799476  1
  O  O546  1  0.67765864  0.35230506  0.69883853  1
  O  O547  1  0.67820535  0.35246062  0.94751127  1
  O  O548  1  0.67678368  0.68844768  0.20026082  1
  O  O549  1  0.67857630  0.68652985  0.44795776  1
  O  O550  1  0.67711886  0.68451619  0.69900064  1
  O  O551  1  0.67681063  0.68711244  0.95019958  1
  O  O552  1  0.32281881  0.31378376  0.05226222  1
  O  O553  1  0.32227218  0.31383549  0.30114641  1
  O  O554  1  0.32263152  0.31381441  0.55107296  1
  O  O555  1  0.32315084  0.31463844  0.80116074  1
  O  O556  1  0.32280308  0.64568638  0.05139432  1
  O  O557  1  0.32296890  0.64479195  0.29893670  1
  O  O558  1  0.32391634  0.64567778  0.54868973  1
  O  O559  1  0.32402824  0.64597299  0.79993379  1
  O  O560  1  0.32346804  0.97951422  0.05051498  1
  O  O561  1  0.32398417  0.98022339  0.29850129  1
  O  O562  1  0.32424079  0.98092181  0.54964064  1
  O  O563  1  0.32366237  0.98122558  0.80024005  1
  O  O564  1  0.82284936  0.31380633  0.05160038  1
  O  O565  1  0.82102713  0.31477099  0.30221284  1
  O  O566  1  0.82271513  0.31355427  0.55062044  1
  O  O567  1  0.82187120  0.31310461  0.80171969  1
  O  O568  1  0.82314900  0.64521549  0.05044626  1
  O  O569  1  0.82174307  0.64737645  0.30229887  1
  O  O570  1  0.82178063  0.64675764  0.55096982  1
  O  O571  1  0.82301227  0.64468572  0.80041531  1
  O  O572  1  0.82279503  0.97926187  0.05036031  1
  O  O573  1  0.82133285  0.98157973  0.30149278  1
  O  O574  1  0.82278281  0.98151886  0.55014026  1
  O  O575  1  0.82330073  0.97820490  0.80064600  1
  O  O576  1  0.42680754  0.14826039  0.17544371  1
  O  O577  1  0.42729635  0.14588531  0.42645976  1
  O  O578  1  0.42891054  0.14732097  0.67696064  1
  O  O579  1  0.42788806  0.14767520  0.92569798  1
  O  O580  1  0.42681014  0.47961259  0.17417782  1
  O  O581  1  0.42688408  0.47904347  0.42441238  1
  O  O582  1  0.42729303  0.47877099  0.67517650  1
  O  O583  1  0.42735195  0.48091782  0.92515824  1
  O  O584  1  0.42690301  0.81412754  0.17391011  1
  O  O585  1  0.42626616  0.81366406  0.42437913  1
  O  O586  1  0.42739316  0.81550191  0.67552083  1
  O  O587  1  0.42603486  0.81444979  0.92415029  1
  O  O588  1  0.92601803  0.14785812  0.17615654  1
  O  O589  1  0.92574729  0.14671580  0.42484056  1
  O  O590  1  0.92559430  0.14598848  0.67520821  1
  O  O591  1  0.92592592  0.14516013  0.92645610  1
  O  O592  1  0.92717245  0.48147741  0.17742636  1
  O  O593  1  0.92667129  0.48118429  0.42590091  1
  O  O594  1  0.92636401  0.48041943  0.67493084  1
  O  O595  1  0.92518867  0.47965708  0.92590819  1
  O  O596  1  0.92688356  0.81505791  0.17637516  1
  O  O597  1  0.92722789  0.81297736  0.42717278  1
  O  O598  1  0.92575567  0.81233719  0.67483725  1
  O  O599  1  0.92581631  0.81175980  0.92610780  1
  O  O600  1  0.07304846  0.18724748  0.07705001  1
  O  O601  1  0.07150350  0.18667116  0.32336483  1
  O  O602  1  0.07343917  0.18639617  0.57475548  1
  O  O603  1  0.07320560  0.18593728  0.82593513  1
  O  O604  1  0.07256351  0.52120997  0.07565133  1
  O  O605  1  0.07276549  0.51899201  0.32404104  1
  O  O606  1  0.07248173  0.51921947  0.57284589  1
  O  O607  1  0.07377886  0.51977033  0.82606304  1
  O  O608  1  0.07304654  0.85469046  0.07529164  1
  O  O609  1  0.07293853  0.85121298  0.32357660  1
  O  O610  1  0.07326139  0.85168639  0.57382014  1
  O  O611  1  0.07343603  0.85265652  0.82644285  1
  O  O612  1  0.57330640  0.18514075  0.07279901  1
  O  O613  1  0.57307270  0.18434025  0.32347934  1
  O  O614  1  0.57436627  0.18627668  0.57632536  1
  O  O615  1  0.57197607  0.18615427  0.82268585  1
  O  O616  1  0.57356515  0.51856174  0.07334947  1
  O  O617  1  0.57471176  0.51967592  0.32433645  1
  O  O618  1  0.57447785  0.51970399  0.57492097  1
  O  O619  1  0.57479397  0.51983571  0.82456276  1
  O  O620  1  0.57348745  0.85546343  0.07342682  1
  O  O621  1  0.57410773  0.85404828  0.32494156  1
  O  O622  1  0.57376991  0.85530519  0.57479986  1
  O  O623  1  0.57207531  0.85382793  0.82311539  1
  O  O624  1  0.32202325  0.18653607  0.05135462  1
  O  O625  1  0.32228546  0.18683564  0.30153786  1
  O  O626  1  0.32270305  0.18672486  0.55192421  1
  O  O627  1  0.32288383  0.18787610  0.80054589  1
  O  O628  1  0.32121148  0.51822701  0.05157239  1
  O  O629  1  0.32291301  0.51779733  0.29945613  1
  O  O630  1  0.32417001  0.51881735  0.54931498  1
  O  O631  1  0.32422470  0.51902011  0.79999501  1
  O  O632  1  0.32302310  0.85225392  0.05089840  1
  O  O633  1  0.32374390  0.85321239  0.29908536  1
  O  O634  1  0.32387235  0.85389229  0.54946844  1
  O  O635  1  0.32371333  0.85418012  0.79986595  1
  O  O636  1  0.82145120  0.18676209  0.05244319  1
  O  O637  1  0.82219358  0.18777597  0.30114085  1
  O  O638  1  0.82156230  0.18645406  0.55150083  1
  O  O639  1  0.82203313  0.18598624  0.80109151  1
  O  O640  1  0.82210658  0.51816941  0.05208528  1
  O  O641  1  0.82199246  0.52004817  0.30207827  1
  O  O642  1  0.82126741  0.51949075  0.55122581  1
  O  O643  1  0.82315407  0.51777518  0.80005668  1
  O  O644  1  0.82267940  0.85221457  0.05178476  1
  O  O645  1  0.82271420  0.85423041  0.30191150  1
  O  O646  1  0.82307294  0.85453869  0.54950428  1
  O  O647  1  0.82237385  0.85106664  0.80057259  1
  O  O648  1  0.17697212  0.14912419  0.19971894  1
  O  O649  1  0.17667632  0.14900407  0.44918060  1
  O  O650  1  0.17671735  0.14885466  0.69953466  1
  O  O651  1  0.17601137  0.14752388  0.95143176  1
  O  O652  1  0.17842545  0.47975683  0.19812075  1
  O  O653  1  0.17780830  0.47950691  0.44793262  1
  O  O654  1  0.17699669  0.47837394  0.69968776  1
  O  O655  1  0.17707436  0.47847963  0.95079196  1
  O  O656  1  0.17812458  0.81333777  0.19830855  1
  O  O657  1  0.17623014  0.81312668  0.44936383  1
  O  O658  1  0.17592358  0.81321460  0.70008810  1
  O  O659  1  0.17622692  0.81286578  0.95128850  1
  O  O660  1  0.67782402  0.14897038  0.19894938  1
  O  O661  1  0.67729512  0.14758248  0.44910039  1
  O  O662  1  0.67897568  0.14693604  0.69793298  1
  O  O663  1  0.67721526  0.14832330  0.94837443  1
  O  O664  1  0.67892661  0.48073902  0.19799927  1
  O  O665  1  0.67786370  0.48011251  0.44889407  1
  O  O666  1  0.67848388  0.47935042  0.69786344  1
  O  O667  1  0.67805063  0.47953644  0.94832141  1
  O  O668  1  0.67726673  0.81538675  0.19972378  1
  O  O669  1  0.67778739  0.81391048  0.44968239  1
  O  O670  1  0.67658586  0.81159517  0.69927091  1
  O  O671  1  0.67699894  0.81418837  0.94851818  1
