# generated using pymatgen
data_Na2MnFe(PO4)2
_symmetry_space_group_name_H-M   'P 1'
_cell_length_a   22.33771011
_cell_length_b   20.09104024
_cell_length_c   19.45402382
_cell_angle_alpha   90.02945088
_cell_angle_beta   89.97080335
_cell_angle_gamma   89.94108182
_symmetry_Int_Tables_number   1
_chemical_formula_structural   Na2MnFe(PO4)2
_chemical_formula_sum   'Na96 Mn48 Fe48 P96 O384'
_cell_volume   8730.72227793
_cell_formula_units_Z   48
loop_
 _symmetry_equiv_pos_site_id
 _symmetry_equiv_pos_as_xyz
  1  'x, y, z'
loop_
 _atom_site_type_symbol
 _atom_site_label
 _atom_site_symmetry_multiplicity
 _atom_site_fract_x
 _atom_site_fract_y
 _atom_site_fract_z
 _atom_site_occupancy
  Na  Na0  1  0.14094155  0.24971131  0.24392066  1
  Na  Na1  1  0.14123238  0.24849632  0.49481766  1
  Na  Na2  1  0.14020426  0.24904481  0.74462314  1
  Na  Na3  1  0.14018227  0.24958390  0.99548161  1
  Na  Na4  1  0.13978037  0.58350776  0.24374115  1
  Na  Na5  1  0.14000445  0.58341148  0.49317657  1
  Na  Na6  1  0.14001868  0.58413370  0.74450380  1
  Na  Na7  1  0.14007402  0.58409247  0.99436677  1
  Na  Na8  1  0.14020697  0.91704608  0.24467840  1
  Na  Na9  1  0.14000312  0.91620986  0.49279070  1
  Na  Na10  1  0.14026330  0.91678032  0.74375656  1
  Na  Na11  1  0.14035400  0.91637226  0.99421336  1
  Na  Na12  1  0.64117159  0.25068277  0.24359051  1
  Na  Na13  1  0.64080701  0.24903192  0.49454952  1
  Na  Na14  1  0.64037366  0.25069169  0.74326511  1
  Na  Na15  1  0.64086500  0.24993334  0.99274706  1
  Na  Na16  1  0.64058352  0.58425822  0.24266411  1
  Na  Na17  1  0.64040108  0.58292079  0.49404378  1
  Na  Na18  1  0.64028717  0.58497068  0.74357611  1
  Na  Na19  1  0.64037419  0.58430438  0.99162684  1
  Na  Na20  1  0.64053495  0.91671731  0.24307183  1
  Na  Na21  1  0.63992072  0.91541869  0.49335680  1
  Na  Na22  1  0.64049280  0.91582114  0.74240768  1
  Na  Na23  1  0.64057748  0.91593772  0.99182204  1
  Na  Na24  1  0.36028871  0.08312944  0.00568289  1
  Na  Na25  1  0.35961396  0.08258562  0.25587323  1
  Na  Na26  1  0.36021631  0.08174294  0.50718253  1
  Na  Na27  1  0.36034220  0.08204178  0.75593332  1
  Na  Na28  1  0.35961021  0.41728984  0.00646380  1
  Na  Na29  1  0.35956197  0.41698370  0.25507259  1
  Na  Na30  1  0.35954454  0.41578707  0.50638950  1
  Na  Na31  1  0.35961835  0.41673311  0.75677579  1
  Na  Na32  1  0.35999015  0.74988331  0.00495387  1
  Na  Na33  1  0.36000357  0.75063768  0.25660359  1
  Na  Na34  1  0.36031022  0.75066434  0.50614215  1
  Na  Na35  1  0.36007699  0.74995058  0.75631807  1
  Na  Na36  1  0.85929081  0.08281694  0.00770357  1
  Na  Na37  1  0.85960379  0.08407877  0.25634513  1
  Na  Na38  1  0.85948209  0.08160500  0.50672260  1
  Na  Na39  1  0.85936776  0.08261191  0.75714525  1
  Na  Na40  1  0.85884240  0.41758842  0.00692241  1
  Na  Na41  1  0.85943371  0.41774041  0.25629007  1
  Na  Na42  1  0.85952661  0.41758510  0.50601162  1
  Na  Na43  1  0.85875475  0.41839667  0.75711490  1
  Na  Na44  1  0.85891756  0.74985165  0.00547046  1
  Na  Na45  1  0.85914799  0.75069373  0.25627067  1
  Na  Na46  1  0.85910130  0.74964933  0.50717557  1
  Na  Na47  1  0.85889651  0.74979305  0.75633512  1
  Na  Na48  1  0.10943992  0.08318789  0.11964130  1
  Na  Na49  1  0.11006647  0.08257566  0.36990715  1
  Na  Na50  1  0.11023608  0.08217917  0.61813618  1
  Na  Na51  1  0.10924467  0.08353396  0.87025046  1
  Na  Na52  1  0.10936086  0.41617421  0.11919810  1
  Na  Na53  1  0.10926608  0.41809902  0.36872187  1
  Na  Na54  1  0.10932395  0.41683423  0.61957437  1
  Na  Na55  1  0.10908662  0.41753369  0.87042521  1
  Na  Na56  1  0.10983524  0.74912200  0.11912406  1
  Na  Na57  1  0.10946777  0.75073066  0.36801351  1
  Na  Na58  1  0.10914511  0.74949875  0.61864705  1
  Na  Na59  1  0.10997102  0.75022967  0.86881851  1
  Na  Na60  1  0.61016667  0.08335835  0.11774620  1
  Na  Na61  1  0.61019684  0.08114175  0.36859177  1
  Na  Na62  1  0.61016665  0.08164180  0.61888710  1
  Na  Na63  1  0.60950421  0.08232572  0.86709328  1
  Na  Na64  1  0.61008722  0.41713458  0.11738213  1
  Na  Na65  1  0.60992586  0.41616710  0.36855901  1
  Na  Na66  1  0.60969402  0.41716815  0.61911943  1
  Na  Na67  1  0.60989258  0.41767912  0.86756490  1
  Na  Na68  1  0.61031036  0.75065543  0.11694963  1
  Na  Na69  1  0.61036229  0.74950703  0.36911719  1
  Na  Na70  1  0.61006915  0.75053184  0.61818386  1
  Na  Na71  1  0.61002863  0.75052003  0.86672081  1
  Na  Na72  1  0.39028464  0.24989333  0.13120520  1
  Na  Na73  1  0.39083725  0.24862477  0.38094687  1
  Na  Na74  1  0.39120749  0.24843974  0.63241571  1
  Na  Na75  1  0.39089176  0.24962650  0.88063922  1
  Na  Na76  1  0.39067672  0.58496652  0.13013963  1
  Na  Na77  1  0.39035872  0.58464318  0.38106935  1
  Na  Na78  1  0.39066962  0.58430512  0.63126323  1
  Na  Na79  1  0.39046499  0.58438948  0.88163647  1
  Na  Na80  1  0.39094533  0.91666257  0.13039835  1
  Na  Na81  1  0.39065214  0.91524070  0.38223017  1
  Na  Na82  1  0.39052984  0.91639181  0.63124019  1
  Na  Na83  1  0.39050412  0.91544808  0.87974914  1
  Na  Na84  1  0.88958280  0.24988009  0.13231412  1
  Na  Na85  1  0.89027935  0.25065128  0.38146703  1
  Na  Na86  1  0.89045622  0.25016252  0.63116702  1
  Na  Na87  1  0.88999441  0.25065247  0.88314156  1
  Na  Na88  1  0.88976013  0.58366722  0.13126011  1
  Na  Na89  1  0.88986148  0.58479397  0.38134821  1
  Na  Na90  1  0.88931285  0.58328453  0.63161695  1
  Na  Na91  1  0.88930024  0.58424548  0.88139037  1
  Na  Na92  1  0.88994895  0.91620147  0.13106631  1
  Na  Na93  1  0.88987267  0.91727321  0.38173399  1
  Na  Na94  1  0.88954905  0.91574459  0.63168416  1
  Na  Na95  1  0.88948456  0.91702520  0.88211503  1
  Mn  Mn96  1  0.49992515  0.50087824  0.74956758  1
  Mn  Mn97  1  0.00018655  0.16603442  0.50063111  1
  Mn  Mn98  1  0.50052430  0.33401158  -0.00041506  1
  Mn  Mn99  1  0.49976009  -0.00155037  0.24961083  1
  Mn  Mn100  1  0.25005534  0.66715329  0.62477435  1
  Mn  Mn101  1  0.50030412  0.50079847  0.24951033  1
  Mn  Mn102  1  0.50034899  0.16602056  -0.00082318  1
  Mn  Mn103  1  0.25048984  0.33257908  0.37545114  1
  Mn  Mn104  1  0.00041164  0.33438769  0.50049337  1
  Mn  Mn105  1  0.25124010  0.16532349  0.37482949  1
  Mn  Mn106  1  0.25027535  0.16603476  0.87514325  1
  Mn  Mn107  1  0.00014500  0.83285845  0.75054303  1
  Mn  Mn108  1  0.24890555  0.83358347  0.62480304  1
  Mn  Mn109  1  0.50009192  0.33336487  0.24956209  1
  Mn  Mn110  1  0.50122899  0.16505521  0.50086237  1
  Mn  Mn111  1  0.74973277  0.50017766  0.37452200  1
  Mn  Mn112  1  0.75040499  0.16661767  0.37494975  1
  Mn  Mn113  1  0.24968875  0.50038243  0.37485897  1
  Mn  Mn114  1  -0.00016285  0.66682062  0.49944215  1
  Mn  Mn115  1  0.24975948  0.33233555  0.62573075  1
  Mn  Mn116  1  0.50047503  0.33282135  0.50005410  1
  Mn  Mn117  1  0.24929258  -0.00077762  0.87535437  1
  Mn  Mn118  1  0.24995091  0.50092904  0.12543589  1
  Mn  Mn119  1  0.00017163  0.16575049  0.25119852  1
  Mn  Mn120  1  0.75060427  0.33440945  0.62521963  1
  Mn  Mn121  1  0.25041798  0.83252910  0.12499043  1
  Mn  Mn122  1  0.24934810  0.50100634  0.87622667  1
  Mn  Mn123  1  0.25023886  0.50035604  0.62525854  1
  Mn  Mn124  1  0.74973630  -0.00016420  0.12447562  1
  Mn  Mn125  1  0.25071307  -0.00000386  0.12474369  1
  Mn  Mn126  1  0.75078059  0.16569802  0.62465317  1
  Mn  Mn127  1  0.00009864  0.33417292  0.25068573  1
  Mn  Mn128  1  -0.00087135  0.50118060  0.74987557  1
  Mn  Mn129  1  0.75004477  0.16656110  0.87492188  1
  Mn  Mn130  1  -0.00042386  0.33377914  0.75103040  1
  Mn  Mn131  1  -0.00030628  0.83368615  0.00024420  1
  Mn  Mn132  1  0.74995052  0.83316019  0.37493806  1
  Mn  Mn133  1  0.50048339  0.83361675  -0.00122159  1
  Mn  Mn134  1  -0.00087661  0.33376662  0.00112709  1
  Mn  Mn135  1  0.74945662  0.50068202  0.12467005  1
  Mn  Mn136  1  -0.00043267  0.66613982  0.00014449  1
  Mn  Mn137  1  -0.00005464  0.83396651  0.24964482  1
  Mn  Mn138  1  0.49936151  0.50079793  0.49996289  1
  Mn  Mn139  1  -0.00035870  0.16623720  0.75075111  1
  Mn  Mn140  1  0.50103954  0.66770686  0.24988730  1
  Mn  Mn141  1  0.25005785  0.33291460  0.87544767  1
  Mn  Mn142  1  -0.00019758  -0.00034299  0.75031898  1
  Mn  Mn143  1  0.50049922  0.16557248  0.24979177  1
  Fe  Fe144  1  0.50015861  0.83324327  0.74920609  1
  Fe  Fe145  1  0.50017864  -0.00106154  0.50025632  1
  Fe  Fe146  1  0.25085781  0.16544260  0.62487773  1
  Fe  Fe147  1  0.24989851  0.33322882  0.12544642  1
  Fe  Fe148  1  0.74979495  -0.00073824  0.87505992  1
  Fe  Fe149  1  -0.00016475  0.50053872  0.00052440  1
  Fe  Fe150  1  -0.00057850  0.66688177  0.25024259  1
  Fe  Fe151  1  0.74988525  0.33384682  0.12478224  1
  Fe  Fe152  1  0.50027882  0.83292400  0.50039068  1
  Fe  Fe153  1  0.24978151  0.66728593  0.87492240  1
  Fe  Fe154  1  0.74905557  0.50061557  0.62521834  1
  Fe  Fe155  1  0.24998827  0.16650605  0.12572182  1
  Fe  Fe156  1  0.50050943  0.16580361  0.74994296  1
  Fe  Fe157  1  0.75000247  -0.00025020  0.37474205  1
  Fe  Fe158  1  0.50069858  0.83288598  0.24986241  1
  Fe  Fe159  1  -0.00083556  0.83340684  0.49973283  1
  Fe  Fe160  1  0.74986408  0.83308394  0.12393670  1
  Fe  Fe161  1  0.74994204  0.66643979  0.62553895  1
  Fe  Fe162  1  0.74992289  0.33367562  0.87506660  1
  Fe  Fe163  1  0.25040172  -0.00072894  0.62480972  1
  Fe  Fe164  1  0.50048791  -0.00098267  0.74910570  1
  Fe  Fe165  1  0.75003101  0.33353274  0.37511406  1
  Fe  Fe166  1  0.74990105  0.66668329  0.37528776  1
  Fe  Fe167  1  -0.00074678  0.16639267  0.00127064  1
  Fe  Fe168  1  -0.00037667  0.66652069  0.74989478  1
  Fe  Fe169  1  -0.00057624  0.50082193  0.24998610  1
  Fe  Fe170  1  -0.00047412  -0.00008921  0.25047960  1
  Fe  Fe171  1  0.74981055  0.66752889  0.12372306  1
  Fe  Fe172  1  0.50013821  0.66754108  -0.00067333  1
  Fe  Fe173  1  0.49986417  0.33364613  0.74986339  1
  Fe  Fe174  1  0.50040418  -0.00050923  -0.00118767  1
  Fe  Fe175  1  0.50016382  0.66724889  0.74987343  1
  Fe  Fe176  1  -0.00075894  -0.00059592  0.50007167  1
  Fe  Fe177  1  0.74980271  0.50079629  0.87510847  1
  Fe  Fe178  1  0.24986269  0.66743152  0.12506987  1
  Fe  Fe179  1  0.74963689  0.66747173  0.87404539  1
  Fe  Fe180  1  0.25022022  0.83323076  0.37499501  1
  Fe  Fe181  1  0.75012271  0.83309081  0.62499694  1
  Fe  Fe182  1  0.50087291  0.66752282  0.50029871  1
  Fe  Fe183  1  0.25012090  -0.00045615  0.37534455  1
  Fe  Fe184  1  0.74965906  0.83309861  0.87404420  1
  Fe  Fe185  1  -0.00057353  0.50087985  0.50012379  1
  Fe  Fe186  1  0.49999494  0.50096393  -0.00141292  1
  Fe  Fe187  1  0.25008500  0.83290427  0.87476145  1
  Fe  Fe188  1  0.74991150  0.16722555  0.12530359  1
  Fe  Fe189  1  0.74962274  -0.00102155  0.62551274  1
  Fe  Fe190  1  0.25038123  0.66692961  0.37480294  1
  Fe  Fe191  1  0.00023561  0.00014734  0.00084376  1
  P  P192  1  0.04152808  0.24873229  0.10320158  1
  P  P193  1  0.04314726  0.25025877  0.35366287  1
  P  P194  1  0.04309595  0.25002805  0.60364859  1
  P  P195  1  0.04207284  0.24969716  0.85466886  1
  P  P196  1  0.04185056  0.58206304  0.10363546  1
  P  P197  1  0.04101375  0.58389214  0.35186670  1
  P  P198  1  0.04197196  0.58290265  0.60247510  1
  P  P199  1  0.04193664  0.58467969  0.85295564  1
  P  P200  1  0.04226011  0.91789353  0.10314457  1
  P  P201  1  0.04157225  0.91797697  0.35332819  1
  P  P202  1  0.04116879  0.91598482  0.60143790  1
  P  P203  1  0.04272686  0.91710867  0.85397600  1
  P  P204  1  0.54310973  0.24983235  0.10240248  1
  P  P205  1  0.54349009  0.24912623  0.35297151  1
  P  P206  1  0.54308757  0.24956837  0.60444671  1
  P  P207  1  0.54139426  0.25003921  0.85098619  1
  P  P208  1  0.54190992  0.58400790  0.10036399  1
  P  P209  1  0.54325943  0.58415568  0.35337272  1
  P  P210  1  0.54218714  0.58534959  0.60286159  1
  P  P211  1  0.54195055  0.58510966  0.85268608  1
  P  P212  1  0.54291338  0.91752289  0.10154147  1
  P  P213  1  0.54243177  0.91430631  0.35287121  1
  P  P214  1  0.54143187  0.91612580  0.60215531  1
  P  P215  1  0.54163519  0.91649661  0.85076931  1
  P  P216  1  0.45750570  0.08232473  0.14595374  1
  P  P217  1  0.45818692  0.08090676  0.39796977  1
  P  P218  1  0.45943801  0.08202548  0.64818302  1
  P  P219  1  0.45828798  0.08134627  0.89596470  1
  P  P220  1  0.45761494  0.41784322  0.14570304  1
  P  P221  1  0.45713816  0.41669119  0.39679141  1
  P  P222  1  0.45761590  0.41593362  0.64766449  1
  P  P223  1  0.45805826  0.41790629  0.89669557  1
  P  P224  1  0.45842384  0.75144904  0.14688457  1
  P  P225  1  0.45903914  0.75026360  0.39830360  1
  P  P226  1  0.45913327  0.75016056  0.64759661  1
  P  P227  1  0.45845008  0.74907566  0.89620050  1
  P  P228  1  0.95765199  0.08185524  0.14747852  1
  P  P229  1  0.95745444  0.08175353  0.39777814  1
  P  P230  1  0.95696239  0.08250979  0.64690237  1
  P  P231  1  0.95792964  0.08324453  0.89952894  1
  P  P232  1  0.95754894  0.41838122  0.14761809  1
  P  P233  1  0.95777973  0.41916850  0.39727858  1
  P  P234  1  0.95642670  0.41723905  0.64696377  1
  P  P235  1  0.95708050  0.41871030  0.89831593  1
  P  P236  1  0.95754914  0.74886144  0.14778326  1
  P  P237  1  0.95730658  0.75150244  0.39713756  1
  P  P238  1  0.95746048  0.74880619  0.64739944  1
  P  P239  1  0.95707051  0.74981529  0.89663085  1
  P  P240  1  0.20791534  0.08358914  0.22797281  1
  P  P241  1  0.20858016  0.08147391  0.47840175  1
  P  P242  1  0.20861988  0.08257185  0.72639022  1
  P  P243  1  0.20731981  0.08350119  0.97899823  1
  P  P244  1  0.20767141  0.41590548  0.22747719  1
  P  P245  1  0.20710174  0.41626436  0.47836050  1
  P  P246  1  0.20695029  0.41694972  0.72872070  1
  P  P247  1  0.20733540  0.41632376  0.97941880  1
  P  P248  1  0.20794241  0.74911815  0.22849880  1
  P  P249  1  0.20838344  0.74994557  0.47612759  1
  P  P250  1  0.20707085  0.75018954  0.72882393  1
  P  P251  1  0.20830576  0.74995466  0.97691793  1
  P  P252  1  0.70801927  0.08463054  0.22736053  1
  P  P253  1  0.70824383  0.08120039  0.47771627  1
  P  P254  1  0.70831048  0.08169994  0.72789656  1
  P  P255  1  0.70774811  0.08197521  0.97712134  1
  P  P256  1  0.70770564  0.41590993  0.22730307  1
  P  P257  1  0.70764715  0.41590908  0.47757030  1
  P  P258  1  0.70771101  0.41895843  0.72836379  1
  P  P259  1  0.70856883  0.41685392  0.97649848  1
  P  P260  1  0.70869644  0.75020912  0.22606306  1
  P  P261  1  0.70824708  0.74841505  0.47830372  1
  P  P262  1  0.70874120  0.75030602  0.72682060  1
  P  P263  1  0.70837614  0.75023859  0.97602779  1
  P  P264  1  0.29161700  0.24960467  0.02396144  1
  P  P265  1  0.29319662  0.24968808  0.27110149  1
  P  P266  1  0.29333392  0.24795179  0.52302844  1
  P  P267  1  0.29286249  0.24896655  0.77155204  1
  P  P268  1  0.29189670  0.58563344  0.02232464  1
  P  P269  1  0.29216097  0.58506317  0.27208922  1
  P  P270  1  0.29296514  0.58395360  0.52125221  1
  P  P271  1  0.29247536  0.58471346  0.77308274  1
  P  P272  1  0.29302022  0.91559103  0.02129664  1
  P  P273  1  0.29170839  0.91664960  0.27367043  1
  P  P274  1  0.29189851  0.91717123  0.52177230  1
  P  P275  1  0.29181464  0.91549177  0.77206432  1
  P  P276  1  0.79103978  0.25045999  0.02321607  1
  P  P277  1  0.79232091  0.25195982  0.27204592  1
  P  P278  1  0.79299072  0.25017939  0.52164488  1
  P  P279  1  0.79246618  0.25148100  0.77290878  1
  P  P280  1  0.79144138  0.58477343  0.02148640  1
  P  P281  1  0.79161169  0.58538412  0.27210019  1
  P  P282  1  0.79106848  0.58336952  0.52342973  1
  P  P283  1  0.79061657  0.58383101  0.77284698  1
  P  P284  1  0.79181299  0.91496608  0.02155406  1
  P  P285  1  0.79209654  0.91782528  0.27219626  1
  P  P286  1  0.79095818  0.91630401  0.52334707  1
  P  P287  1  0.79115961  0.91639991  0.77276153  1
  O  O288  1  0.03674593  0.24902517  0.18316412  1
  O  O289  1  0.03806822  0.25030112  0.43360238  1
  O  O290  1  0.03786550  0.25000163  0.68364049  1
  O  O291  1  0.03643970  0.24908860  0.93460292  1
  O  O292  1  0.03627366  0.58251323  0.18349650  1
  O  O293  1  0.03612374  0.58360280  0.43184380  1
  O  O294  1  0.03681241  0.58394300  0.68239110  1
  O  O295  1  0.03695465  0.58377078  0.93290007  1
  O  O296  1  0.03704132  0.91788405  0.18308193  1
  O  O297  1  0.03581786  0.91742733  0.43316420  1
  O  O298  1  0.03658182  0.91585232  0.68147012  1
  O  O299  1  0.03767917  0.91764779  0.93390217  1
  O  O300  1  0.53816481  0.24981999  0.18234927  1
  O  O301  1  0.53857741  0.24896899  0.43299813  1
  O  O302  1  0.53748697  0.25003825  0.68431683  1
  O  O303  1  0.53669021  0.24978669  0.93098453  1
  O  O304  1  0.53726199  0.58409852  0.18040907  1
  O  O305  1  0.53812259  0.58457662  0.43329666  1
  O  O306  1  0.53671779  0.58537899  0.68277527  1
  O  O307  1  0.53642150  0.58486928  0.93254298  1
  O  O308  1  0.53783715  0.91666254  0.18142345  1
  O  O309  1  0.53720521  0.91439581  0.43271492  1
  O  O310  1  0.53638291  0.91631839  0.68199397  1
  O  O311  1  0.53703422  0.91662451  0.93069629  1
  O  O312  1  0.46261242  0.08204902  0.06599658  1
  O  O313  1  0.46291643  0.08115118  0.31799348  1
  O  O314  1  0.46439018  0.08184948  0.56826766  1
  O  O315  1  0.46391860  0.08159595  0.81611549  1
  O  O316  1  0.46290508  0.41850905  0.06573091  1
  O  O317  1  0.46238659  0.41672994  0.31679124  1
  O  O318  1  0.46267414  0.41614923  0.56771350  1
  O  O319  1  0.46328996  0.41713696  0.81675126  1
  O  O320  1  0.46338756  0.75095065  0.06695147  1
  O  O321  1  0.46402125  0.75090851  0.31834923  1
  O  O322  1  0.46438145  0.75020022  0.56771935  1
  O  O323  1  0.46364257  0.74893898  0.81637367  1
  O  O324  1  0.96320892  0.08231452  0.06760308  1
  O  O325  1  0.96261133  0.08162175  0.31782348  1
  O  O326  1  0.96193323  0.08189035  0.56695847  1
  O  O327  1  0.96261571  0.08329066  0.81949370  1
  O  O328  1  0.96280984  0.41841110  0.06768464  1
  O  O329  1  0.96320765  0.41936974  0.31731874  1
  O  O330  1  0.96162657  0.41762093  0.56700938  1
  O  O331  1  0.96224312  0.41832824  0.81837458  1
  O  O332  1  0.96264709  0.74905424  0.06786272  1
  O  O333  1  0.96256128  0.75104774  0.31725176  1
  O  O334  1  0.96260535  0.74937520  0.56746006  1
  O  O335  1  0.96230587  0.74930375  0.81670583  1
  O  O336  1  0.21267479  0.08403411  0.05887029  1
  O  O337  1  0.21340500  0.08280983  0.30787538  1
  O  O338  1  0.21404234  0.08158671  0.55826255  1
  O  O339  1  0.21330888  0.08240829  0.80640510  1
  O  O340  1  0.21281275  0.41603250  0.05933630  1
  O  O341  1  0.21266020  0.41612627  0.30743025  1
  O  O342  1  0.21223131  0.41650656  0.55832962  1
  O  O343  1  0.21203300  0.41712748  0.80872209  1
  O  O344  1  0.21340027  0.74945150  0.05689548  1
  O  O345  1  0.21336930  0.74947705  0.30833356  1
  O  O346  1  0.21244423  0.75037883  0.55616157  1
  O  O347  1  0.21226568  0.75026015  0.80871705  1
  O  O348  1  0.71247487  0.08226141  0.05699105  1
  O  O349  1  0.71318056  0.08434103  0.30723981  1
  O  O350  1  0.71354036  0.08090724  0.55765651  1
  O  O351  1  0.71353304  0.08172717  0.80781243  1
  O  O352  1  0.71363969  0.41637769  0.05646127  1
  O  O353  1  0.71282409  0.41579100  0.30722108  1
  O  O354  1  0.71292730  0.41692060  0.55747451  1
  O  O355  1  0.71315670  0.41902744  0.80819514  1
  O  O356  1  0.71332067  0.74994574  0.05587701  1
  O  O357  1  0.71354443  0.75018797  0.30599496  1
  O  O358  1  0.71372745  0.74854239  0.55808454  1
  O  O359  1  0.71353812  0.75116986  0.80666908  1
  O  O360  1  0.28744187  0.24983015  0.19123669  1
  O  O361  1  0.28842835  0.24812544  0.44302748  1
  O  O362  1  0.28770053  0.24834855  0.69164953  1
  O  O363  1  0.28658612  0.24969813  0.94395640  1
  O  O364  1  0.28679741  0.58524727  0.19216334  1
  O  O365  1  0.28781259  0.58434752  0.44130340  1
  O  O366  1  0.28780567  0.58426683  0.69306761  1
  O  O367  1  0.28625731  0.58571729  0.94243925  1
  O  O368  1  0.28725442  0.91614633  0.19368691  1
  O  O369  1  0.28690456  0.91700440  0.44190193  1
  O  O370  1  0.28651834  0.91628251  0.69213803  1
  O  O371  1  0.28750843  0.91500226  0.94142219  1
  O  O372  1  0.78676621  0.25202143  0.19219103  1
  O  O373  1  0.78757036  0.25037175  0.44174202  1
  O  O374  1  0.78774911  0.25116593  0.69296864  1
  O  O375  1  0.78617024  0.25018492  0.94326306  1
  O  O376  1  0.78637740  0.58552653  0.19220407  1
  O  O377  1  0.78597329  0.58346380  0.44351276  1
  O  O378  1  0.78544348  0.58393178  0.69301052  1
  O  O379  1  0.78614695  0.58411610  0.94167388  1
  O  O380  1  0.78700062  0.91755299  0.19237083  1
  O  O381  1  0.78641552  0.91624192  0.44341168  1
  O  O382  1  0.78601839  0.91682902  0.69288568  1
  O  O383  1  0.78662053  0.91486834  0.94171317  1
  O  O384  1  0.22745580  0.24921632  0.06000683  1
  O  O385  1  0.22901911  0.24916884  0.30704341  1
  O  O386  1  0.22887618  0.24737420  0.55830426  1
  O  O387  1  0.22846413  0.24933121  0.80683647  1
  O  O388  1  0.22775878  0.58560115  0.05845358  1
  O  O389  1  0.22789289  0.58532821  0.30795390  1
  O  O390  1  0.22848002  0.58365808  0.55635182  1
  O  O391  1  0.22795495  0.58519424  0.80816424  1
  O  O392  1  0.22879076  0.91605319  0.05696743  1
  O  O393  1  0.22742037  0.91728056  0.30924081  1
  O  O394  1  0.22757932  0.91788592  0.55752208  1
  O  O395  1  0.22765296  0.91467408  0.80809389  1
  O  O396  1  0.72688740  0.25093445  0.05914372  1
  O  O397  1  0.72824618  0.25180891  0.30846445  1
  O  O398  1  0.72882363  0.25009381  0.55743229  1
  O  O399  1  0.72799335  0.25141583  0.80815364  1
  O  O400  1  0.72729675  0.58521723  0.05767698  1
  O  O401  1  0.72741748  0.58526282  0.30805410  1
  O  O402  1  0.72695961  0.58373981  0.55971506  1
  O  O403  1  0.72666661  0.58332784  0.80934078  1
  O  O404  1  0.72762500  0.91506832  0.05754693  1
  O  O405  1  0.72783502  0.91772764  0.30808807  1
  O  O406  1  0.72673701  0.91655121  0.55916025  1
  O  O407  1  0.72703107  0.91608929  0.80901901  1
  O  O408  1  0.27214559  0.08458162  0.19200257  1
  O  O409  1  0.27274853  0.08071431  0.44219868  1
  O  O410  1  0.27296352  0.08260987  0.69076380  1
  O  O411  1  0.27165128  0.08269280  0.94355876  1
  O  O412  1  0.27196233  0.41601460  0.19194049  1
  O  O413  1  0.27156429  0.41672306  0.44330873  1
  O  O414  1  0.27143848  0.41660425  0.69371242  1
  O  O415  1  0.27157723  0.41682069  0.94374563  1
  O  O416  1  0.27216797  0.74839779  0.19235979  1
  O  O417  1  0.27287730  0.74925766  0.44114157  1
  O  O418  1  0.27139344  0.75056900  0.69328324  1
  O  O419  1  0.27242728  0.75008188  0.94066159  1
  O  O420  1  0.77220569  0.08438190  0.19145169  1
  O  O421  1  0.77243389  0.08136124  0.44173880  1
  O  O422  1  0.77251498  0.08120422  0.69201155  1
  O  O423  1  0.77216455  0.08219076  0.94178120  1
  O  O424  1  0.77195672  0.41626880  0.19151608  1
  O  O425  1  0.77187338  0.41555423  0.44158635  1
  O  O426  1  0.77185300  0.41949935  0.69212535  1
  O  O427  1  0.77270615  0.41674079  0.94046087  1
  O  O428  1  0.77284952  0.74973859  0.18997090  1
  O  O429  1  0.77226536  0.74850073  0.44177806  1
  O  O430  1  0.77281744  0.74949551  0.69068423  1
  O  O431  1  0.77244867  0.75097856  0.93976182  1
  O  O432  1  0.02177468  0.08120634  0.18377283  1
  O  O433  1  0.02175053  0.08142999  0.43338030  1
  O  O434  1  0.02147223  0.08280617  0.68181522  1
  O  O435  1  0.02223713  0.08350974  0.93497800  1
  O  O436  1  0.02178644  0.41852375  0.18335673  1
  O  O437  1  0.02197782  0.41949108  0.43319026  1
  O  O438  1  0.02082055  0.41716658  0.68217051  1
  O  O439  1  0.02138346  0.41843150  0.93388718  1
  O  O440  1  0.02185327  0.74876150  0.18325528  1
  O  O441  1  0.02156763  0.75189645  0.43290197  1
  O  O442  1  0.02175061  0.74817400  0.68312564  1
  O  O443  1  0.02137400  0.75001015  0.93200406  1
  O  O444  1  0.52186927  0.08193156  0.18124595  1
  O  O445  1  0.52266235  0.08055732  0.43314168  1
  O  O446  1  0.52353976  0.08175432  0.68416347  1
  O  O447  1  0.52241591  0.08109657  0.93226030  1
  O  O448  1  0.52196411  0.41738523  0.18105256  1
  O  O449  1  0.52156566  0.41698205  0.43184280  1
  O  O450  1  0.52198579  0.41610930  0.68296607  1
  O  O451  1  0.52236157  0.41835474  0.93231090  1
  O  O452  1  0.52285221  0.75196413  0.18229711  1
  O  O453  1  0.52321886  0.74998890  0.43428652  1
  O  O454  1  0.52314257  0.74984180  0.68396907  1
  O  O455  1  0.52262289  0.74894425  0.93220215  1
  O  O456  1  0.47866906  0.24995875  0.06742435  1
  O  O457  1  0.47896601  0.24920834  0.31811970  1
  O  O458  1  0.47896085  0.24901565  0.56848868  1
  O  O459  1  0.47722950  0.25005757  0.81536569  1
  O  O460  1  0.47761408  0.58386911  0.06483205  1
  O  O461  1  0.47888592  0.58441470  0.31810650  1
  O  O462  1  0.47802235  0.58584830  0.56690480  1
  O  O463  1  0.47785638  0.58521565  0.81650506  1
  O  O464  1  0.47856504  0.91801428  0.06590312  1
  O  O465  1  0.47815664  0.91400661  0.31694390  1
  O  O466  1  0.47741315  0.91622917  0.56578157  1
  O  O467  1  0.47740071  0.91670952  0.81510377  1
  O  O468  1  0.97712476  0.24904372  0.06793796  1
  O  O469  1  0.97868427  0.25017324  0.31870693  1
  O  O470  1  0.97869992  0.25017182  0.56852230  1
  O  O471  1  0.97777185  0.24985057  0.81912827  1
  O  O472  1  0.97766165  0.58165266  0.06754320  1
  O  O473  1  0.97680663  0.58408646  0.31601195  1
  O  O474  1  0.97760022  0.58268664  0.56696564  1
  O  O475  1  0.97754230  0.58553541  0.81746525  1
  O  O476  1  0.97796925  0.91798213  0.06748524  1
  O  O477  1  0.97752922  0.91826518  0.31686947  1
  O  O478  1  0.97679188  0.91584849  0.56601264  1
  O  O479  1  0.97828600  0.91668654  0.81888576  1
  O  O480  1  0.07275690  0.31225807  0.07548832  1
  O  O481  1  0.07399814  0.31377914  0.32539992  1
  O  O482  1  0.07422745  0.31343137  0.57561588  1
  O  O483  1  0.07297217  0.31352409  0.82707783  1
  O  O484  1  0.07283156  0.64571242  0.07548753  1
  O  O485  1  0.07146767  0.64794812  0.32391508  1
  O  O486  1  0.07332714  0.64607295  0.57387658  1
  O  O487  1  0.07268518  0.64825801  0.82464905  1
  O  O488  1  0.07322624  0.98112221  0.07444004  1
  O  O489  1  0.07268425  0.98132002  0.32496498  1
  O  O490  1  0.07167173  0.97984061  0.57343476  1
  O  O491  1  0.07376652  0.98036386  0.82522185  1
  O  O492  1  0.57415216  0.31327025  0.07422974  1
  O  O493  1  0.57429627  0.31268707  0.32479122  1
  O  O494  1  0.57413459  0.31291809  0.57576357  1
  O  O495  1  0.57222927  0.31382867  0.82325154  1
  O  O496  1  0.57238136  0.64797143  0.07235027  1
  O  O497  1  0.57459828  0.64724046  0.32460617  1
  O  O498  1  0.57348063  0.64846298  0.57433773  1
  O  O499  1  0.57289266  0.64846038  0.82395620  1
  O  O500  1  0.57357972  0.98109737  0.07305883  1
  O  O501  1  0.57341384  0.97787377  0.32462978  1
  O  O502  1  0.57240832  0.97958871  0.57352095  1
  O  O503  1  0.57301504  0.97960583  0.82230632  1
  O  O504  1  0.42598407  0.01927740  0.17448788  1
  O  O505  1  0.42756165  0.01732695  0.42647204  1
  O  O506  1  0.42794588  0.01874299  0.67619672  1
  O  O507  1  0.42727762  0.01800683  0.92459456  1
  O  O508  1  0.42657468  0.35417036  0.17344553  1
  O  O509  1  0.42632256  0.35309834  0.42487490  1
  O  O510  1  0.42712647  0.35230814  0.67619895  1
  O  O511  1  0.42682574  0.35451720  0.92489590  1
  O  O512  1  0.42767894  0.68787565  0.17530833  1
  O  O513  1  0.42826932  0.68649976  0.42624289  1
  O  O514  1  0.42766668  0.68696463  0.67598513  1
  O  O515  1  0.42744013  0.68598961  0.92549478  1
  O  O516  1  0.92639489  0.01856895  0.17587838  1
  O  O517  1  0.92630550  0.01860531  0.42654563  1
  O  O518  1  0.92591190  0.01928995  0.67576556  1
  O  O519  1  0.92749727  0.01931835  0.92755866  1
  O  O520  1  0.92678438  0.35443921  0.17525840  1
  O  O521  1  0.92710109  0.35515031  0.42472261  1
  O  O522  1  0.92555929  0.35369282  0.67527486  1
  O  O523  1  0.92577420  0.35528391  0.92621335  1
  O  O524  1  0.92682715  0.68536626  0.17619758  1
  O  O525  1  0.92626234  0.68799361  0.42522744  1
  O  O526  1  0.92662352  0.68526943  0.67577401  1
  O  O527  1  0.92576823  0.68669959  0.92516548  1
  O  O528  1  0.17724720  0.01987754  0.19978542  1
  O  O529  1  0.17721488  0.01840229  0.44952463  1
  O  O530  1  0.17798579  0.01875165  0.69825969  1
  O  O531  1  0.17603759  0.01999296  0.95111175  1
  O  O532  1  0.17711535  0.35220531  0.19911681  1
  O  O533  1  0.17658773  0.35237952  0.45057535  1
  O  O534  1  0.17583060  0.35343567  0.70082807  1
  O  O535  1  0.17627117  0.35297046  0.95106122  1
  O  O536  1  0.17660836  0.68605176  0.19967847  1
  O  O537  1  0.17713112  0.68657300  0.44807770  1
  O  O538  1  0.17627647  0.68670531  0.70012222  1
  O  O539  1  0.17724290  0.68651712  0.94856514  1
  O  O540  1  0.67634621  0.02140031  0.19950568  1
  O  O541  1  0.67749672  0.01782769  0.44875499  1
  O  O542  1  0.67696914  0.01855413  0.69934140  1
  O  O543  1  0.67759846  0.01813658  0.94828580  1
  O  O544  1  0.67685720  0.35271487  0.19828772  1
  O  O545  1  0.67699049  0.35211166  0.44962430  1
  O  O546  1  0.67698475  0.35509917  0.70042446  1
  O  O547  1  0.67749132  0.35343783  0.94792511  1
  O  O548  1  0.67719625  0.68710341  0.19757985  1
  O  O549  1  0.67746539  0.68501066  0.44941370  1
  O  O550  1  0.67726986  0.68691531  0.69896794  1
  O  O551  1  0.67823466  0.68632434  0.94705307  1
  O  O552  1  0.32203818  0.31364723  0.05184570  1
  O  O553  1  0.32413274  0.31319523  0.29958126  1
  O  O554  1  0.32389577  0.31183127  0.55089384  1
  O  O555  1  0.32380373  0.31261235  0.79953887  1
  O  O556  1  0.32292872  0.64891827  0.05086362  1
  O  O557  1  0.32337869  0.64819350  0.30084507  1
  O  O558  1  0.32390051  0.64734112  0.54988358  1
  O  O559  1  0.32319659  0.64831527  0.80135712  1
  O  O560  1  0.32421244  0.97915277  0.04906387  1
  O  O561  1  0.32291517  0.98012033  0.30149851  1
  O  O562  1  0.32316521  0.98016500  0.55099352  1
  O  O563  1  0.32272921  0.97906678  0.80018513  1
  O  O564  1  0.82254424  0.31378252  0.05115758  1
  O  O565  1  0.82314140  0.31534074  0.30097573  1
  O  O566  1  0.82437160  0.31338544  0.54989031  1
  O  O567  1  0.82284508  0.31517571  0.80147094  1
  O  O568  1  0.82255211  0.64821019  0.04981897  1
  O  O569  1  0.82246391  0.64859299  0.30117080  1
  O  O570  1  0.82245183  0.64664672  0.55170864  1
  O  O571  1  0.82089792  0.64791644  0.80128296  1
  O  O572  1  0.82310053  0.97841784  0.04958127  1
  O  O573  1  0.82241062  0.98156578  0.30096203  1
  O  O574  1  0.82226537  0.97943241  0.55191908  1
  O  O575  1  0.82175836  0.97999571  0.80184165  1
  O  O576  1  0.42690104  0.14614327  0.17422282  1
  O  O577  1  0.42733308  0.14458041  0.42612858  1
  O  O578  1  0.42915062  0.14607410  0.67662294  1
  O  O579  1  0.42716429  0.14510633  0.92395872  1
  O  O580  1  0.42646171  0.48117527  0.17433792  1
  O  O581  1  0.42593595  0.48022019  0.42479856  1
  O  O582  1  0.42630148  0.47957682  0.67532703  1
  O  O583  1  0.42735804  0.48172106  0.92489029  1
  O  O584  1  0.42757876  0.81496408  0.17552320  1
  O  O585  1  0.42809504  0.81365468  0.42722824  1
  O  O586  1  0.42851778  0.81413812  0.67597065  1
  O  O587  1  0.42733795  0.81282872  0.92404932  1
  O  O588  1  0.92676686  0.14561322  0.17573903  1
  O  O589  1  0.92669191  0.14580924  0.42529765  1
  O  O590  1  0.92592720  0.14615579  0.67501141  1
  O  O591  1  0.92684880  0.14684739  0.92779641  1
  O  O592  1  0.92629233  0.48159071  0.17625972  1
  O  O593  1  0.92651618  0.48242551  0.42592424  1
  O  O594  1  0.92517379  0.48058521  0.67540367  1
  O  O595  1  0.92663522  0.48255472  0.92648430  1
  O  O596  1  0.92647268  0.81262542  0.17537514  1
  O  O597  1  0.92640067  0.81500970  0.42573987  1
  O  O598  1  0.92650921  0.81244692  0.67557137  1
  O  O599  1  0.92606792  0.81350923  0.92463806  1
  O  O600  1  0.07196844  0.18494836  0.07481515  1
  O  O601  1  0.07422699  0.18664804  0.32574057  1
  O  O602  1  0.07400425  0.18636661  0.57556136  1
  O  O603  1  0.07349604  0.18653557  0.82596344  1
  O  O604  1  0.07297883  0.51874079  0.07491485  1
  O  O605  1  0.07214975  0.52051959  0.32336487  1
  O  O606  1  0.07251883  0.51903691  0.57430290  1
  O  O607  1  0.07286468  0.52111657  0.82454870  1
  O  O608  1  0.07317926  0.85390856  0.07553052  1
  O  O609  1  0.07278737  0.85440837  0.32508050  1
  O  O610  1  0.07195553  0.85226596  0.57310123  1
  O  O611  1  0.07378857  0.85355696  0.82577381  1
  O  O612  1  0.57405024  0.18631869  0.07405526  1
  O  O613  1  0.57437248  0.18545484  0.32483229  1
  O  O614  1  0.57464132  0.18605699  0.57656090  1
  O  O615  1  0.57210879  0.18613473  0.82278709  1
  O  O616  1  0.57286345  0.52040246  0.07207537  1
  O  O617  1  0.57406057  0.52045502  0.32510055  1
  O  O618  1  0.57284476  0.52123719  0.57535141  1
  O  O619  1  0.57325389  0.52157093  0.82459469  1
  O  O620  1  0.57401273  0.85409018  0.07300394  1
  O  O621  1  0.57344448  0.85101417  0.32368817  1
  O  O622  1  0.57237561  0.85242072  0.57388455  1
  O  O623  1  0.57180680  0.85234398  0.82230773  1
  O  O624  1  0.32275972  0.18594674  0.05166846  1
  O  O625  1  0.32487407  0.18642850  0.29927797  1
  O  O626  1  0.32430653  0.18445659  0.55135017  1
  O  O627  1  0.32401310  0.18567577  0.80017566  1
  O  O628  1  0.32304453  0.52181267  0.04974352  1
  O  O629  1  0.32297415  0.52102753  0.29949630  1
  O  O630  1  0.32410814  0.52044720  0.54939204  1
  O  O631  1  0.32325959  0.52105709  0.80131968  1
  O  O632  1  0.32422135  0.85232973  0.04986430  1
  O  O633  1  0.32182166  0.85259220  0.30229616  1
  O  O634  1  0.32262054  0.85333798  0.54995006  1
  O  O635  1  0.32291123  0.85191018  0.80004196  1
  O  O636  1  0.82111454  0.18629891  0.05183514  1
  O  O637  1  0.82373284  0.18830553  0.29971971  1
  O  O638  1  0.82394387  0.18636001  0.54945445  1
  O  O639  1  0.82360109  0.18788342  0.80083858  1
  O  O640  1  0.82247510  0.52130500  0.05014840  1
  O  O641  1  0.82261196  0.52151002  0.29970997  1
  O  O642  1  0.82137273  0.51933451  0.55162723  1
  O  O643  1  0.82239976  0.52080796  0.80131873  1
  O  O644  1  0.82254648  0.85149887  0.05069628  1
  O  O645  1  0.82351643  0.85445060  0.30026124  1
  O  O646  1  0.82124076  0.85219775  0.55178454  1
  O  O647  1  0.82242341  0.85279668  0.80059621  1
  O  O648  1  0.17667380  0.14707618  0.20002030  1
  O  O649  1  0.17775408  0.14529244  0.45040191  1
  O  O650  1  0.17786762  0.14630711  0.69832420  1
  O  O651  1  0.17637691  0.14682232  0.95030872  1
  O  O652  1  0.17638667  0.47954658  0.19995270  1
  O  O653  1  0.17572488  0.47950493  0.44998618  1
  O  O654  1  0.17612752  0.48058286  0.70054873  1
  O  O655  1  0.17604384  0.47997688  0.95173819  1
  O  O656  1  0.17719082  0.81297198  0.20029248  1
  O  O657  1  0.17843358  0.81405316  0.44744645  1
  O  O658  1  0.17553542  0.81334869  0.70021010  1
  O  O659  1  0.17766237  0.81395364  0.94915746  1
  O  O660  1  0.67781620  0.14857697  0.19872498  1
  O  O661  1  0.67706411  0.14498464  0.45031431  1
  O  O662  1  0.67775240  0.14577290  0.70022109  1
  O  O663  1  0.67619761  0.14526148  0.94894673  1
  O  O664  1  0.67659137  0.47977121  0.19966289  1
  O  O665  1  0.67642103  0.47930404  0.44918601  1
  O  O666  1  0.67637822  0.48209499  0.69938712  1
  O  O667  1  0.67791897  0.48089257  0.94883721  1
  O  O668  1  0.67867153  0.81444156  0.19761835  1
  O  O669  1  0.67696028  0.81197350  0.45025544  1
  O  O670  1  0.67841622  0.81408814  0.69764217  1
  O  O671  1  0.67670531  0.81338577  0.94761609  1
