# generated using pymatgen
data_Na2MnFe(PO4)2
_symmetry_space_group_name_H-M   'P 1'
_cell_length_a   22.34163173
_cell_length_b   20.09407960
_cell_length_c   19.45093210
_cell_angle_alpha   90.02493041
_cell_angle_beta   89.98168789
_cell_angle_gamma   90.01356697
_symmetry_Int_Tables_number   1
_chemical_formula_structural   Na2MnFe(PO4)2
_chemical_formula_sum   'Na96 Mn48 Fe48 P96 O384'
_cell_volume   8732.19346767
_cell_formula_units_Z   48
loop_
 _symmetry_equiv_pos_site_id
 _symmetry_equiv_pos_as_xyz
  1  'x, y, z'
loop_
 _atom_site_type_symbol
 _atom_site_label
 _atom_site_symmetry_multiplicity
 _atom_site_fract_x
 _atom_site_fract_y
 _atom_site_fract_z
 _atom_site_occupancy
  Na  Na0  1  0.13980544  0.24975428  0.24365156  1
  Na  Na1  1  0.13962503  0.25098071  0.49296958  1
  Na  Na2  1  0.14018676  0.24949756  0.74378594  1
  Na  Na3  1  0.14024554  0.25077789  0.99380278  1
  Na  Na4  1  0.14127236  0.58260673  0.24350099  1
  Na  Na5  1  0.14104321  0.58201416  0.49406333  1
  Na  Na6  1  0.14055463  0.58076857  0.74465477  1
  Na  Na7  1  0.14050669  0.58310321  0.99383179  1
  Na  Na8  1  0.14074897  0.91546265  0.24350372  1
  Na  Na9  1  0.14032970  0.91666183  0.49423324  1
  Na  Na10  1  0.14007277  0.91642242  0.74455372  1
  Na  Na11  1  0.14070167  0.91736606  0.99569189  1
  Na  Na12  1  0.64022976  0.24891595  0.24347191  1
  Na  Na13  1  0.63956756  0.24945472  0.49323543  1
  Na  Na14  1  0.64016247  0.24928100  0.74118439  1
  Na  Na15  1  0.64034176  0.24995911  0.99403054  1
  Na  Na16  1  0.64100721  0.58386145  0.24444568  1
  Na  Na17  1  0.64124042  0.58408334  0.49273938  1
  Na  Na18  1  0.64068876  0.58296266  0.74304932  1
  Na  Na19  1  0.64054219  0.58408576  0.99382596  1
  Na  Na20  1  0.64023459  0.91740775  0.24355628  1
  Na  Na21  1  0.64014275  0.91641720  0.49275230  1
  Na  Na22  1  0.63972692  0.91708120  0.74272031  1
  Na  Na23  1  0.64002915  0.91859558  0.99349087  1
  Na  Na24  1  0.35972464  0.08435688  0.00618160  1
  Na  Na25  1  0.35997255  0.08412989  0.25639685  1
  Na  Na26  1  0.36004532  0.08446825  0.50720362  1
  Na  Na27  1  0.35994392  0.08355286  0.75641665  1
  Na  Na28  1  0.35974205  0.41781086  0.00527913  1
  Na  Na29  1  0.35961956  0.41617799  0.25583873  1
  Na  Na30  1  0.35992396  0.41590599  0.50594611  1
  Na  Na31  1  0.35996559  0.41482790  0.75655258  1
  Na  Na32  1  0.35914233  0.75127315  0.00711488  1
  Na  Na33  1  0.36015091  0.74972881  0.25653704  1
  Na  Na34  1  0.36047390  0.75074406  0.50715191  1
  Na  Na35  1  0.35984996  0.75008079  0.75573440  1
  Na  Na36  1  0.85870114  0.08431273  0.00708864  1
  Na  Na37  1  0.85924409  0.08311415  0.25582732  1
  Na  Na38  1  0.85921193  0.08377989  0.50641484  1
  Na  Na39  1  0.85906711  0.08262471  0.75561348  1
  Na  Na40  1  0.85935355  0.41571951  0.00576370  1
  Na  Na41  1  0.85940647  0.41604240  0.25649655  1
  Na  Na42  1  0.85966061  0.41571930  0.50695717  1
  Na  Na43  1  0.85989788  0.41521630  0.75556790  1
  Na  Na44  1  0.85927471  0.75111129  0.00703450  1
  Na  Na45  1  0.85931360  0.75105972  0.25737598  1
  Na  Na46  1  0.85968369  0.75019384  0.50602172  1
  Na  Na47  1  0.85920756  0.74976124  0.75620750  1
  Na  Na48  1  0.10963610  0.08361824  0.11917231  1
  Na  Na49  1  0.10908553  0.08351325  0.36912857  1
  Na  Na50  1  0.10942886  0.08316931  0.61841921  1
  Na  Na51  1  0.10954847  0.08468147  0.86972519  1
  Na  Na52  1  0.10968713  0.41531543  0.11868121  1
  Na  Na53  1  0.11020096  0.41488199  0.36821984  1
  Na  Na54  1  0.11018317  0.41497047  0.61888140  1
  Na  Na55  1  0.10985676  0.41611808  0.86803423  1
  Na  Na56  1  0.11005898  0.75014725  0.11937230  1
  Na  Na57  1  0.10985413  0.75013863  0.36912852  1
  Na  Na58  1  0.10932677  0.74931276  0.61963958  1
  Na  Na59  1  0.10931451  0.74840586  0.87053030  1
  Na  Na60  1  0.60998766  0.08395612  0.11803844  1
  Na  Na61  1  0.60968376  0.08196335  0.36903123  1
  Na  Na62  1  0.60956796  0.08311616  0.61734162  1
  Na  Na63  1  0.60926992  0.08354744  0.86725907  1
  Na  Na64  1  0.60995676  0.41665388  0.11884631  1
  Na  Na65  1  0.61019758  0.41551895  0.36908556  1
  Na  Na66  1  0.61014159  0.41605047  0.61693715  1
  Na  Na67  1  0.60956019  0.41638557  0.86802090  1
  Na  Na68  1  0.60980963  0.75245878  0.11871882  1
  Na  Na69  1  0.61035763  0.75051077  0.36859730  1
  Na  Na70  1  0.60905889  0.75178527  0.61786117  1
  Na  Na71  1  0.60949784  0.75179947  0.86873864  1
  Na  Na72  1  0.39010524  0.25098176  0.13082862  1
  Na  Na73  1  0.39067203  0.24914189  0.38176503  1
  Na  Na74  1  0.39045464  0.24971328  0.63172668  1
  Na  Na75  1  0.39018823  0.25022058  0.88094053  1
  Na  Na76  1  0.39069458  0.58406284  0.13104851  1
  Na  Na77  1  0.39074946  0.58285929  0.38181960  1
  Na  Na78  1  0.39121437  0.58357326  0.63098763  1
  Na  Na79  1  0.39072114  0.58345440  0.88127520  1
  Na  Na80  1  0.39025613  0.91841338  0.13226069  1
  Na  Na81  1  0.39088135  0.91664192  0.38183241  1
  Na  Na82  1  0.39066238  0.91821421  0.63131721  1
  Na  Na83  1  0.39046338  0.91735170  0.88035779  1
  Na  Na84  1  0.88973093  0.24963847  0.13157686  1
  Na  Na85  1  0.89031753  0.24992163  0.38061046  1
  Na  Na86  1  0.88963179  0.25030257  0.63120808  1
  Na  Na87  1  0.88929788  0.24997522  0.88071503  1
  Na  Na88  1  0.89061138  0.58383480  0.13207398  1
  Na  Na89  1  0.89013220  0.58296220  0.38219408  1
  Na  Na90  1  0.89041480  0.58161400  0.63082540  1
  Na  Na91  1  0.89043774  0.58250887  0.88037762  1
  Na  Na92  1  0.88956663  0.91750568  0.13223278  1
  Na  Na93  1  0.88990119  0.91697825  0.38126108  1
  Na  Na94  1  0.88989096  0.91637906  0.63047813  1
  Na  Na95  1  0.88974073  0.91639985  0.88230951  1
  Mn  Mn96  1  0.50060220  0.49966202  0.50034200  1
  Mn  Mn97  1  0.50004799  0.33215046  0.24960875  1
  Mn  Mn98  1  0.74886621  0.33204423  0.87475469  1
  Mn  Mn99  1  0.49975582  0.66703852  -0.00054769  1
  Mn  Mn100  1  0.00094257  0.49822854  0.50012560  1
  Mn  Mn101  1  -0.00052002  0.49986504  -0.00016208  1
  Mn  Mn102  1  0.50058426  0.33398846  0.00008029  1
  Mn  Mn103  1  0.74959823  0.00023483  0.87484728  1
  Mn  Mn104  1  0.50103972  0.50005531  0.74932180  1
  Mn  Mn105  1  -0.00084848  0.33246336  -0.00040443  1
  Mn  Mn106  1  0.49994144  0.00054339  0.25044458  1
  Mn  Mn107  1  0.25078214  0.83329357  0.37511065  1
  Mn  Mn108  1  0.00015457  0.83278882  0.00075614  1
  Mn  Mn109  1  -0.00049447  0.66518115  0.74943316  1
  Mn  Mn110  1  0.25086611  0.49809069  0.62454143  1
  Mn  Mn111  1  0.74978085  0.49952217  0.87475354  1
  Mn  Mn112  1  0.75025245  0.66770213  0.87451115  1
  Mn  Mn113  1  0.25031976  0.66579956  0.37533907  1
  Mn  Mn114  1  0.50042492  0.49984969  0.25083221  1
  Mn  Mn115  1  0.00002387  0.00052306  0.25060643  1
  Mn  Mn116  1  0.49936772  0.83521396  -0.00083080  1
  Mn  Mn117  1  0.25038552  0.66560292  0.62543852  1
  Mn  Mn118  1  0.50093909  0.66768435  0.25030359  1
  Mn  Mn119  1  0.74997597  0.16578747  0.37446524  1
  Mn  Mn120  1  0.24945419  0.83390373  0.62605506  1
  Mn  Mn121  1  0.50065234  0.66812504  0.75036866  1
  Mn  Mn122  1  0.00044584  0.66728153  0.25122931  1
  Mn  Mn123  1  -0.00017151  0.00104353  0.00113356  1
  Mn  Mn124  1  0.24973398  0.83351855  0.87594265  1
  Mn  Mn125  1  -0.00013099  -0.00039017  0.49935980  1
  Mn  Mn126  1  0.00038348  0.49896544  0.25053328  1
  Mn  Mn127  1  -0.00102814  0.16745702  0.74912554  1
  Mn  Mn128  1  0.75012886  0.66803924  0.12493063  1
  Mn  Mn129  1  0.75029104  0.33331316  0.37511260  1
  Mn  Mn130  1  0.24961645  0.16695213  0.62530494  1
  Mn  Mn131  1  0.24960680  0.66582904  0.87571654  1
  Mn  Mn132  1  -0.00014792  0.00016675  0.75015076  1
  Mn  Mn133  1  0.25038568  0.00092241  0.87570270  1
  Mn  Mn134  1  0.00059376  0.66658879  0.50092078  1
  Mn  Mn135  1  0.74965819  0.66619264  0.62475557  1
  Mn  Mn136  1  0.75049002  0.49975223  0.12508804  1
  Mn  Mn137  1  0.24989051  0.49955659  0.12471902  1
  Mn  Mn138  1  0.25047265  0.16768227  0.12545330  1
  Mn  Mn139  1  0.74943930  0.83386868  0.62445994  1
  Mn  Mn140  1  0.50034128  0.16652451  -0.00084471  1
  Mn  Mn141  1  -0.00058522  0.83267687  0.75105024  1
  Mn  Mn142  1  0.25030268  0.00032445  0.37512393  1
  Mn  Mn143  1  0.24933353  0.16764776  0.37534320  1
  Fe  Fe144  1  0.74949010  0.00012133  0.37447482  1
  Fe  Fe145  1  0.74934430  0.33310268  0.12525075  1
  Fe  Fe146  1  -0.00017991  0.83360262  0.25028193  1
  Fe  Fe147  1  0.74940663  0.16579161  0.62432918  1
  Fe  Fe148  1  -0.00006304  0.33244756  0.24968443  1
  Fe  Fe149  1  0.00040376  0.33273689  0.74962274  1
  Fe  Fe150  1  0.49922859  0.83464314  0.74896696  1
  Fe  Fe151  1  0.49999613  0.33211875  0.49994071  1
  Fe  Fe152  1  0.74959119  0.83435843  0.87509377  1
  Fe  Fe153  1  0.75022730  0.83419089  0.37492895  1
  Fe  Fe154  1  0.25075015  0.49935306  0.87516427  1
  Fe  Fe155  1  0.50028755  0.83390358  0.50006409  1
  Fe  Fe156  1  0.24926839  0.16713145  0.87540740  1
  Fe  Fe157  1  -0.00030827  0.66618232  0.00044915  1
  Fe  Fe158  1  -0.00024915  0.16709018  -0.00000288  1
  Fe  Fe159  1  0.25004725  0.00075584  0.12554764  1
  Fe  Fe160  1  -0.00048607  0.16708636  0.25024509  1
  Fe  Fe161  1  0.25069814  0.66615377  0.12519309  1
  Fe  Fe162  1  -0.00044984  0.33246895  0.49960386  1
  Fe  Fe163  1  0.49997543  0.83368430  0.25069543  1
  Fe  Fe164  1  0.74944276  0.16642615  0.87462824  1
  Fe  Fe165  1  0.50054644  0.50027704  -0.00015654  1
  Fe  Fe166  1  0.75053080  0.49962626  0.62429477  1
  Fe  Fe167  1  -0.00002159  0.83316475  0.50040651  1
  Fe  Fe168  1  0.49998962  0.16671848  0.74932113  1
  Fe  Fe169  1  0.74974334  0.83443385  0.12593609  1
  Fe  Fe170  1  0.24991175  0.33264435  0.62518797  1
  Fe  Fe171  1  0.74989702  0.49961873  0.37505738  1
  Fe  Fe172  1  0.50021904  0.00047568  0.74872569  1
  Fe  Fe173  1  0.50024922  0.33328231  0.74929114  1
  Fe  Fe174  1  0.00046464  0.49875663  0.75022303  1
  Fe  Fe175  1  -0.00063889  0.16697060  0.49966968  1
  Fe  Fe176  1  0.25004941  0.33377579  0.12432208  1
  Fe  Fe177  1  0.50057126  0.66767201  0.50035912  1
  Fe  Fe178  1  0.74973272  0.16652866  0.12497476  1
  Fe  Fe179  1  0.24975186  0.00051112  0.62558837  1
  Fe  Fe180  1  0.25059832  0.33346916  0.37445202  1
  Fe  Fe181  1  0.74967996  0.33272901  0.62483449  1
  Fe  Fe182  1  0.75057394  0.66688104  0.37476688  1
  Fe  Fe183  1  0.25053671  0.83340835  0.12538106  1
  Fe  Fe184  1  0.74944359  0.00017726  0.12464615  1
  Fe  Fe185  1  0.49981405  0.00014142  0.49996654  1
  Fe  Fe186  1  0.75019233  -0.00036836  0.62460597  1
  Fe  Fe187  1  0.25080096  0.49918561  0.37438941  1
  Fe  Fe188  1  0.49999159  0.16617997  0.50054049  1
  Fe  Fe189  1  0.49952338  0.00059726  -0.00087716  1
  Fe  Fe190  1  0.24979001  0.33322677  0.87478505  1
  Fe  Fe191  1  0.50015360  0.16610984  0.25076564  1
  P  P192  1  0.04185494  0.24863508  0.10308255  1
  P  P193  1  0.04129216  0.24977763  0.35219815  1
  P  P194  1  0.04127531  0.25003544  0.60141929  1
  P  P195  1  0.04200274  0.25066834  0.85232815  1
  P  P196  1  0.04225287  0.58419373  0.10275709  1
  P  P197  1  0.04343048  0.58270029  0.35350791  1
  P  P198  1  0.04327010  0.58161620  0.60370205  1
  P  P199  1  0.04206689  0.58174571  0.85282410  1
  P  P200  1  0.04237318  0.91678986  0.10427655  1
  P  P201  1  0.04219878  0.91535602  0.35290919  1
  P  P202  1  0.04216584  0.91541290  0.60265066  1
  P  P203  1  0.04258496  0.91688257  0.85392947  1
  P  P204  1  0.54281014  0.24958931  0.10313591  1
  P  P205  1  0.54244050  0.24796066  0.35339136  1
  P  P206  1  0.54111586  0.24947669  0.60219876  1
  P  P207  1  0.54152450  0.25013485  0.85068774  1
  P  P208  1  0.54250633  0.58302190  0.10237014  1
  P  P209  1  0.54298123  0.58399860  0.35409405  1
  P  P210  1  0.54283579  0.58513281  0.60211223  1
  P  P211  1  0.54330880  0.58350469  0.85328897  1
  P  P212  1  0.54174542  0.91918958  0.10219314  1
  P  P213  1  0.54201687  0.91562605  0.35327404  1
  P  P214  1  0.54116310  0.91735490  0.60174876  1
  P  P215  1  0.54121290  0.91761402  0.85081796  1
  P  P216  1  0.45788285  0.08499580  0.14757228  1
  P  P217  1  0.45865042  0.08353116  0.39854503  1
  P  P218  1  0.45889434  0.08376256  0.64736335  1
  P  P219  1  0.45785401  0.08226275  0.89605292  1
  P  P220  1  0.45762501  0.41728234  0.14666109  1
  P  P221  1  0.45853633  0.41472971  0.39795307  1
  P  P222  1  0.45850339  0.41513856  0.64685294  1
  P  P223  1  0.45839716  0.41774102  0.89698792  1
  P  P224  1  0.45817310  0.75207292  0.14772804  1
  P  P225  1  0.45901028  0.75082968  0.39845850  1
  P  P226  1  0.45806213  0.75197060  0.64653653  1
  P  P227  1  0.45671575  0.75119852  0.89623542  1
  P  P228  1  0.95773070  0.08520985  0.14767657  1
  P  P229  1  0.95748998  0.08502967  0.39713811  1
  P  P230  1  0.95695748  0.08346533  0.64593686  1
  P  P231  1  0.95699025  0.08494518  0.89787740  1
  P  P232  1  0.95749517  0.41499821  0.14773810  1
  P  P233  1  0.95782621  0.41440135  0.39712708  1
  P  P234  1  0.95880311  0.41543416  0.64803356  1
  P  P235  1  0.95705818  0.41615925  0.89580718  1
  P  P236  1  0.95758963  0.75092048  0.14805965  1
  P  P237  1  0.95815306  0.75129448  0.39781678  1
  P  P238  1  0.95665817  0.74984699  0.64668781  1
  P  P239  1  0.95713787  0.74812532  0.89814756  1
  P  P240  1  0.20767567  0.08288509  0.22767622  1
  P  P241  1  0.20712067  0.08360472  0.47883125  1
  P  P242  1  0.20734993  0.08268078  0.72812134  1
  P  P243  1  0.20783192  0.08504687  0.97849741  1
  P  P244  1  0.20800198  0.41501793  0.22770103  1
  P  P245  1  0.20887265  0.41608455  0.47617962  1
  P  P246  1  0.20828138  0.41424398  0.72812742  1
  P  P247  1  0.20832434  0.41652136  0.97656532  1
  P  P248  1  0.20939660  0.74928283  0.22672708  1
  P  P249  1  0.20761103  0.74990293  0.47848483  1
  P  P250  1  0.20685441  0.74908113  0.72878235  1
  P  P251  1  0.20742831  0.74983951  0.97986624  1
  P  P252  1  0.70837420  0.08269350  0.22647658  1
  P  P253  1  0.70795350  0.08179271  0.47779405  1
  P  P254  1  0.70830534  0.08272944  0.72606864  1
  P  P255  1  0.70749194  0.08489866  0.97761569  1
  P  P256  1  0.70767949  0.41581985  0.22796956  1
  P  P257  1  0.70824201  0.41770127  0.47812047  1
  P  P258  1  0.70848840  0.41637400  0.72582008  1
  P  P259  1  0.70693368  0.41591255  0.97837036  1
  P  P260  1  0.70815832  0.75190507  0.22852451  1
  P  P261  1  0.70908837  0.75039370  0.47602912  1
  P  P262  1  0.70682473  0.75055173  0.72797378  1
  P  P263  1  0.70782809  0.75260747  0.97777842  1
  P  P264  1  0.29208399  0.25194956  0.02158151  1
  P  P265  1  0.29252392  0.25142336  0.27222098  1
  P  P266  1  0.29197138  0.25166137  0.52235372  1
  P  P267  1  0.29123454  0.24963379  0.77331049  1
  P  P268  1  0.29248059  0.58393601  0.02241195  1
  P  P269  1  0.29277881  0.58186808  0.27214927  1
  P  P270  1  0.29355196  0.58210152  0.52142077  1
  P  P271  1  0.29282971  0.58123371  0.77282381  1
  P  P272  1  0.29158906  0.91769200  0.02415229  1
  P  P273  1  0.29308878  0.91685967  0.27114605  1
  P  P274  1  0.29230168  0.91834046  0.52319494  1
  P  P275  1  0.29247386  0.91724665  0.77203949  1
  P  P276  1  0.79081583  0.24991013  0.02334203  1
  P  P277  1  0.79208440  0.24962371  0.27103958  1
  P  P278  1  0.79065578  0.24956782  0.52333685  1
  P  P279  1  0.79116005  0.24791907  0.77143611  1
  P  P280  1  0.79283656  0.58392727  0.02202973  1
  P  P281  1  0.79164133  0.58315336  0.27362896  1
  P  P282  1  0.79230304  0.58192493  0.52154245  1
  P  P283  1  0.79261058  0.58263844  0.77112702  1
  P  P284  1  0.79112080  0.91697309  0.02340853  1
  P  P285  1  0.79109019  0.91730615  0.27268951  1
  P  P286  1  0.79178487  0.91799776  0.52130588  1
  P  P287  1  0.79210093  0.91602281  0.77230070  1
  O  O288  1  0.03657537  0.24906843  0.18297729  1
  O  O289  1  0.03596008  0.24996320  0.43210226  1
  O  O290  1  0.03619188  0.25070869  0.68135886  1
  O  O291  1  0.03690416  0.24985144  0.93222644  1
  O  O292  1  0.03734937  0.58387009  0.18273781  1
  O  O293  1  0.03853580  0.58261957  0.43347325  1
  O  O294  1  0.03778993  0.58092176  0.68361303  1
  O  O295  1  0.03673688  0.58261538  0.93276461  1
  O  O296  1  0.03712597  0.91652240  0.18422732  1
  O  O297  1  0.03680068  0.91524951  0.43286224  1
  O  O298  1  0.03696364  0.91581707  0.68262684  1
  O  O299  1  0.03752195  0.91708201  0.93392244  1
  O  O300  1  0.53772261  0.24895514  0.18306239  1
  O  O301  1  0.53700938  0.24812734  0.43330041  1
  O  O302  1  0.53619374  0.25014963  0.68209071  1
  O  O303  1  0.53687070  0.25001141  0.93067432  1
  O  O304  1  0.53747694  0.58341967  0.18240039  1
  O  O305  1  0.53760448  0.58459560  0.43400518  1
  O  O306  1  0.53793596  0.58500663  0.68210386  1
  O  O307  1  0.53789354  0.58285430  0.93324451  1
  O  O308  1  0.53694209  0.91874681  0.18207319  1
  O  O309  1  0.53670900  0.91576826  0.43309965  1
  O  O310  1  0.53602381  0.91775242  0.68162054  1
  O  O311  1  0.53586147  0.91831015  0.93074564  1
  O  O312  1  0.46269821  0.08433926  0.06764127  1
  O  O313  1  0.46354487  0.08370484  0.31858835  1
  O  O314  1  0.46370663  0.08417560  0.56747285  1
  O  O315  1  0.46336620  0.08230715  0.81620664  1
  O  O316  1  0.46301555  0.41810465  0.06671742  1
  O  O317  1  0.46331162  0.41467040  0.31800207  1
  O  O318  1  0.46371946  0.41484781  0.56693248  1
  O  O319  1  0.46378193  0.41701531  0.81705575  1
  O  O320  1  0.46295346  0.75189232  0.06776746  1
  O  O321  1  0.46397857  0.75108579  0.31846201  1
  O  O322  1  0.46390524  0.75142252  0.56666718  1
  O  O323  1  0.46179932  0.75160594  0.81627875  1
  O  O324  1  0.96297838  0.08538226  0.06775263  1
  O  O325  1  0.96292214  0.08513442  0.31721214  1
  O  O326  1  0.96225936  0.08372177  0.56601172  1
  O  O327  1  0.96194279  0.08443748  0.81785770  1
  O  O328  1  0.96222494  0.41541597  0.06774291  1
  O  O329  1  0.96296120  0.41420235  0.31719240  1
  O  O330  1  0.96383218  0.41490794  0.56805197  1
  O  O331  1  0.96267643  0.41614642  0.81592125  1
  O  O332  1  0.96275560  0.74985815  0.06813314  1
  O  O333  1  0.96342874  0.75156529  0.31786425  1
  O  O334  1  0.96207105  0.75044795  0.56674073  1
  O  O335  1  0.96214923  0.74827274  0.81816230  1
  O  O336  1  0.21333986  0.08462871  0.05839685  1
  O  O337  1  0.21263208  0.08329622  0.30764309  1
  O  O338  1  0.21226802  0.08326480  0.55879560  1
  O  O339  1  0.21253117  0.08358673  0.80807108  1
  O  O340  1  0.21322772  0.41644671  0.05653654  1
  O  O341  1  0.21355036  0.41531477  0.30752143  1
  O  O342  1  0.21381689  0.41558868  0.55612533  1
  O  O343  1  0.21357686  0.41438224  0.80794711  1
  O  O344  1  0.21322687  0.74970550  0.05973462  1
  O  O345  1  0.21418083  0.74957020  0.30673767  1
  O  O346  1  0.21251925  0.74989789  0.55844050  1
  O  O347  1  0.21193142  0.74916871  0.80878798  1
  O  O348  1  0.71265440  0.08463846  0.05743856  1
  O  O349  1  0.71310412  0.08231483  0.30643386  1
  O  O350  1  0.71324388  0.08186401  0.55761916  1
  O  O351  1  0.71291010  0.08335103  0.80602490  1
  O  O352  1  0.71219226  0.41546407  0.05829679  1
  O  O353  1  0.71312716  0.41664897  0.30792082  1
  O  O354  1  0.71365996  0.41760449  0.55798602  1
  O  O355  1  0.71281949  0.41582846  0.80585414  1
  O  O356  1  0.71319304  0.75283355  0.05775888  1
  O  O357  1  0.71381718  0.75160836  0.30836567  1
  O  O358  1  0.71346630  0.74999343  0.55601278  1
  O  O359  1  0.71194184  0.75109843  0.80792285  1
  O  O360  1  0.28766240  0.25135075  0.19225916  1
  O  O361  1  0.28712867  0.25171481  0.44239654  1
  O  O362  1  0.28625061  0.24968238  0.69333971  1
  O  O363  1  0.28639945  0.25136552  0.94174199  1
  O  O364  1  0.28727529  0.58266611  0.19221811  1
  O  O365  1  0.28836570  0.58171912  0.44145576  1
  O  O366  1  0.28783708  0.58124744  0.69281749  1
  O  O367  1  0.28719599  0.58314724  0.94250918  1
  O  O368  1  0.28776814  0.91715702  0.19125241  1
  O  O369  1  0.28751193  0.91784039  0.44316333  1
  O  O370  1  0.28707234  0.91778888  0.69213589  1
  O  O371  1  0.28661943  0.91731334  0.94418481  1
  O  O372  1  0.78663382  0.24984930  0.19121778  1
  O  O373  1  0.78640861  0.24955349  0.44335401  1
  O  O374  1  0.78593999  0.24822899  0.69158426  1
  O  O375  1  0.78593604  0.24920450  0.94335377  1
  O  O376  1  0.78687404  0.58366252  0.19364111  1
  O  O377  1  0.78704526  0.58193874  0.44164120  1
  O  O378  1  0.78730607  0.58222107  0.69116287  1
  O  O379  1  0.78764488  0.58392836  0.94209287  1
  O  O380  1  0.78593894  0.91706273  0.19281464  1
  O  O381  1  0.78626591  0.91775946  0.44145564  1
  O  O382  1  0.78701659  0.91658036  0.69237741  1
  O  O383  1  0.78624873  0.91666580  0.94343046  1
  O  O384  1  0.22804398  0.25188932  0.05805137  1
  O  O385  1  0.22809039  0.25184319  0.30759638  1
  O  O386  1  0.22758062  0.25148727  0.55776920  1
  O  O387  1  0.22708144  0.24969659  0.80935688  1
  O  O388  1  0.22823541  0.58464865  0.05824696  1
  O  O389  1  0.22857868  0.58120241  0.30810338  1
  O  O390  1  0.22917628  0.58197676  0.55672463  1
  O  O391  1  0.22845149  0.58075354  0.80826848  1
  O  O392  1  0.22748646  0.91793082  0.06015649  1
  O  O393  1  0.22877234  0.91667885  0.30671618  1
  O  O394  1  0.22788246  0.91882536  0.55849636  1
  O  O395  1  0.22823553  0.91727517  0.80763592  1
  O  O396  1  0.72671744  0.25063515  0.05940227  1
  O  O397  1  0.72797646  0.24967840  0.30703532  1
  O  O398  1  0.72637954  0.24982233  0.55864616  1
  O  O399  1  0.72693345  0.24757203  0.80749436  1
  O  O400  1  0.72848109  0.58370941  0.05726953  1
  O  O401  1  0.72747147  0.58293374  0.30936815  1
  O  O402  1  0.72811011  0.58162690  0.55759455  1
  O  O403  1  0.72833522  0.58340408  0.80661648  1
  O  O404  1  0.72691698  0.91715851  0.05936930  1
  O  O405  1  0.72704782  0.91748282  0.30912966  1
  O  O406  1  0.72763600  0.91858816  0.55754136  1
  O  O407  1  0.72771705  0.91571875  0.80788822  1
  O  O408  1  0.27206793  0.08260090  0.19231644  1
  O  O409  1  0.27151963  0.08418072  0.44362740  1
  O  O410  1  0.27166639  0.08223397  0.69236907  1
  O  O411  1  0.27201360  0.08575455  0.94251612  1
  O  O412  1  0.27213102  0.41502235  0.19145904  1
  O  O413  1  0.27309885  0.41652585  0.44018586  1
  O  O414  1  0.27248829  0.41375906  0.69203475  1
  O  O415  1  0.27252602  0.41649341  0.94060824  1
  O  O416  1  0.27353219  0.74897605  0.19084387  1
  O  O417  1  0.27212201  0.74961746  0.44357536  1
  O  O418  1  0.27133155  0.74967547  0.69379842  1
  O  O419  1  0.27155795  0.74972384  0.94379018  1
  O  O420  1  0.77248697  0.08235830  0.19052179  1
  O  O421  1  0.77206602  0.08134442  0.44155704  1
  O  O422  1  0.77252365  0.08226729  0.69029110  1
  O  O423  1  0.77167157  0.08493952  0.94154028  1
  O  O424  1  0.77188766  0.41486786  0.19205165  1
  O  O425  1  0.77237990  0.41787983  0.44195832  1
  O  O426  1  0.77284546  0.41637990  0.69047295  1
  O  O427  1  0.77122142  0.41554871  0.94287534  1
  O  O428  1  0.77224185  0.75222567  0.19221400  1
  O  O429  1  0.77328399  0.75097129  0.44041748  1
  O  O430  1  0.77118795  0.75030781  0.69270378  1
  O  O431  1  0.77202159  0.75275423  0.94179623  1
  O  O432  1  0.02191304  0.08515807  0.18354728  1
  O  O433  1  0.02164252  0.08503638  0.43309215  1
  O  O434  1  0.02122997  0.08364829  0.68144245  1
  O  O435  1  0.02143482  0.08527611  0.93319521  1
  O  O436  1  0.02196000  0.41466558  0.18287798  1
  O  O437  1  0.02220027  0.41380430  0.43257746  1
  O  O438  1  0.02296021  0.41526215  0.68411709  1
  O  O439  1  0.02121454  0.41608483  0.93169743  1
  O  O440  1  0.02194878  0.75156051  0.18364597  1
  O  O441  1  0.02238675  0.75126641  0.43364642  1
  O  O442  1  0.02098691  0.74946686  0.68202405  1
  O  O443  1  0.02153499  0.74798114  0.93354188  1
  O  O444  1  0.52222890  0.08524054  0.18317591  1
  O  O445  1  0.52279263  0.08395854  0.43443767  1
  O  O446  1  0.52298999  0.08341122  0.68345572  1
  O  O447  1  0.52199357  0.08183915  0.93226412  1
  O  O448  1  0.52191582  0.41651990  0.18211602  1
  O  O449  1  0.52283016  0.41521521  0.43325541  1
  O  O450  1  0.52281942  0.41500644  0.68247561  1
  O  O451  1  0.52260438  0.41833820  0.93290721  1
  O  O452  1  0.52256903  0.75239712  0.18310404  1
  O  O453  1  0.52320757  0.75122830  0.43434935  1
  O  O454  1  0.52207758  0.75279920  0.68298325  1
  O  O455  1  0.52109164  0.75119692  0.93141799  1
  O  O456  1  0.47855771  0.24995272  0.06766416  1
  O  O457  1  0.47824255  0.24766660  0.31731686  1
  O  O458  1  0.47704552  0.24885848  0.56601758  1
  O  O459  1  0.47724595  0.25053590  0.81517939  1
  O  O460  1  0.47819828  0.58252917  0.06679547  1
  O  O461  1  0.47873130  0.58408337  0.31855648  1
  O  O462  1  0.47850828  0.58470518  0.56681692  1
  O  O463  1  0.47903935  0.58363577  0.81783128  1
  O  O464  1  0.47736405  0.91947411  0.06665991  1
  O  O465  1  0.47791049  0.91561141  0.31708454  1
  O  O466  1  0.47714914  0.91647966  0.56548440  1
  O  O467  1  0.47714191  0.91752140  0.81454043  1
  O  O468  1  0.97759500  0.24804215  0.06712366  1
  O  O469  1  0.97723872  0.24998607  0.31579484  1
  O  O470  1  0.97701629  0.24971134  0.56549254  1
  O  O471  1  0.97765613  0.25167801  0.81678945  1
  O  O472  1  0.97782133  0.58433041  0.06747368  1
  O  O473  1  0.97890290  0.58285518  0.31876823  1
  O  O474  1  0.97901377  0.58186229  0.56819867  1
  O  O475  1  0.97792358  0.58091239  0.81684772  1
  O  O476  1  0.97808492  0.91681944  0.06886477  1
  O  O477  1  0.97792961  0.91554908  0.31714150  1
  O  O478  1  0.97787506  0.91524608  0.56702704  1
  O  O479  1  0.97807738  0.91687820  0.81900795  1
  O  O480  1  0.07263239  0.31232178  0.07466811  1
  O  O481  1  0.07236896  0.31317326  0.32345808  1
  O  O482  1  0.07220676  0.31342586  0.57269829  1
  O  O483  1  0.07319594  0.31404338  0.82406024  1
  O  O484  1  0.07275379  0.64783594  0.07426228  1
  O  O485  1  0.07456031  0.64617419  0.32549676  1
  O  O486  1  0.07425634  0.64543517  0.57618099  1
  O  O487  1  0.07316319  0.64521062  0.82461933  1
  O  O488  1  0.07329293  0.98053109  0.07640993  1
  O  O489  1  0.07325268  0.97928705  0.32559330  1
  O  O490  1  0.07315837  0.97904497  0.57468417  1
  O  O491  1  0.07352016  0.98039501  0.82561683  1
  O  O492  1  0.57387061  0.31325703  0.07533315  1
  O  O493  1  0.57355286  0.31155936  0.32535118  1
  O  O494  1  0.57147940  0.31321438  0.57303836  1
  O  O495  1  0.57272700  0.31358378  0.82258288  1
  O  O496  1  0.57330169  0.64691598  0.07467679  1
  O  O497  1  0.57445360  0.64702735  0.32540059  1
  O  O498  1  0.57318580  0.64894630  0.57368272  1
  O  O499  1  0.57427141  0.64732090  0.82569392  1
  O  O500  1  0.57223133  0.98277364  0.07330601  1
  O  O501  1  0.57318934  0.97924627  0.32529416  1
  O  O502  1  0.57126446  0.98136151  0.57291800  1
  O  O503  1  0.57249456  0.98087144  0.82224704  1
  O  O504  1  0.42679312  0.02167172  0.17617499  1
  O  O505  1  0.42856295  0.01926848  0.42669621  1
  O  O506  1  0.42754546  0.02036697  0.67545827  1
  O  O507  1  0.42670429  0.01912550  0.92511271  1
  O  O508  1  0.42636896  0.35361093  0.17418965  1
  O  O509  1  0.42836349  0.35086033  0.42661574  1
  O  O510  1  0.42740483  0.35198060  0.67578689  1
  O  O511  1  0.42738063  0.35411610  0.92503565  1
  O  O512  1  0.42740158  0.68827221  0.17560788  1
  O  O513  1  0.42876824  0.68667548  0.42657805  1
  O  O514  1  0.42714036  0.68826719  0.67466529  1
  O  O515  1  0.42588263  0.68753566  0.92441041  1
  O  O516  1  0.92677856  0.02131035  0.17523694  1
  O  O517  1  0.92650766  0.02111419  0.42446427  1
  O  O518  1  0.92613967  0.01983438  0.67415198  1
  O  O519  1  0.92610509  0.02134308  0.92612056  1
  O  O520  1  0.92673438  0.35146329  0.17602677  1
  O  O521  1  0.92635927  0.35149026  0.42613247  1
  O  O522  1  0.92756224  0.35209348  0.67644332  1
  O  O523  1  0.92568437  0.35278471  0.92408556  1
  O  O524  1  0.92648777  0.68756108  0.17666134  1
  O  O525  1  0.92725077  0.68732057  0.42520465  1
  O  O526  1  0.92559593  0.68607725  0.67426977  1
  O  O527  1  0.92655116  0.68452422  0.92659356  1
  O  O528  1  0.17683364  0.01932343  0.19946814  1
  O  O529  1  0.17605174  0.02030848  0.45029600  1
  O  O530  1  0.17655948  0.01904568  0.69988656  1
  O  O531  1  0.17679814  0.02138724  0.95065016  1
  O  O532  1  0.17715385  0.35162120  0.19881419  1
  O  O533  1  0.17810279  0.35249075  0.44765293  1
  O  O534  1  0.17717465  0.35101374  0.69908764  1
  O  O535  1  0.17717053  0.35309745  0.94834060  1
  O  O536  1  0.17821071  0.68562651  0.19913653  1
  O  O537  1  0.17644158  0.68648478  0.45031456  1
  O  O538  1  0.17641328  0.68522401  0.70070289  1
  O  O539  1  0.17599813  0.68661664  0.95137522  1
  O  O540  1  0.67692347  0.01954991  0.19788090  1
  O  O541  1  0.67669977  0.01870607  0.44877682  1
  O  O542  1  0.67742637  0.01898398  0.69808120  1
  O  O543  1  0.67641600  0.02131109  0.94927142  1
  O  O544  1  0.67649656  0.35230620  0.20001098  1
  O  O545  1  0.67712738  0.35393544  0.45031664  1
  O  O546  1  0.67802275  0.35251071  0.69721465  1
  O  O547  1  0.67534507  0.35289610  0.94968283  1
  O  O548  1  0.67706086  0.68825831  0.20036397  1
  O  O549  1  0.67901833  0.68635058  0.44747531  1
  O  O550  1  0.67582711  0.68694986  0.69986760  1
  O  O551  1  0.67698707  0.68862764  0.95029396  1
  O  O552  1  0.32281638  0.31562990  0.04992035  1
  O  O553  1  0.32377684  0.31452804  0.30095705  1
  O  O554  1  0.32276704  0.31490997  0.55139325  1
  O  O555  1  0.32241624  0.31305507  0.80150819  1
  O  O556  1  0.32363046  0.64738447  0.05064589  1
  O  O557  1  0.32394069  0.64532983  0.30039415  1
  O  O558  1  0.32432836  0.64582841  0.54954008  1
  O  O559  1  0.32357423  0.64509939  0.80049201  1
  O  O560  1  0.32260961  0.98147531  0.05168559  1
  O  O561  1  0.32426139  0.98021133  0.29978543  1
  O  O562  1  0.32307418  0.98197134  0.55138803  1
  O  O563  1  0.32392179  0.98040116  0.80051218  1
  O  O564  1  0.82205230  0.31350322  0.05117251  1
  O  O565  1  0.82350453  0.31277039  0.29971276  1
  O  O566  1  0.82157042  0.31317678  0.55166780  1
  O  O567  1  0.82209304  0.31156172  0.79978789  1
  O  O568  1  0.82361589  0.64751550  0.05031939  1
  O  O569  1  0.82213881  0.64707144  0.30204449  1
  O  O570  1  0.82324257  0.64572045  0.54946445  1
  O  O571  1  0.82396846  0.64611914  0.79902772  1
  O  O572  1  0.82173912  0.98101585  0.05131764  1
  O  O573  1  0.82219389  0.98091717  0.30083791  1
  O  O574  1  0.82305029  0.98117217  0.55008874  1
  O  O575  1  0.82310310  0.97954940  0.80065036  1
  O  O576  1  0.42722037  0.14863724  0.17608621  1
  O  O577  1  0.42698186  0.14652163  0.42699876  1
  O  O578  1  0.42839306  0.14746799  0.67647561  1
  O  O579  1  0.42697940  0.14605230  0.92407023  1
  O  O580  1  0.42665073  0.48049854  0.17560970  1
  O  O581  1  0.42705709  0.47816009  0.42558651  1
  O  O582  1  0.42772311  0.47912995  0.67435963  1
  O  O583  1  0.42755268  0.48129895  0.92535748  1
  O  O584  1  0.42753443  0.81559435  0.17635024  1
  O  O585  1  0.42753335  0.81402352  0.42682160  1
  O  O586  1  0.42671033  0.81534161  0.67474575  1
  O  O587  1  0.42539550  0.81439191  0.92478252  1
  O  O588  1  0.92664315  0.14833061  0.17654390  1
  O  O589  1  0.92646252  0.14829717  0.42587750  1
  O  O590  1  0.92556993  0.14673274  0.67418470  1
  O  O591  1  0.92631405  0.14860169  0.92606557  1
  O  O592  1  0.92673834  0.47875184  0.17583651  1
  O  O593  1  0.92742757  0.47847903  0.42497788  1
  O  O594  1  0.92839824  0.47947309  0.67597017  1
  O  O595  1  0.92575600  0.47939043  0.92444029  1
  O  O596  1  0.92682764  0.81470449  0.17608670  1
  O  O597  1  0.92717793  0.81462259  0.42648018  1
  O  O598  1  0.92547519  0.81302329  0.67544732  1
  O  O599  1  0.92625487  0.81191080  0.92593236  1
  O  O600  1  0.07303456  0.18541091  0.07436401  1
  O  O601  1  0.07215871  0.18604117  0.32398661  1
  O  O602  1  0.07196622  0.18611461  0.57360290  1
  O  O603  1  0.07268127  0.18709877  0.82370558  1
  O  O604  1  0.07324637  0.52048112  0.07489789  1
  O  O605  1  0.07420705  0.51914862  0.32516077  1
  O  O606  1  0.07466155  0.51849961  0.57506024  1
  O  O607  1  0.07295777  0.51805059  0.82471237  1
  O  O608  1  0.07379699  0.85365676  0.07590453  1
  O  O609  1  0.07314510  0.85211603  0.32402898  1
  O  O610  1  0.07295697  0.85178585  0.57449949  1
  O  O611  1  0.07347162  0.85318886  0.82607547  1
  O  O612  1  0.57395939  0.18648657  0.07420892  1
  O  O613  1  0.57338042  0.18453652  0.32462075  1
  O  O614  1  0.57256766  0.18607213  0.57416238  1
  O  O615  1  0.57170976  0.18609736  0.82229643  1
  O  O616  1  0.57333946  0.51944953  0.07415821  1
  O  O617  1  0.57376636  0.52010999  0.32639339  1
  O  O618  1  0.57418634  0.52155629  0.57463394  1
  O  O619  1  0.57472986  0.52044908  0.82450442  1
  O  O620  1  0.57286714  0.85574353  0.07387516  1
  O  O621  1  0.57282482  0.85228314  0.32420855  1
  O  O622  1  0.57299816  0.85424152  0.57358408  1
  O  O623  1  0.57176216  0.85357338  0.82310473  1
  O  O624  1  0.32362034  0.18868758  0.04988032  1
  O  O625  1  0.32295533  0.18746324  0.30034975  1
  O  O626  1  0.32295511  0.18799813  0.55040511  1
  O  O627  1  0.32175514  0.18573941  0.80147526  1
  O  O628  1  0.32331450  0.52031719  0.05056373  1
  O  O629  1  0.32367561  0.51821444  0.30013714  1
  O  O630  1  0.32488213  0.51892324  0.54987678  1
  O  O631  1  0.32371257  0.51774615  0.80119969  1
  O  O632  1  0.32206655  0.85380739  0.05242518  1
  O  O633  1  0.32420252  0.85341640  0.29958868  1
  O  O634  1  0.32302321  0.85458444  0.55107350  1
  O  O635  1  0.32331609  0.85351256  0.79991202  1
  O  O636  1  0.82115507  0.18611591  0.05213439  1
  O  O637  1  0.82308489  0.18606144  0.29931627  1
  O  O638  1  0.82104342  0.18570150  0.55162127  1
  O  O639  1  0.82212151  0.18462140  0.80031894  1
  O  O640  1  0.82407438  0.52049339  0.04999658  1
  O  O641  1  0.82264406  0.51946675  0.30132791  1
  O  O642  1  0.82339937  0.51867812  0.55051094  1
  O  O643  1  0.82339528  0.51910206  0.79947667  1
  O  O644  1  0.82219611  0.85374226  0.05216246  1
  O  O645  1  0.82191806  0.85378448  0.30147916  1
  O  O646  1  0.82260551  0.85425627  0.54939620  1
  O  O647  1  0.82282116  0.85251167  0.80083691  1
  O  O648  1  0.17685742  0.14659607  0.19983178  1
  O  O649  1  0.17596858  0.14714737  0.45079448  1
  O  O650  1  0.17628305  0.14614700  0.69980149  1
  O  O651  1  0.17682925  0.14846462  0.95000471  1
  O  O652  1  0.17664659  0.47847562  0.19958768  1
  O  O653  1  0.17809688  0.47984832  0.44813952  1
  O  O654  1  0.17744677  0.47789081  0.69986535  1
  O  O655  1  0.17796348  0.48053125  0.94841049  1
  O  O656  1  0.17904985  0.81325772  0.19847492  1
  O  O657  1  0.17690248  0.81350000  0.45016841  1
  O  O658  1  0.17542588  0.81238469  0.70082827  1
  O  O659  1  0.17632590  0.81343964  0.95183593  1
  O  O660  1  0.67823879  0.14686596  0.19836230  1
  O  O661  1  0.67718974  0.14562681  0.44977431  1
  O  O662  1  0.67777201  0.14631838  0.69707523  1
  O  O663  1  0.67665074  0.14821657  0.94858370  1
  O  O664  1  0.67692242  0.47954259  0.19987595  1
  O  O665  1  0.67718100  0.48090740  0.44917903  1
  O  O666  1  0.67768415  0.48002971  0.69787785  1
  O  O667  1  0.67634165  0.47976067  0.95039558  1
  O  O668  1  0.67700183  0.81522362  0.19995385  1
  O  O669  1  0.67778324  0.81392356  0.44843440  1
  O  O670  1  0.67568088  0.81374341  0.69921107  1
  O  O671  1  0.67668137  0.81583697  0.94908858  1
