# generated using pymatgen
data_Na2MnFe(PO4)2
_symmetry_space_group_name_H-M   'P 1'
_cell_length_a   22.34239841
_cell_length_b   20.09388271
_cell_length_c   19.44996117
_cell_angle_alpha   89.97420352
_cell_angle_beta   89.98748638
_cell_angle_gamma   89.98465900
_symmetry_Int_Tables_number   1
_chemical_formula_structural   Na2MnFe(PO4)2
_chemical_formula_sum   'Na96 Mn48 Fe48 P96 O384'
_cell_volume   8731.97178423
_cell_formula_units_Z   48
loop_
 _symmetry_equiv_pos_site_id
 _symmetry_equiv_pos_as_xyz
  1  'x, y, z'
loop_
 _atom_site_type_symbol
 _atom_site_label
 _atom_site_symmetry_multiplicity
 _atom_site_fract_x
 _atom_site_fract_y
 _atom_site_fract_z
 _atom_site_occupancy
  Na  Na0  1  0.14080659  0.25051296  0.24329474  1
  Na  Na1  1  0.14075695  0.24865432  0.49485005  1
  Na  Na2  1  0.14057150  0.24912342  0.74393306  1
  Na  Na3  1  0.14052859  0.25055857  0.99334867  1
  Na  Na4  1  0.14074146  0.58490484  0.24353837  1
  Na  Na5  1  0.14086019  0.58185509  0.49409769  1
  Na  Na6  1  0.14069413  0.58164095  0.74529718  1
  Na  Na7  1  0.14066793  0.58367669  0.99416814  1
  Na  Na8  1  0.14122827  0.91778093  0.24311186  1
  Na  Na9  1  0.14028629  0.91587615  0.49301102  1
  Na  Na10  1  0.14049269  0.91616864  0.74374785  1
  Na  Na11  1  0.14073301  0.91713845  0.99370770  1
  Na  Na12  1  0.64059329  0.25026751  0.24387479  1
  Na  Na13  1  0.64026147  0.25006841  0.49563655  1
  Na  Na14  1  0.64002021  0.25021345  0.74394806  1
  Na  Na15  1  0.64038762  0.25089629  0.99320730  1
  Na  Na16  1  0.63975894  0.58207652  0.24235501  1
  Na  Na17  1  0.64008297  0.58413982  0.49473709  1
  Na  Na18  1  0.63952981  0.58403789  0.74336727  1
  Na  Na19  1  0.63963316  0.58385494  0.99168458  1
  Na  Na20  1  0.63977371  0.91731139  0.24363739  1
  Na  Na21  1  0.63992794  0.91686122  0.49350601  1
  Na  Na22  1  0.64006534  0.91714175  0.74334332  1
  Na  Na23  1  0.64023376  0.91728823  0.99104855  1
  Na  Na24  1  0.36017475  0.08320314  0.00749301  1
  Na  Na25  1  0.35998492  0.08359004  0.25573757  1
  Na  Na26  1  0.35977478  0.08264846  0.50646163  1
  Na  Na27  1  0.36009904  0.08307886  0.75667234  1
  Na  Na28  1  0.35972858  0.41808790  0.00695054  1
  Na  Na29  1  0.35969303  0.41873498  0.25593159  1
  Na  Na30  1  0.35951924  0.41513028  0.50675088  1
  Na  Na31  1  0.35987298  0.41610919  0.75858391  1
  Na  Na32  1  0.35982455  0.74963291  0.00801444  1
  Na  Na33  1  0.35964408  0.75121370  0.25554727  1
  Na  Na34  1  0.36025266  0.74876738  0.50636932  1
  Na  Na35  1  0.36018760  0.74858143  0.75731418  1
  Na  Na36  1  0.85969024  0.08371741  0.00501384  1
  Na  Na37  1  0.86002665  0.08374520  0.25596116  1
  Na  Na38  1  0.85948804  0.08353873  0.50669877  1
  Na  Na39  1  0.85946155  0.08308511  0.75648252  1
  Na  Na40  1  0.85904000  0.41652595  0.00580534  1
  Na  Na41  1  0.85909238  0.41595165  0.25500174  1
  Na  Na42  1  0.85925778  0.41645177  0.50689284  1
  Na  Na43  1  0.85917717  0.41561847  0.75680458  1
  Na  Na44  1  0.85918236  0.74911237  0.00509451  1
  Na  Na45  1  0.85909990  0.74982814  0.25477454  1
  Na  Na46  1  0.85960642  0.75077529  0.50722127  1
  Na  Na47  1  0.85914985  0.75030789  0.75638668  1
  Na  Na48  1  0.11031611  0.08494674  0.11815143  1
  Na  Na49  1  0.11003491  0.08223891  0.36876136  1
  Na  Na50  1  0.10982176  0.08300217  0.61885313  1
  Na  Na51  1  0.11010961  0.08325382  0.86881658  1
  Na  Na52  1  0.10974601  0.41803190  0.11883986  1
  Na  Na53  1  0.10992989  0.41542290  0.36902458  1
  Na  Na54  1  0.11014924  0.41493231  0.61981045  1
  Na  Na55  1  0.10971914  0.41524877  0.86897956  1
  Na  Na56  1  0.11025436  0.75071208  0.11789650  1
  Na  Na57  1  0.10990952  0.75013213  0.36883949  1
  Na  Na58  1  0.10973967  0.75044891  0.61925010  1
  Na  Na59  1  0.10998846  0.74873314  0.87006033  1
  Na  Na60  1  0.60939548  0.08256784  0.11772017  1
  Na  Na61  1  0.60979196  0.08338932  0.36957766  1
  Na  Na62  1  0.60968512  0.08294875  0.61917965  1
  Na  Na63  1  0.60978175  0.08424506  0.86827346  1
  Na  Na64  1  0.60975127  0.41745160  0.11740307  1
  Na  Na65  1  0.60956226  0.41685939  0.36874808  1
  Na  Na66  1  0.60914101  0.41748092  0.61997019  1
  Na  Na67  1  0.60883547  0.41852627  0.86825147  1
  Na  Na68  1  0.60890861  0.75003042  0.11609735  1
  Na  Na69  1  0.60934418  0.75012592  0.36961302  1
  Na  Na70  1  0.60962457  0.75047252  0.61815603  1
  Na  Na71  1  0.60960759  0.75004018  0.86691699  1
  Na  Na72  1  0.39074144  0.24934377  0.13152468  1
  Na  Na73  1  0.39024398  0.24973145  0.38178323  1
  Na  Na74  1  0.38975533  0.24967245  0.63312703  1
  Na  Na75  1  0.39061065  0.25005767  0.88194084  1
  Na  Na76  1  0.38973183  0.58415911  0.13109359  1
  Na  Na77  1  0.39028976  0.58399328  0.38065170  1
  Na  Na78  1  0.39077805  0.58329500  0.63248001  1
  Na  Na79  1  0.38984423  0.58447776  0.88297426  1
  Na  Na80  1  0.39033131  0.91697643  0.13076904  1
  Na  Na81  1  0.39073519  0.91636989  0.38118180  1
  Na  Na82  1  0.39074758  0.91561272  0.63050885  1
  Na  Na83  1  0.39101195  0.91732387  0.88282940  1
  Na  Na84  1  0.89023242  0.25067768  0.13039275  1
  Na  Na85  1  0.89017557  0.24799209  0.38137522  1
  Na  Na86  1  0.88987949  0.24934618  0.63231273  1
  Na  Na87  1  0.89018324  0.24866208  0.88060972  1
  Na  Na88  1  0.88970162  0.58348725  0.12962741  1
  Na  Na89  1  0.89009052  0.58421641  0.38111425  1
  Na  Na90  1  0.89032474  0.58376713  0.63231664  1
  Na  Na91  1  0.88937366  0.58227524  0.88175581  1
  Na  Na92  1  0.89038975  0.91816191  0.12917826  1
  Na  Na93  1  0.89067060  0.91673841  0.38123268  1
  Na  Na94  1  0.89029022  0.91701258  0.63132271  1
  Na  Na95  1  0.88992667  0.91555234  0.88098118  1
  Mn  Mn96  1  0.50031236  0.33388685  0.24991170  1
  Mn  Mn97  1  0.49949375  0.33380822  0.50052777  1
  Mn  Mn98  1  0.74955604  0.66672460  0.37451514  1
  Mn  Mn99  1  0.25069242  0.83263305  0.87549688  1
  Mn  Mn100  1  0.25023119  0.66509550  0.62600804  1
  Mn  Mn101  1  0.25019368  0.33433560  0.12467479  1
  Mn  Mn102  1  0.74975019  0.49985073  0.37525442  1
  Mn  Mn103  1  0.49979292  0.83359467  0.74992539  1
  Mn  Mn104  1  -0.00029242  0.49967615  -0.00050020  1
  Mn  Mn105  1  0.74962975  0.00032970  0.62512673  1
  Mn  Mn106  1  0.00005355  0.50026532  0.24939583  1
  Mn  Mn107  1  0.25114358  0.49788268  0.62484251  1
  Mn  Mn108  1  0.74943113  0.16712158  0.12478805  1
  Mn  Mn109  1  0.49953105  0.16654665  0.75065210  1
  Mn  Mn110  1  0.25061974  -0.00001135  0.62502919  1
  Mn  Mn111  1  0.49971866  0.66647272  0.24896512  1
  Mn  Mn112  1  0.49973055  0.33416497  0.00052810  1
  Mn  Mn113  1  0.00077617  0.00107349  0.25037988  1
  Mn  Mn114  1  -0.00033931  0.49946729  0.50052140  1
  Mn  Mn115  1  0.74949102  0.33261304  0.37573228  1
  Mn  Mn116  1  0.25052602  0.00081289  0.87482835  1
  Mn  Mn117  1  0.00047249  -0.00095447  0.74970171  1
  Mn  Mn118  1  0.00031742  0.16680632  -0.00066258  1
  Mn  Mn119  1  0.00067185  0.16525652  0.50063352  1
  Mn  Mn120  1  0.00001237  0.83330227  -0.00002814  1
  Mn  Mn121  1  0.25029044  0.16679563  0.37470385  1
  Mn  Mn122  1  0.00008850  0.49865974  0.75088882  1
  Mn  Mn123  1  -0.00023805  0.33203064  0.49969958  1
  Mn  Mn124  1  0.74965136  0.83334136  0.12364789  1
  Mn  Mn125  1  0.74959457  0.83334761  0.37461956  1
  Mn  Mn126  1  0.50026768  0.83396247  0.24935914  1
  Mn  Mn127  1  0.00031311  0.66665818  0.74990810  1
  Mn  Mn128  1  0.25009606  0.83220769  0.62493754  1
  Mn  Mn129  1  0.74867513  0.66574471  0.12415634  1
  Mn  Mn130  1  0.74962685  0.33349056  0.87494870  1
  Mn  Mn131  1  -0.00017265  0.66746668  0.25056160  1
  Mn  Mn132  1  0.50021004  0.16582928  0.50116228  1
  Mn  Mn133  1  0.00061158  0.66772675  0.50093648  1
  Mn  Mn134  1  0.25029474  0.83324139  0.37426710  1
  Mn  Mn135  1  0.25044342  0.33276133  0.87617316  1
  Mn  Mn136  1  0.74974392  0.00029299  0.12414737  1
  Mn  Mn137  1  0.75044538  0.00082805  0.37497884  1
  Mn  Mn138  1  0.74991422  0.50034670  0.62537960  1
  Mn  Mn139  1  0.25009849  0.49996937  0.37540306  1
  Mn  Mn140  1  0.00025386  0.83419387  0.24917067  1
  Mn  Mn141  1  -0.00048361  0.33264729  0.24997380  1
  Mn  Mn142  1  0.50044372  0.16544171  0.25087693  1
  Mn  Mn143  1  0.49908255  0.50082974  0.50046983  1
  Fe  Fe144  1  0.25005903  0.66607361  0.87657786  1
  Fe  Fe145  1  0.25034566  0.16658533  0.87538343  1
  Fe  Fe146  1  0.25008204  0.16608562  0.62474672  1
  Fe  Fe147  1  0.00021744  0.83313528  0.75037031  1
  Fe  Fe148  1  0.00002093  -0.00043496  0.50010710  1
  Fe  Fe149  1  0.25038391  0.33195682  0.62610899  1
  Fe  Fe150  1  0.49931841  0.66742307  0.75018902  1
  Fe  Fe151  1  0.25049438  0.00024734  0.37452460  1
  Fe  Fe152  1  0.50002527  0.83316221  0.50037317  1
  Fe  Fe153  1  0.24998916  0.00103703  0.12459777  1
  Fe  Fe154  1  0.50012203  0.50066041  0.24936516  1
  Fe  Fe155  1  0.49987012  -0.00061795  0.49996146  1
  Fe  Fe156  1  -0.00043188  0.66670444  -0.00031035  1
  Fe  Fe157  1  0.50054942  0.16673565  0.00013048  1
  Fe  Fe158  1  0.25047329  0.33304878  0.37506031  1
  Fe  Fe159  1  0.50018877  0.83395831  -0.00075865  1
  Fe  Fe160  1  0.50040552  0.00029285  -0.00005915  1
  Fe  Fe161  1  0.25063968  0.16751638  0.12550441  1
  Fe  Fe162  1  0.25034037  0.66700218  0.37435355  1
  Fe  Fe163  1  0.74987674  0.16724015  0.37547068  1
  Fe  Fe164  1  0.50009447  -0.00006022  0.75031385  1
  Fe  Fe165  1  0.50024940  0.66661286  0.49986830  1
  Fe  Fe166  1  0.74973449  0.16678411  0.62552598  1
  Fe  Fe167  1  0.50018581  -0.00045560  0.24973055  1
  Fe  Fe168  1  0.75021200  0.66698281  0.62529428  1
  Fe  Fe169  1  0.74989656  0.00044463  0.87391864  1
  Fe  Fe170  1  -0.00017335  0.16579295  0.75011354  1
  Fe  Fe171  1  0.49924479  0.50117573  0.75006407  1
  Fe  Fe172  1  0.75012011  0.16717886  0.87464292  1
  Fe  Fe173  1  0.49944853  0.50095836  -0.00109194  1
  Fe  Fe174  1  0.74981528  0.83352268  0.62521980  1
  Fe  Fe175  1  0.74919210  0.50000779  0.87439698  1
  Fe  Fe176  1  0.24975420  0.66702116  0.12509449  1
  Fe  Fe177  1  0.24973263  0.49971682  0.87615807  1
  Fe  Fe178  1  0.49996229  0.66681874  -0.00074337  1
  Fe  Fe179  1  0.74965300  0.33311084  0.62579817  1
  Fe  Fe180  1  0.74977326  0.49964468  0.12389872  1
  Fe  Fe181  1  0.00000778  0.83391668  0.49989062  1
  Fe  Fe182  1  -0.00045567  0.33228198  0.74989922  1
  Fe  Fe183  1  0.24961464  0.50111899  0.12601487  1
  Fe  Fe184  1  0.75001159  0.33329649  0.12453728  1
  Fe  Fe185  1  0.74955094  0.66659314  0.87403111  1
  Fe  Fe186  1  0.00020595  0.16667227  0.24929706  1
  Fe  Fe187  1  0.74967178  0.83314137  0.87371555  1
  Fe  Fe188  1  0.00024519  0.00027102  -0.00062471  1
  Fe  Fe189  1  -0.00002529  0.33280749  -0.00032193  1
  Fe  Fe190  1  0.49998821  0.33411795  0.75130631  1
  Fe  Fe191  1  0.24994251  0.83391981  0.12531316  1
  P  P192  1  0.04269048  0.25106315  0.10231355  1
  P  P193  1  0.04269045  0.24782465  0.35215533  1
  P  P194  1  0.04234630  0.24932751  0.60431642  1
  P  P195  1  0.04140447  0.24944361  0.85165890  1
  P  P196  1  0.04203205  0.58482767  0.10205697  1
  P  P197  1  0.04307105  0.58336147  0.35338792  1
  P  P198  1  0.04315898  0.58300078  0.60369079  1
  P  P199  1  0.04221935  0.58305142  0.85392380  1
  P  P200  1  0.04272895  0.91874751  0.10196636  1
  P  P201  1  0.04322654  0.91659822  0.35371269  1
  P  P202  1  0.04193091  0.91646814  0.60189846  1
  P  P203  1  0.04266077  0.91519633  0.85280770  1
  P  P204  1  0.54225659  0.24898862  0.10244616  1
  P  P205  1  0.54285711  0.24992235  0.35353331  1
  P  P206  1  0.54189823  0.25054082  0.60456637  1
  P  P207  1  0.54188436  0.25132404  0.85335215  1
  P  P208  1  0.54101363  0.58313587  0.10078552  1
  P  P209  1  0.54223695  0.58276275  0.35215804  1
  P  P210  1  0.54170231  0.58500710  0.60346322  1
  P  P211  1  0.54034613  0.58430794  0.85187606  1
  P  P212  1  0.54187900  0.91694871  0.10099616  1
  P  P213  1  0.54205382  0.91779414  0.35310266  1
  P  P214  1  0.54148478  0.91679815  0.60192656  1
  P  P215  1  0.54202494  0.91820681  0.85302039  1
  P  P216  1  0.45861996  0.08171243  0.14677389  1
  P  P217  1  0.45785498  0.08160861  0.39771828  1
  P  P218  1  0.45794323  0.08128924  0.64770772  1
  P  P219  1  0.45882434  0.08346037  0.89859025  1
  P  P220  1  0.45807077  0.41874368  0.14692355  1
  P  P221  1  0.45705629  0.41751179  0.39659705  1
  P  P222  1  0.45817906  0.41691127  0.64947540  1
  P  P223  1  0.45751616  0.41845014  0.89694274  1
  P  P224  1  0.45763362  0.75048536  0.14552924  1
  P  P225  1  0.45887103  0.74998632  0.39834232  1
  P  P226  1  0.45795079  0.74908042  0.64700633  1
  P  P227  1  0.45876944  0.75016949  0.89816341  1
  P  P228  1  0.95799568  0.08474789  0.14675667  1
  P  P229  1  0.95770278  0.08194503  0.39751827  1
  P  P230  1  0.95777579  0.08340736  0.64752694  1
  P  P231  1  0.95817360  0.08205176  0.89665450  1
  P  P232  1  0.95733069  0.41632033  0.14588415  1
  P  P233  1  0.95679777  0.41597883  0.39681938  1
  P  P234  1  0.95738977  0.41501032  0.64800386  1
  P  P235  1  0.95759618  0.41412502  0.89701083  1
  P  P236  1  0.95716694  0.75023843  0.14597361  1
  P  P237  1  0.95758310  0.75160399  0.39787135  1
  P  P238  1  0.95791383  0.75202042  0.64747849  1
  P  P239  1  0.95762396  0.74893969  0.89702099  1
  P  P240  1  0.20902501  0.08384764  0.22666575  1
  P  P241  1  0.20820553  0.08225321  0.47734074  1
  P  P242  1  0.20810474  0.08472216  0.72773702  1
  P  P243  1  0.20848609  0.08474261  0.97838624  1
  P  P244  1  0.20782623  0.41818803  0.22794199  1
  P  P245  1  0.20813562  0.41401640  0.47805703  1
  P  P246  1  0.20850918  0.41482675  0.72853686  1
  P  P247  1  0.20787503  0.41808643  0.97848188  1
  P  P248  1  0.20885477  0.75026022  0.22673790  1
  P  P249  1  0.20811709  0.74825626  0.47714319  1
  P  P250  1  0.20753598  0.74871196  0.72928134  1
  P  P251  1  0.20849927  0.74877379  0.97899279  1
  P  P252  1  0.70690368  0.08374075  0.22822090  1
  P  P253  1  0.70789721  0.08530261  0.47817433  1
  P  P254  1  0.70796431  0.08461504  0.72831818  1
  P  P255  1  0.70854799  0.08392240  0.97565776  1
  P  P256  1  0.70816160  0.41626070  0.22603657  1
  P  P257  1  0.70681559  0.41643175  0.47910623  1
  P  P258  1  0.70771274  0.41587874  0.72802424  1
  P  P259  1  0.70738799  0.41826847  0.97750878  1
  P  P260  1  0.70601943  0.75000370  0.22699746  1
  P  P261  1  0.70756529  0.75007730  0.47906083  1
  P  P262  1  0.70854164  0.75026540  0.72702821  1
  P  P263  1  0.70822352  0.74978892  0.97516777  1
  P  P264  1  0.29256760  0.24895961  0.02268529  1
  P  P265  1  0.29276247  0.25147377  0.27216515  1
  P  P266  1  0.29195147  0.24950586  0.52356601  1
  P  P267  1  0.29250178  0.24845441  0.77258738  1
  P  P268  1  0.29106307  0.58347016  0.02345886  1
  P  P269  1  0.29195724  0.58507170  0.27189235  1
  P  P270  1  0.29335179  0.58244961  0.52193498  1
  P  P271  1  0.29150382  0.58260552  0.77481728  1
  P  P272  1  0.29143005  0.91710439  0.02367061  1
  P  P273  1  0.29208519  0.91856347  0.27134394  1
  P  P274  1  0.29268967  0.91624410  0.52129637  1
  P  P275  1  0.29342097  0.91644572  0.77230766  1
  P  P276  1  0.79184247  0.25104774  0.02181202  1
  P  P277  1  0.79217883  0.24916075  0.27244541  1
  P  P278  1  0.79133113  0.24980959  0.52382420  1
  P  P279  1  0.79173311  0.24892296  0.77184249  1
  P  P280  1  0.79119761  0.58197637  0.02088718  1
  P  P281  1  0.79215031  0.58251050  0.27095705  1
  P  P282  1  0.79259381  0.58469214  0.52300719  1
  P  P283  1  0.79095823  0.58351469  0.77279611  1
  P  P284  1  0.79207221  0.91693891  0.01961145  1
  P  P285  1  0.79300152  0.91680039  0.27144418  1
  P  P286  1  0.79189004  0.91602567  0.52289606  1
  P  P287  1  0.79090307  0.91663097  0.77264309  1
  O  O288  1  0.03742138  0.25000637  0.18221290  1
  O  O289  1  0.03786406  0.24777822  0.43215232  1
  O  O290  1  0.03673887  0.24937975  0.68419213  1
  O  O291  1  0.03646045  0.25011916  0.93166723  1
  O  O292  1  0.03717358  0.58464166  0.18205753  1
  O  O293  1  0.03814548  0.58333984  0.43339624  1
  O  O294  1  0.03806421  0.58287608  0.68370140  1
  O  O295  1  0.03671255  0.58355311  0.93383888  1
  O  O296  1  0.03782870  0.91862687  0.18193029  1
  O  O297  1  0.03797331  0.91642202  0.43365912  1
  O  O298  1  0.03704866  0.91590649  0.68191925  1
  O  O299  1  0.03738042  0.91605667  0.93269409  1
  O  O300  1  0.53732954  0.24890256  0.18240658  1
  O  O301  1  0.53766537  0.24998571  0.43351534  1
  O  O302  1  0.53635034  0.25090570  0.68451309  1
  O  O303  1  0.53658805  0.25077870  0.93329987  1
  O  O304  1  0.53654611  0.58297989  0.18077859  1
  O  O305  1  0.53706312  0.58334473  0.43209358  1
  O  O306  1  0.53613578  0.58498468  0.68331742  1
  O  O307  1  0.53565315  0.58389027  0.93178189  1
  O  O308  1  0.53724964  0.91668553  0.18099157  1
  O  O309  1  0.53653030  0.91731345  0.43295391  1
  O  O310  1  0.53674780  0.91677872  0.68191194  1
  O  O311  1  0.53685794  0.91807990  0.93288329  1
  O  O312  1  0.46428051  0.08243080  0.06690993  1
  O  O313  1  0.46311589  0.08165432  0.31776568  1
  O  O314  1  0.46337430  0.08119349  0.56780568  1
  O  O315  1  0.46330333  0.08341076  0.81859745  1
  O  O316  1  0.46323447  0.41885134  0.06694716  1
  O  O317  1  0.46241262  0.41775855  0.31665931  1
  O  O318  1  0.46266888  0.41725922  0.56944780  1
  O  O319  1  0.46308468  0.41790623  0.81709804  1
  O  O320  1  0.46276481  0.75055381  0.06566372  1
  O  O321  1  0.46376181  0.75044929  0.31835940  1
  O  O322  1  0.46330948  0.74908586  0.56716448  1
  O  O323  1  0.46314853  0.74986902  0.81813463  1
  O  O324  1  0.96311231  0.08423679  0.06679421  1
  O  O325  1  0.96272224  0.08296851  0.31757322  1
  O  O326  1  0.96294737  0.08252482  0.56760944  1
  O  O327  1  0.96351752  0.08262177  0.81676486  1
  O  O328  1  0.96282096  0.41580302  0.06594115  1
  O  O329  1  0.96193619  0.41615904  0.31681317  1
  O  O330  1  0.96209483  0.41533123  0.56800247  1
  O  O331  1  0.96299262  0.41373873  0.81707242  1
  O  O332  1  0.96238412  0.74952977  0.06598582  1
  O  O333  1  0.96236833  0.75138080  0.31783784  1
  O  O334  1  0.96316761  0.75236959  0.56752466  1
  O  O335  1  0.96297558  0.74965130  0.81711315  1
  O  O336  1  0.21404255  0.08448555  0.05824621  1
  O  O337  1  0.21412649  0.08340466  0.30662212  1
  O  O338  1  0.21331935  0.08285902  0.55726663  1
  O  O339  1  0.21326258  0.08504990  0.80769028  1
  O  O340  1  0.21298965  0.41856594  0.05838752  1
  O  O341  1  0.21321678  0.41725648  0.30781988  1
  O  O342  1  0.21366769  0.41348295  0.55802475  1
  O  O343  1  0.21343976  0.41568765  0.80850476  1
  O  O344  1  0.21377224  0.74919122  0.05888810  1
  O  O345  1  0.21392858  0.75003273  0.30668903  1
  O  O346  1  0.21304326  0.74834203  0.55713857  1
  O  O347  1  0.21286755  0.74851216  0.80924198  1
  O  O348  1  0.71329555  0.08367793  0.05566670  1
  O  O349  1  0.71197048  0.08408561  0.30818777  1
  O  O350  1  0.71315456  0.08531345  0.55814965  1
  O  O351  1  0.71367644  0.08424174  0.80814817  1
  O  O352  1  0.71283222  0.41829131  0.05735122  1
  O  O353  1  0.71298498  0.41627708  0.30606369  1
  O  O354  1  0.71202333  0.41613741  0.55905248  1
  O  O355  1  0.71315808  0.41654700  0.80794263  1
  O  O356  1  0.71237259  0.74985149  0.05516586  1
  O  O357  1  0.71114434  0.74999245  0.30698452  1
  O  O358  1  0.71305323  0.75015037  0.55898766  1
  O  O359  1  0.71362630  0.75017732  0.80695252  1
  O  O360  1  0.28749010  0.25099935  0.19223632  1
  O  O361  1  0.28708197  0.25018331  0.44357126  1
  O  O362  1  0.28701146  0.24874764  0.69271149  1
  O  O363  1  0.28725663  0.24867185  0.94275398  1
  O  O364  1  0.28616789  0.58497339  0.19204154  1
  O  O365  1  0.28825962  0.58295819  0.44204140  1
  O  O366  1  0.28720722  0.58213633  0.69479890  1
  O  O367  1  0.28559360  0.58320771  0.94358711  1
  O  O368  1  0.28627326  0.91856244  0.19149890  1
  O  O369  1  0.28742542  0.91664035  0.44134881  1
  O  O370  1  0.28840276  0.91628719  0.69234707  1
  O  O371  1  0.28692143  0.91667539  0.94367717  1
  O  O372  1  0.78711934  0.24995142  0.19251059  1
  O  O373  1  0.78620800  0.24939187  0.44381936  1
  O  O374  1  0.78629285  0.24926673  0.69200144  1
  O  O375  1  0.78661341  0.25040085  0.94189798  1
  O  O376  1  0.78676785  0.58197826  0.19096879  1
  O  O377  1  0.78776739  0.58431257  0.44299979  1
  O  O378  1  0.78602314  0.58419419  0.69282145  1
  O  O379  1  0.78602229  0.58217547  0.94097504  1
  O  O380  1  0.78792300  0.91687139  0.19141562  1
  O  O381  1  0.78712294  0.91643861  0.44294148  1
  O  O382  1  0.78591414  0.91605745  0.69270104  1
  O  O383  1  0.78652254  0.91709425  0.93971538  1
  O  O384  1  0.22831569  0.24923822  0.05840449  1
  O  O385  1  0.22850172  0.25149734  0.30795776  1
  O  O386  1  0.22777839  0.24927577  0.55963160  1
  O  O387  1  0.22836567  0.24823706  0.80887199  1
  O  O388  1  0.22710145  0.58360865  0.06010272  1
  O  O389  1  0.22795935  0.58509963  0.30838184  1
  O  O390  1  0.22898222  0.58167390  0.55722116  1
  O  O391  1  0.22719992  0.58323543  0.81026542  1
  O  O392  1  0.22721392  0.91784596  0.05925267  1
  O  O393  1  0.22812884  0.91836982  0.30795607  1
  O  O394  1  0.22841784  0.91630600  0.55686753  1
  O  O395  1  0.22896223  0.91641992  0.80724947  1
  O  O396  1  0.72764246  0.25168752  0.05771035  1
  O  O397  1  0.72782951  0.24845159  0.30815734  1
  O  O398  1  0.72721984  0.25006773  0.56003092  1
  O  O399  1  0.72761549  0.24883338  0.80800862  1
  O  O400  1  0.72697389  0.58149114  0.05682069  1
  O  O401  1  0.72779765  0.58289204  0.30637966  1
  O  O402  1  0.72816590  0.58472750  0.55824771  1
  O  O403  1  0.72675047  0.58337870  0.80867187  1
  O  O404  1  0.72784799  0.91699231  0.05550692  1
  O  O405  1  0.72853476  0.91732350  0.30644112  1
  O  O406  1  0.72750409  0.91588176  0.55822673  1
  O  O407  1  0.72681917  0.91755350  0.80859622  1
  O  O408  1  0.27315765  0.08359175  0.19060827  1
  O  O409  1  0.27243286  0.08213493  0.44147625  1
  O  O410  1  0.27238902  0.08468921  0.69204422  1
  O  O411  1  0.27266272  0.08527238  0.94221029  1
  O  O412  1  0.27202482  0.41872877  0.19195955  1
  O  O413  1  0.27230975  0.41467574  0.44205446  1
  O  O414  1  0.27283500  0.41406506  0.69292150  1
  O  O415  1  0.27216681  0.41768904  0.94292573  1
  O  O416  1  0.27290635  0.74976094  0.19066955  1
  O  O417  1  0.27248356  0.74838215  0.44165880  1
  O  O418  1  0.27191604  0.74895232  0.69394983  1
  O  O419  1  0.27264591  0.74826777  0.94287825  1
  O  O420  1  0.77132410  0.08367372  0.19300866  1
  O  O421  1  0.77211478  0.08558670  0.44221738  1
  O  O422  1  0.77199212  0.08465314  0.69195127  1
  O  O423  1  0.77278490  0.08368403  0.93996730  1
  O  O424  1  0.77234737  0.41610295  0.19006774  1
  O  O425  1  0.77116465  0.41636678  0.44374289  1
  O  O426  1  0.77185311  0.41560456  0.69204717  1
  O  O427  1  0.77153995  0.41839297  0.94140644  1
  O  O428  1  0.77051702  0.74951519  0.19205258  1
  O  O429  1  0.77172493  0.74997972  0.44312590  1
  O  O430  1  0.77260940  0.75066015  0.69076791  1
  O  O431  1  0.77254887  0.74925115  0.93992688  1
  O  O432  1  0.02236425  0.08522272  0.18234997  1
  O  O433  1  0.02208596  0.08090184  0.43299220  1
  O  O434  1  0.02204700  0.08397451  0.68319819  1
  O  O435  1  0.02237051  0.08198616  0.93254660  1
  O  O436  1  0.02155474  0.41620639  0.18154788  1
  O  O437  1  0.02130175  0.41594315  0.43175642  1
  O  O438  1  0.02185359  0.41470384  0.68308239  1
  O  O439  1  0.02182196  0.41441987  0.93281505  1
  O  O440  1  0.02160347  0.75043214  0.18112112  1
  O  O441  1  0.02206641  0.75189700  0.43301531  1
  O  O442  1  0.02221692  0.75175820  0.68311412  1
  O  O443  1  0.02183103  0.74851507  0.93290424  1
  O  O444  1  0.52263772  0.08126036  0.18321219  1
  O  O445  1  0.52207869  0.08160383  0.43358421  1
  O  O446  1  0.52212079  0.08174171  0.68364925  1
  O  O447  1  0.52312284  0.08280115  0.93411335  1
  O  O448  1  0.52231941  0.41878133  0.18270077  1
  O  O449  1  0.52130581  0.41748657  0.43215927  1
  O  O450  1  0.52243526  0.41681439  0.68496298  1
  O  O451  1  0.52163128  0.41856662  0.93310372  1
  O  O452  1  0.52184236  0.75025668  0.18122597  1
  O  O453  1  0.52291383  0.74949992  0.43445907  1
  O  O454  1  0.52207593  0.74880472  0.68321188  1
  O  O455  1  0.52305987  0.75000603  0.93351718  1
  O  O456  1  0.47792674  0.24919441  0.06711795  1
  O  O457  1  0.47853102  0.24998831  0.31825038  1
  O  O458  1  0.47772597  0.24985705  0.56883186  1
  O  O459  1  0.47772649  0.25164525  0.81742798  1
  O  O460  1  0.47671196  0.58337617  0.06521871  1
  O  O461  1  0.47793933  0.58203649  0.31633801  1
  O  O462  1  0.47761562  0.58556058  0.56712321  1
  O  O463  1  0.47620162  0.58505169  0.81592606  1
  O  O464  1  0.47758339  0.91751809  0.06540753  1
  O  O465  1  0.47799305  0.91814867  0.31662960  1
  O  O466  1  0.47736017  0.91686243  0.56598688  1
  O  O467  1  0.47782985  0.91826428  0.81707643  1
  O  O468  1  0.97838625  0.25132036  0.06655919  1
  O  O469  1  0.97817358  0.24767078  0.31706974  1
  O  O470  1  0.97816582  0.24890681  0.56848006  1
  O  O471  1  0.97723899  0.24898409  0.81571660  1
  O  O472  1  0.97767994  0.58476915  0.06664675  1
  O  O473  1  0.97852611  0.58336285  0.31853426  1
  O  O474  1  0.97865972  0.58359260  0.56885373  1
  O  O475  1  0.97801117  0.58285790  0.81833810  1
  O  O476  1  0.97836599  0.91859213  0.06657436  1
  O  O477  1  0.97891728  0.91706109  0.31818321  1
  O  O478  1  0.97769680  0.91693308  0.56598422  1
  O  O479  1  0.97836768  0.91480746  0.81709745  1
  O  O480  1  0.07331310  0.31486195  0.07424474  1
  O  O481  1  0.07349999  0.31163161  0.32438725  1
  O  O482  1  0.07334353  0.31271413  0.57563130  1
  O  O483  1  0.07224730  0.31296756  0.82313270  1
  O  O484  1  0.07260731  0.64840744  0.07348660  1
  O  O485  1  0.07387818  0.64700809  0.32522464  1
  O  O486  1  0.07444073  0.64643842  0.57574100  1
  O  O487  1  0.07366868  0.64612910  0.82553508  1
  O  O488  1  0.07311229  0.98241476  0.07334114  1
  O  O489  1  0.07462131  0.97988700  0.32533177  1
  O  O490  1  0.07258262  0.98045809  0.57408248  1
  O  O491  1  0.07389138  0.97857566  0.82444174  1
  O  O492  1  0.57336986  0.31267888  0.07488231  1
  O  O493  1  0.57394263  0.31336294  0.32525562  1
  O  O494  1  0.57289308  0.31394188  0.57618949  1
  O  O495  1  0.57265886  0.31505315  0.82524135  1
  O  O496  1  0.57143843  0.64708471  0.07226479  1
  O  O497  1  0.57300585  0.64639829  0.32382060  1
  O  O498  1  0.57296366  0.64805944  0.57442563  1
  O  O499  1  0.57189625  0.64756844  0.82362330  1
  O  O500  1  0.57341715  0.98014156  0.07281994  1
  O  O501  1  0.57303023  0.98118134  0.32441511  1
  O  O502  1  0.57274665  0.98015226  0.57369205  1
  O  O503  1  0.57282456  0.98159617  0.82404853  1
  O  O504  1  0.42768425  0.01819268  0.17518637  1
  O  O505  1  0.42688778  0.01831733  0.42634860  1
  O  O506  1  0.42725042  0.01785391  0.67649385  1
  O  O507  1  0.42717016  0.02042311  0.92698351  1
  O  O508  1  0.42721713  0.35476286  0.17442103  1
  O  O509  1  0.42614198  0.35382023  0.42477303  1
  O  O510  1  0.42730824  0.35331227  0.67760186  1
  O  O511  1  0.42621232  0.35508642  0.92534025  1
  O  O512  1  0.42637849  0.68714334  0.17404554  1
  O  O513  1  0.42777782  0.68631281  0.42597547  1
  O  O514  1  0.42665226  0.68601944  0.67610199  1
  O  O515  1  0.42761306  0.68691711  0.92692672  1
  O  O516  1  0.92689887  0.02133511  0.17503032  1
  O  O517  1  0.92674388  0.01844841  0.42587169  1
  O  O518  1  0.92670734  0.01991495  0.67579648  1
  O  O519  1  0.92773160  0.01821858  0.92491426  1
  O  O520  1  0.92587079  0.35322771  0.17438434  1
  O  O521  1  0.92599617  0.35220724  0.42469774  1
  O  O522  1  0.92662291  0.35149897  0.67649927  1
  O  O523  1  0.92672269  0.35087091  0.92590844  1
  O  O524  1  0.92584251  0.68720549  0.17481952  1
  O  O525  1  0.92680676  0.68785468  0.42590173  1
  O  O526  1  0.92687015  0.68812544  0.67491357  1
  O  O527  1  0.92679074  0.68527598  0.92518391  1
  O  O528  1  0.17748614  0.02083088  0.19807018  1
  O  O529  1  0.17768032  0.01858678  0.44890736  1
  O  O530  1  0.17719298  0.02072347  0.70040610  1
  O  O531  1  0.17770480  0.02100457  0.95008300  1
  O  O532  1  0.17671473  0.35482535  0.19951496  1
  O  O533  1  0.17751936  0.35064415  0.44903166  1
  O  O534  1  0.17754040  0.35130404  0.70033113  1
  O  O535  1  0.17684665  0.35427203  0.95090571  1
  O  O536  1  0.17704573  0.68732769  0.19844296  1
  O  O537  1  0.17754472  0.68466287  0.44866655  1
  O  O538  1  0.17637625  0.68539698  0.70098254  1
  O  O539  1  0.17739042  0.68544751  0.95042521  1
  O  O540  1  0.67607651  0.02016206  0.19985198  1
  O  O541  1  0.67723538  0.02127894  0.45063773  1
  O  O542  1  0.67671094  0.02106762  0.70024484  1
  O  O543  1  0.67751118  0.02050538  0.94733417  1
  O  O544  1  0.67751665  0.35241208  0.19799951  1
  O  O545  1  0.67548136  0.35330347  0.45051891  1
  O  O546  1  0.67705133  0.35212633  0.70004882  1
  O  O547  1  0.67625922  0.35454154  0.94981440  1
  O  O548  1  0.67470684  0.68671344  0.19877662  1
  O  O549  1  0.67629268  0.68674750  0.45066183  1
  O  O550  1  0.67798875  0.68641347  0.69870410  1
  O  O551  1  0.67707909  0.68632093  0.94699910  1
  O  O552  1  0.32367708  0.31287829  0.04981190  1
  O  O553  1  0.32331027  0.31515183  0.30056419  1
  O  O554  1  0.32299751  0.31271507  0.55253955  1
  O  O555  1  0.32360207  0.31195242  0.80092381  1
  O  O556  1  0.32221113  0.64707024  0.05138679  1
  O  O557  1  0.32293280  0.64859364  0.30034041  1
  O  O558  1  0.32415044  0.64575581  0.55079242  1
  O  O559  1  0.32255530  0.64617626  0.80288457  1
  O  O560  1  0.32284295  0.98051917  0.05132733  1
  O  O561  1  0.32289868  0.98191601  0.30022449  1
  O  O562  1  0.32409613  0.97935832  0.54974451  1
  O  O563  1  0.32415471  0.98011806  0.80042495  1
  O  O564  1  0.82254770  0.31466912  0.05012966  1
  O  O565  1  0.82303203  0.31265826  0.30093535  1
  O  O566  1  0.82194025  0.31375719  0.55176313  1
  O  O567  1  0.82297895  0.31233016  0.80006268  1
  O  O568  1  0.82199701  0.64574912  0.04903180  1
  O  O569  1  0.82322235  0.64620650  0.29871714  1
  O  O570  1  0.82318067  0.64823734  0.55162530  1
  O  O571  1  0.82196142  0.64694689  0.80131513  1
  O  O572  1  0.82336555  0.98022483  0.04807647  1
  O  O573  1  0.82430592  0.98006209  0.29970522  1
  O  O574  1  0.82280528  0.97971771  0.55083685  1
  O  O575  1  0.82248054  0.98005821  0.80029342  1
  O  O576  1  0.42740593  0.14519296  0.17504596  1
  O  O577  1  0.42692435  0.14547416  0.42549501  1
  O  O578  1  0.42664902  0.14493433  0.67533832  1
  O  O579  1  0.42909559  0.14779063  0.92713843  1
  O  O580  1  0.42710157  0.48200851  0.17565193  1
  O  O581  1  0.42569098  0.48066486  0.42508998  1
  O  O582  1  0.42770205  0.48086787  0.67776405  1
  O  O583  1  0.42657277  0.48200716  0.92529595  1
  O  O584  1  0.42657189  0.81383004  0.17423949  1
  O  O585  1  0.42852243  0.81390164  0.42677027  1
  O  O586  1  0.42704186  0.81283435  0.67512172  1
  O  O587  1  0.42849830  0.81428241  0.92636004  1
  O  O588  1  0.92740891  0.14849646  0.17515553  1
  O  O589  1  0.92692107  0.14546075  0.42608674  1
  O  O590  1  0.92688053  0.14694415  0.67580957  1
  O  O591  1  0.92675415  0.14537357  0.92471014  1
  O  O592  1  0.92652720  0.48021305  0.17344289  1
  O  O593  1  0.92571449  0.47932960  0.42518899  1
  O  O594  1  0.92646726  0.47869327  0.67605520  1
  O  O595  1  0.92648090  0.47805210  0.92417777  1
  O  O596  1  0.92637756  0.81420839  0.17347467  1
  O  O597  1  0.92677843  0.81507444  0.42639053  1
  O  O598  1  0.92715794  0.81527478  0.67662921  1
  O  O599  1  0.92650978  0.81243187  0.92509789  1
  O  O600  1  0.07394874  0.18785034  0.07366314  1
  O  O601  1  0.07336028  0.18437403  0.32336294  1
  O  O602  1  0.07389025  0.18606063  0.57609488  1
  O  O603  1  0.07218202  0.18547573  0.82401365  1
  O  O604  1  0.07309606  0.52111506  0.07442282  1
  O  O605  1  0.07404195  0.51993526  0.32500411  1
  O  O606  1  0.07381321  0.51926727  0.57564308  1
  O  O607  1  0.07325581  0.51921448  0.82638918  1
  O  O608  1  0.07386810  0.85508391  0.07440221  1
  O  O609  1  0.07417688  0.85323404  0.32484145  1
  O  O610  1  0.07280237  0.85300325  0.57332387  1
  O  O611  1  0.07337929  0.85147404  0.82468847  1
  O  O612  1  0.57283783  0.18542938  0.07365189  1
  O  O613  1  0.57386855  0.18635433  0.32568825  1
  O  O614  1  0.57331083  0.18699096  0.57692574  1
  O  O615  1  0.57302816  0.18784217  0.82530338  1
  O  O616  1  0.57206057  0.51983600  0.07215082  1
  O  O617  1  0.57315872  0.51924914  0.32370715  1
  O  O618  1  0.57253925  0.52109336  0.57569240  1
  O  O619  1  0.57059268  0.52041158  0.82296110  1
  O  O620  1  0.57185874  0.85291123  0.07207301  1
  O  O621  1  0.57316330  0.85418969  0.32492284  1
  O  O622  1  0.57173728  0.85274736  0.57351366  1
  O  O623  1  0.57309559  0.85458508  0.82487329  1
  O  O624  1  0.32347666  0.18575274  0.05173178  1
  O  O625  1  0.32406038  0.18800927  0.30024615  1
  O  O626  1  0.32251206  0.18536776  0.55122455  1
  O  O627  1  0.32361898  0.18508968  0.80115532  1
  O  O628  1  0.32195928  0.51987392  0.05200616  1
  O  O629  1  0.32328105  0.52157927  0.29981221  1
  O  O630  1  0.32458584  0.51889612  0.55003906  1
  O  O631  1  0.32172140  0.51868205  0.80339073  1
  O  O632  1  0.32144874  0.85299919  0.05221463  1
  O  O633  1  0.32357465  0.85491102  0.29892496  1
  O  O634  1  0.32349757  0.85244085  0.54924301  1
  O  O635  1  0.32463464  0.85315872  0.80069559  1
  O  O636  1  0.82295344  0.18749631  0.04984806  1
  O  O637  1  0.82298013  0.18556433  0.30084435  1
  O  O638  1  0.82234541  0.18626788  0.55209357  1
  O  O639  1  0.82264815  0.18541732  0.80046781  1
  O  O640  1  0.82250357  0.51882354  0.04973104  1
  O  O641  1  0.82327191  0.51927040  0.29966438  1
  O  O642  1  0.82371145  0.52111767  0.55100445  1
  O  O643  1  0.82165182  0.51952241  0.80050823  1
  O  O644  1  0.82316839  0.85337957  0.04780860  1
  O  O645  1  0.82362949  0.85304854  0.29954336  1
  O  O646  1  0.82262054  0.85257870  0.55154561  1
  O  O647  1  0.82116653  0.85270082  0.80131632  1
  O  O648  1  0.17878887  0.14815188  0.19889362  1
  O  O649  1  0.17692976  0.14572757  0.44923286  1
  O  O650  1  0.17712625  0.14780795  0.69856072  1
  O  O651  1  0.17712947  0.14793561  0.94980870  1
  O  O652  1  0.17696979  0.48195913  0.20002701  1
  O  O653  1  0.17672073  0.47773979  0.45079357  1
  O  O654  1  0.17769804  0.47839441  0.69999274  1
  O  O655  1  0.17703606  0.48132084  0.94938301  1
  O  O656  1  0.17875887  0.81461091  0.19867201  1
  O  O657  1  0.17707228  0.81191651  0.44932822  1
  O  O658  1  0.17660231  0.81233835  0.70097938  1
  O  O659  1  0.17748771  0.81246050  0.95090889  1
  O  O660  1  0.67564996  0.14693272  0.19951908  1
  O  O661  1  0.67675762  0.14854105  0.44961910  1
  O  O662  1  0.67684069  0.14796571  0.69981792  1
  O  O663  1  0.67804252  0.14800911  0.94797693  1
  O  O664  1  0.67737700  0.47990725  0.19776279  1
  O  O665  1  0.67606401  0.48022005  0.45097078  1
  O  O666  1  0.67635002  0.47934633  0.70022653  1
  O  O667  1  0.67628631  0.48137856  0.94817360  1
  O  O668  1  0.67540625  0.81369234  0.19869301  1
  O  O669  1  0.67635009  0.81350961  0.45067131  1
  O  O670  1  0.67726545  0.81380241  0.69881274  1
  O  O671  1  0.67804151  0.81376176  0.94658413  1
