# generated using pymatgen
data_Na2MnFe(PO4)2
_symmetry_space_group_name_H-M   'P 1'
_cell_length_a   22.34447470
_cell_length_b   20.09236697
_cell_length_c   19.45072972
_cell_angle_alpha   89.97614882
_cell_angle_beta   89.95166062
_cell_angle_gamma   90.01809046
_symmetry_Int_Tables_number   1
_chemical_formula_structural   Na2MnFe(PO4)2
_chemical_formula_sum   'Na96 Mn48 Fe48 P96 O384'
_cell_volume   8732.46665159
_cell_formula_units_Z   48
loop_
 _symmetry_equiv_pos_site_id
 _symmetry_equiv_pos_as_xyz
  1  'x, y, z'
loop_
 _atom_site_type_symbol
 _atom_site_label
 _atom_site_symmetry_multiplicity
 _atom_site_fract_x
 _atom_site_fract_y
 _atom_site_fract_z
 _atom_site_occupancy
  Na  Na0  1  0.14112335  0.25110954  0.24347882  1
  Na  Na1  1  0.14104450  0.24989450  0.49340481  1
  Na  Na2  1  0.14156703  0.25081211  0.74280838  1
  Na  Na3  1  0.14107490  0.25126187  0.99451259  1
  Na  Na4  1  0.14103503  0.58346928  0.24326393  1
  Na  Na5  1  0.14065656  0.58207459  0.49336645  1
  Na  Na6  1  0.13991208  0.58344070  0.74335332  1
  Na  Na7  1  0.13994707  0.58322317  0.99275588  1
  Na  Na8  1  0.14094489  0.91629484  0.24281028  1
  Na  Na9  1  0.14105382  0.91496453  0.49385756  1
  Na  Na10  1  0.14052535  0.91726474  0.74335282  1
  Na  Na11  1  0.14047565  0.91570899  0.99369965  1
  Na  Na12  1  0.64053646  0.25199060  0.24405477  1
  Na  Na13  1  0.64045741  0.25061983  0.49426837  1
  Na  Na14  1  0.64061913  0.24984754  0.74401677  1
  Na  Na15  1  0.64038598  0.24936892  0.99305615  1
  Na  Na16  1  0.64030294  0.58400075  0.24478496  1
  Na  Na17  1  0.63972849  0.58296888  0.49391260  1
  Na  Na18  1  0.63959306  0.58235791  0.74311761  1
  Na  Na19  1  0.64009860  0.58206345  0.99329211  1
  Na  Na20  1  0.64018232  0.91836755  0.24354447  1
  Na  Na21  1  0.64065053  0.91730916  0.49556902  1
  Na  Na22  1  0.63996560  0.91635339  0.74364677  1
  Na  Na23  1  0.63993109  0.91640105  0.99408179  1
  Na  Na24  1  0.35943498  0.08345447  0.00687288  1
  Na  Na25  1  0.35963213  0.08462066  0.25682566  1
  Na  Na26  1  0.35957063  0.08329030  0.50758384  1
  Na  Na27  1  0.36002589  0.08351230  0.75684710  1
  Na  Na28  1  0.35898095  0.41702820  0.00707736  1
  Na  Na29  1  0.35900117  0.41768622  0.25599110  1
  Na  Na30  1  0.35914417  0.41590284  0.50697304  1
  Na  Na31  1  0.35948346  0.41671409  0.75662256  1
  Na  Na32  1  0.35892559  0.74829038  0.00686533  1
  Na  Na33  1  0.35891935  0.74993942  0.25596638  1
  Na  Na34  1  0.35919350  0.74820680  0.50662236  1
  Na  Na35  1  0.35927901  0.74945423  0.75651573  1
  Na  Na36  1  0.85936115  0.08242336  0.00555715  1
  Na  Na37  1  0.85950826  0.08509229  0.25568083  1
  Na  Na38  1  0.86011139  0.08354850  0.50575925  1
  Na  Na39  1  0.86012338  0.08326733  0.75614953  1
  Na  Na40  1  0.85951670  0.41629343  0.00495747  1
  Na  Na41  1  0.85948275  0.41749858  0.25521446  1
  Na  Na42  1  0.85970758  0.41732109  0.50573093  1
  Na  Na43  1  0.85978108  0.41788672  0.75567838  1
  Na  Na44  1  0.85989750  0.74925847  0.00685076  1
  Na  Na45  1  0.85963777  0.75017148  0.25546701  1
  Na  Na46  1  0.85952666  0.74930616  0.50682457  1
  Na  Na47  1  0.85935449  0.74884685  0.75692498  1
  Na  Na48  1  0.10975895  0.08370563  0.11912150  1
  Na  Na49  1  0.11033758  0.08215659  0.36790100  1
  Na  Na50  1  0.11016575  0.08354619  0.61884995  1
  Na  Na51  1  0.11020124  0.08395288  0.86882052  1
  Na  Na52  1  0.11052301  0.41804078  0.11759754  1
  Na  Na53  1  0.11067378  0.41524932  0.36827151  1
  Na  Na54  1  0.11059163  0.41803708  0.61770197  1
  Na  Na55  1  0.11019631  0.41900386  0.86779899  1
  Na  Na56  1  0.10995623  0.74952988  0.11739051  1
  Na  Na57  1  0.10994314  0.74856932  0.36860108  1
  Na  Na58  1  0.10987329  0.74948809  0.61900015  1
  Na  Na59  1  0.10963273  0.74968208  0.86887778  1
  Na  Na60  1  0.60947962  0.08400230  0.11847186  1
  Na  Na61  1  0.60953757  0.08438315  0.36958717  1
  Na  Na62  1  0.60995516  0.08297070  0.62031463  1
  Na  Na63  1  0.60936280  0.08107999  0.86854060  1
  Na  Na64  1  0.60990477  0.41759811  0.11803222  1
  Na  Na65  1  0.60998391  0.41772915  0.36915022  1
  Na  Na66  1  0.60955322  0.41764747  0.61840078  1
  Na  Na67  1  0.60955629  0.41504152  0.86844949  1
  Na  Na68  1  0.60933974  0.75111767  0.11869080  1
  Na  Na69  1  0.60934006  0.75067966  0.36987069  1
  Na  Na70  1  0.60920832  0.74937393  0.61904878  1
  Na  Na71  1  0.60879241  0.74873053  0.86900867  1
  Na  Na72  1  0.38993476  0.25025993  0.13184964  1
  Na  Na73  1  0.39008106  0.25108298  0.38235454  1
  Na  Na74  1  0.39012816  0.24923431  0.63258845  1
  Na  Na75  1  0.39023543  0.24782426  0.88159379  1
  Na  Na76  1  0.38932750  0.58370555  0.13143555  1
  Na  Na77  1  0.38946081  0.58334162  0.38220799  1
  Na  Na78  1  0.38968360  0.58303627  0.63148032  1
  Na  Na79  1  0.38928949  0.58151186  0.88217234  1
  Na  Na80  1  0.38993361  0.91689866  0.13152805  1
  Na  Na81  1  0.39026183  0.91795811  0.38168061  1
  Na  Na82  1  0.39029876  0.91668888  0.63219966  1
  Na  Na83  1  0.39045988  0.91505222  0.88082276  1
  Na  Na84  1  0.89008601  0.25028766  0.13055665  1
  Na  Na85  1  0.89052009  0.24971705  0.38017813  1
  Na  Na86  1  0.89121309  0.25119706  0.63059914  1
  Na  Na87  1  0.89085057  0.25145534  0.88088787  1
  Na  Na88  1  0.89012616  0.58371517  0.13045673  1
  Na  Na89  1  0.89010072  0.58211003  0.38169818  1
  Na  Na90  1  0.88991349  0.58355041  0.63154101  1
  Na  Na91  1  0.89003876  0.58402090  0.88090048  1
  Na  Na92  1  0.89043512  0.91631402  0.13087459  1
  Na  Na93  1  0.89089379  0.91542264  0.38035069  1
  Na  Na94  1  0.89072941  0.91649166  0.63195814  1
  Na  Na95  1  0.89047860  0.91672893  0.88110811  1
  Mn  Mn96  1  0.24991138  0.00067803  0.12463592  1
  Mn  Mn97  1  0.49924109  0.83463501  0.24975369  1
  Mn  Mn98  1  0.50061878  0.16683750  0.25029703  1
  Mn  Mn99  1  0.75103443  0.16677623  0.62492652  1
  Mn  Mn100  1  0.00040337  0.66691882  0.24959755  1
  Mn  Mn101  1  0.25024065  -0.00032464  0.62532377  1
  Mn  Mn102  1  0.75019787  0.16620572  0.87425808  1
  Mn  Mn103  1  0.00035924  0.83157388  0.50102178  1
  Mn  Mn104  1  0.49975363  0.33227700  0.74961955  1
  Mn  Mn105  1  0.25054022  0.33361826  0.87525061  1
  Mn  Mn106  1  0.24986538  0.66567798  0.62515402  1
  Mn  Mn107  1  0.00003798  0.16675071  0.49964614  1
  Mn  Mn108  1  0.74965607  0.66602730  0.12529372  1
  Mn  Mn109  1  0.75025769  0.83346534  0.62576952  1
  Mn  Mn110  1  0.00042235  0.49994964  0.49992194  1
  Mn  Mn111  1  0.49978808  0.66724861  0.25056777  1
  Mn  Mn112  1  0.00064257  -0.00093175  0.49895469  1
  Mn  Mn113  1  0.00053057  0.49989451  0.24991474  1
  Mn  Mn114  1  0.74996158  0.83398919  0.37608087  1
  Mn  Mn115  1  0.74962393  0.33371737  0.12437394  1
  Mn  Mn116  1  0.00094994  0.16691094  0.74961970  1
  Mn  Mn117  1  0.00020287  0.83298013  0.74999368  1
  Mn  Mn118  1  0.50035130  0.00121490  0.50160437  1
  Mn  Mn119  1  0.74967854  0.66646659  0.37521999  1
  Mn  Mn120  1  0.74904158  0.66520923  0.87587384  1
  Mn  Mn121  1  0.74926669  0.83302172  0.87487390  1
  Mn  Mn122  1  0.00118179  0.33498016  -0.00023609  1
  Mn  Mn123  1  -0.00053405  0.33263366  0.24868394  1
  Mn  Mn124  1  0.75029188  0.33459951  0.62426877  1
  Mn  Mn125  1  0.49934533  0.66556604  0.74982263  1
  Mn  Mn126  1  0.00019994  0.16718010  -0.00077993  1
  Mn  Mn127  1  0.74995531  0.00013247  0.12521790  1
  Mn  Mn128  1  0.49951475  0.49920477  0.00009814  1
  Mn  Mn129  1  -0.00019549  -0.00007527  0.00014879  1
  Mn  Mn130  1  0.25040364  0.00084296  0.87465238  1
  Mn  Mn131  1  0.25017029  0.83269881  0.37438141  1
  Mn  Mn132  1  0.25044636  0.16710357  0.37546896  1
  Mn  Mn133  1  0.74936559  0.16844787  0.37555380  1
  Mn  Mn134  1  0.49983142  0.33414711  0.25119661  1
  Mn  Mn135  1  0.00106873  0.33525332  0.75021028  1
  Mn  Mn136  1  0.50036430  0.33354360  0.50101671  1
  Mn  Mn137  1  0.49959643  0.16580986  0.00053992  1
  Mn  Mn138  1  0.50024251  0.83356098  0.50033685  1
  Mn  Mn139  1  0.49992628  0.50087351  0.24976199  1
  Mn  Mn140  1  0.25014291  0.83236372  0.87500169  1
  Mn  Mn141  1  0.49939610  0.83325882  0.00000360  1
  Mn  Mn142  1  0.75034474  0.00116976  0.37429822  1
  Mn  Mn143  1  0.00015184  -0.00093564  0.24937196  1
  Fe  Fe144  1  0.74967615  0.49937931  0.87412608  1
  Fe  Fe145  1  0.49955408  0.49933953  0.75029764  1
  Fe  Fe146  1  0.25041895  0.33372512  0.37483290  1
  Fe  Fe147  1  0.49933559  0.50061587  0.50029292  1
  Fe  Fe148  1  0.49962688  0.00092700  0.25073478  1
  Fe  Fe149  1  0.49924489  0.66684979  0.50056767  1
  Fe  Fe150  1  -0.00015464  0.66617525  0.49991717  1
  Fe  Fe151  1  0.74978468  0.83328040  0.12507493  1
  Fe  Fe152  1  -0.00010665  0.50147215  0.74898266  1
  Fe  Fe153  1  0.49995525  0.16681068  0.50101574  1
  Fe  Fe154  1  0.00002077  0.66714657  -0.00057568  1
  Fe  Fe155  1  0.50037971  0.16560318  0.75127727  1
  Fe  Fe156  1  0.49960736  0.33237760  -0.00045725  1
  Fe  Fe157  1  0.49940219  0.83232244  0.75031899  1
  Fe  Fe158  1  0.25010128  0.16755834  0.12583094  1
  Fe  Fe159  1  0.00055240  0.16633297  0.24980626  1
  Fe  Fe160  1  0.24963164  0.50000722  0.87516921  1
  Fe  Fe161  1  0.75022093  0.50048820  0.37502474  1
  Fe  Fe162  1  0.25028207  -0.00011237  0.37516641  1
  Fe  Fe163  1  0.24994345  0.49926956  0.37464633  1
  Fe  Fe164  1  0.25003661  0.16753296  0.87540569  1
  Fe  Fe165  1  0.24960872  0.66593194  0.12530915  1
  Fe  Fe166  1  0.00069390  0.33327405  0.49927305  1
  Fe  Fe167  1  0.49933776  0.66608007  -0.00048595  1
  Fe  Fe168  1  0.24963225  0.50065030  0.12535873  1
  Fe  Fe169  1  0.00025546  0.83232248  0.24985219  1
  Fe  Fe170  1  0.49971413  -0.00077265  -0.00052733  1
  Fe  Fe171  1  0.75056277  0.33475603  0.37427234  1
  Fe  Fe172  1  0.75025261  0.33327010  0.87467695  1
  Fe  Fe173  1  0.25036246  0.83247256  0.62473416  1
  Fe  Fe174  1  0.24949239  0.66586407  0.87559581  1
  Fe  Fe175  1  0.74939910  0.49993446  0.62487374  1
  Fe  Fe176  1  -0.00058043  0.66705690  0.75049650  1
  Fe  Fe177  1  0.00034855  0.83350134  -0.00059197  1
  Fe  Fe178  1  0.74976683  0.49959938  0.12477167  1
  Fe  Fe179  1  0.24964217  0.66589724  0.37473633  1
  Fe  Fe180  1  -0.00045281  0.50145796  -0.00119260  1
  Fe  Fe181  1  0.24999487  0.83310734  0.12488119  1
  Fe  Fe182  1  0.25002727  0.33426047  0.12493542  1
  Fe  Fe183  1  0.25005271  0.16650865  0.62484931  1
  Fe  Fe184  1  0.49981476  -0.00079196  0.75033981  1
  Fe  Fe185  1  0.75006465  -0.00069106  0.87569140  1
  Fe  Fe186  1  0.25030988  0.49933134  0.62458418  1
  Fe  Fe187  1  0.00032466  -0.00007747  0.74997757  1
  Fe  Fe188  1  0.75011647  0.16715189  0.12430465  1
  Fe  Fe189  1  0.74949476  0.66595042  0.62544120  1
  Fe  Fe190  1  0.75049314  0.00026938  0.62518697  1
  Fe  Fe191  1  0.25009586  0.33344842  0.62493733  1
  P  P192  1  0.04295733  0.25001381  0.10311188  1
  P  P193  1  0.04267593  0.24890192  0.35210870  1
  P  P194  1  0.04289281  0.25173855  0.60198141  1
  P  P195  1  0.04387092  0.25111181  0.85268775  1
  P  P196  1  0.04134464  0.58382713  0.10076360  1
  P  P197  1  0.04310034  0.58328157  0.35331545  1
  P  P198  1  0.04207421  0.58494817  0.60298489  1
  P  P199  1  0.04103237  0.58400730  0.85182183  1
  P  P200  1  0.04239660  0.91499944  0.10246752  1
  P  P201  1  0.04293304  0.91420245  0.35195246  1
  P  P202  1  0.04320100  0.91650589  0.60355787  1
  P  P203  1  0.04244510  0.91744767  0.85253152  1
  P  P204  1  0.54229796  0.25124511  0.10243302  1
  P  P205  1  0.54299270  0.25027936  0.35430314  1
  P  P206  1  0.54222232  0.24821388  0.60368273  1
  P  P207  1  0.54224054  0.24818165  0.85304315  1
  P  P208  1  0.54210981  0.58472226  0.10203734  1
  P  P209  1  0.54215441  0.58369319  0.35447423  1
  P  P210  1  0.54080024  0.58327966  0.60208940  1
  P  P211  1  0.54150874  0.58134123  0.85272047  1
  P  P212  1  0.54166423  0.91847408  0.10277788  1
  P  P213  1  0.54231496  0.91859779  0.35273108  1
  P  P214  1  0.54245721  0.91662319  0.60477391  1
  P  P215  1  0.54120741  0.91557047  0.85188709  1
  P  P216  1  0.45758876  0.08227694  0.14766084  1
  P  P217  1  0.45749478  0.08493529  0.39832717  1
  P  P218  1  0.45864330  0.08354784  0.64916029  1
  P  P219  1  0.45773445  0.08106967  0.89708545  1
  P  P220  1  0.45723673  0.41651843  0.14662017  1
  P  P221  1  0.45755654  0.41807657  0.39847155  1
  P  P222  1  0.45779072  0.41791571  0.64736449  1
  P  P223  1  0.45721788  0.41437952  0.89728880  1
  P  P224  1  0.45686140  0.75008124  0.14653780  1
  P  P225  1  0.45720841  0.74946253  0.39803290  1
  P  P226  1  0.45739758  0.75037098  0.64741334  1
  P  P227  1  0.45714425  0.74827251  0.89719574  1
  P  P228  1  0.95771833  0.08444196  0.14735568  1
  P  P229  1  0.95767697  0.08302790  0.39588688  1
  P  P230  1  0.95832465  0.08232468  0.64729499  1
  P  P231  1  0.95745971  0.08314538  0.89598799  1
  P  P232  1  0.95758975  0.41788217  0.14563674  1
  P  P233  1  0.95822737  0.41506792  0.39716805  1
  P  P234  1  0.95840413  0.41838802  0.64684796  1
  P  P235  1  0.95819758  0.41931167  0.89656582  1
  P  P236  1  0.95812012  0.75115526  0.14641627  1
  P  P237  1  0.95748467  0.74833313  0.39738529  1
  P  P238  1  0.95736206  0.74821165  0.64762048  1
  P  P239  1  0.95846074  0.75015922  0.89805066  1
  P  P240  1  0.20800422  0.08498380  0.22792387  1
  P  P241  1  0.20821012  0.08196778  0.47779524  1
  P  P242  1  0.20820239  0.08501477  0.72781854  1
  P  P243  1  0.20825569  0.08525245  0.97792656  1
  P  P244  1  0.20860082  0.41745599  0.22701664  1
  P  P245  1  0.20886766  0.41609467  0.47701560  1
  P  P246  1  0.20897468  0.41702812  0.72664699  1
  P  P247  1  0.20807126  0.41809316  0.97796987  1
  P  P248  1  0.20869960  0.74964350  0.22649073  1
  P  P249  1  0.20799498  0.74806467  0.47733921  1
  P  P250  1  0.20779037  0.75042472  0.72763400  1
  P  P251  1  0.20775573  0.74806570  0.97828206  1
  P  P252  1  0.70754911  0.08581327  0.22715264  1
  P  P253  1  0.70737232  0.08350969  0.47878140  1
  P  P254  1  0.70857226  0.08199131  0.72797865  1
  P  P255  1  0.70768306  0.08209452  0.97753232  1
  P  P256  1  0.70764630  0.41834335  0.22780894  1
  P  P257  1  0.70856766  0.41741178  0.47646204  1
  P  P258  1  0.70755926  0.41782231  0.72784680  1
  P  P259  1  0.70831870  0.41640676  0.97622393  1
  P  P260  1  0.70737797  0.75129072  0.22768901  1
  P  P261  1  0.70724200  0.74957038  0.47939261  1
  P  P262  1  0.70751737  0.74828897  0.72766304  1
  P  P263  1  0.70680790  0.74969657  0.97890977  1
  P  P264  1  0.29136921  0.25025737  0.02367389  1
  P  P265  1  0.29245341  0.25196161  0.27228640  1
  P  P266  1  0.29160259  0.24997151  0.52355496  1
  P  P267  1  0.29232381  0.24914358  0.77208259  1
  P  P268  1  0.29072246  0.58299010  0.02300481  1
  P  P269  1  0.29108474  0.58303218  0.27289667  1
  P  P270  1  0.29184230  0.58115124  0.52182586  1
  P  P271  1  0.29092715  0.58305439  0.77339419  1
  P  P272  1  0.29212163  0.91522887  0.02253901  1
  P  P273  1  0.29224260  0.91806128  0.27220461  1
  P  P274  1  0.29250475  0.91492687  0.52242634  1
  P  P275  1  0.29264174  0.91627304  0.77154617  1
  P  P276  1  0.79219797  0.24909015  0.02153380  1
  P  P277  1  0.79222280  0.25206724  0.27187115  1
  P  P278  1  0.79329237  0.25122342  0.52121820  1
  P  P279  1  0.79279410  0.25159180  0.77229442  1
  P  P280  1  0.79173627  0.58108192  0.02208468  1
  P  P281  1  0.79229150  0.58226592  0.27226533  1
  P  P282  1  0.79106066  0.58276201  0.52329383  1
  P  P283  1  0.79136926  0.58209813  0.77179261  1
  P  P284  1  0.79205856  0.91537167  0.02235746  1
  P  P285  1  0.79268833  0.91665192  0.27139451  1
  P  P286  1  0.79290840  0.91808670  0.52308206  1
  P  P287  1  0.79202422  0.91793792  0.77251012  1
  O  O288  1  0.03758166  0.24921456  0.18304060  1
  O  O289  1  0.03745996  0.24973085  0.43208325  1
  O  O290  1  0.03790346  0.25168486  0.68193834  1
  O  O291  1  0.03877981  0.25119761  0.93264059  1
  O  O292  1  0.03711279  0.58377426  0.18078033  1
  O  O293  1  0.03795168  0.58363544  0.43325003  1
  O  O294  1  0.03654265  0.58483653  0.68286321  1
  O  O295  1  0.03592844  0.58370770  0.93173614  1
  O  O296  1  0.03704015  0.91474854  0.18239490  1
  O  O297  1  0.03783568  0.91443007  0.43193415  1
  O  O298  1  0.03786324  0.91732203  0.68352040  1
  O  O299  1  0.03720624  0.91685554  0.93249270  1
  O  O300  1  0.53739658  0.25124144  0.18242453  1
  O  O301  1  0.53782689  0.24974538  0.43427693  1
  O  O302  1  0.53684138  0.24800505  0.68362574  1
  O  O303  1  0.53672322  0.24898176  0.93296183  1
  O  O304  1  0.53724855  0.58457085  0.18203360  1
  O  O305  1  0.53661712  0.58360256  0.43439139  1
  O  O306  1  0.53587011  0.58237134  0.68209568  1
  O  O307  1  0.53641153  0.58204461  0.93261668  1
  O  O308  1  0.53642774  0.91884476  0.18271805  1
  O  O309  1  0.53736852  0.91819844  0.43272370  1
  O  O310  1  0.53689295  0.91601819  0.68464910  1
  O  O311  1  0.53603030  0.91604613  0.93187520  1
  O  O312  1  0.46259663  0.08213242  0.06768789  1
  O  O313  1  0.46265592  0.08427973  0.31837006  1
  O  O314  1  0.46365805  0.08439338  0.56919944  1
  O  O315  1  0.46336402  0.08144850  0.81722685  1
  O  O316  1  0.46233941  0.41567653  0.06665065  1
  O  O317  1  0.46242872  0.41794353  0.31847870  1
  O  O318  1  0.46328129  0.41836583  0.56745984  1
  O  O319  1  0.46251505  0.41488147  0.81734757  1
  O  O320  1  0.46200282  0.74942914  0.06656329  1
  O  O321  1  0.46222935  0.74999652  0.31804064  1
  O  O322  1  0.46276805  0.74982801  0.56750005  1
  O  O323  1  0.46259557  0.74887483  0.81724476  1
  O  O324  1  0.96289601  0.08421569  0.06736834  1
  O  O325  1  0.96291861  0.08348572  0.31594235  1
  O  O326  1  0.96339354  0.08242413  0.56728502  1
  O  O327  1  0.96290262  0.08247768  0.81603615  1
  O  O328  1  0.96293296  0.41870597  0.06569611  1
  O  O329  1  0.96302576  0.41537484  0.31718695  1
  O  O330  1  0.96357899  0.41733792  0.56693007  1
  O  O331  1  0.96343710  0.41961461  0.81661928  1
  O  O332  1  0.96341664  0.75119680  0.06655520  1
  O  O333  1  0.96275736  0.74920206  0.31744457  1
  O  O334  1  0.96239447  0.74790417  0.56766673  1
  O  O335  1  0.96327003  0.74961489  0.81806473  1
  O  O336  1  0.21369864  0.08513023  0.05785837  1
  O  O337  1  0.21336846  0.08416458  0.30782687  1
  O  O338  1  0.21338364  0.08249070  0.55773412  1
  O  O339  1  0.21353298  0.08530813  0.80774412  1
  O  O340  1  0.21306573  0.41844686  0.05779904  1
  O  O341  1  0.21386608  0.41712317  0.30686899  1
  O  O342  1  0.21395903  0.41604070  0.55688396  1
  O  O343  1  0.21350238  0.41679212  0.80660428  1
  O  O344  1  0.21294220  0.74833331  0.05811883  1
  O  O345  1  0.21363913  0.74914375  0.30642825  1
  O  O346  1  0.21324547  0.74860601  0.55723330  1
  O  O347  1  0.21294017  0.74986985  0.80751210  1
  O  O348  1  0.71302682  0.08306574  0.05743380  1
  O  O349  1  0.71262811  0.08564042  0.30711813  1
  O  O350  1  0.71296020  0.08288415  0.55870248  1
  O  O351  1  0.71378419  0.08168385  0.80790883  1
  O  O352  1  0.71311493  0.41669182  0.05620248  1
  O  O353  1  0.71323826  0.41807772  0.30763004  1
  O  O354  1  0.71352999  0.41777001  0.55641363  1
  O  O355  1  0.71292036  0.41737549  0.80769415  1
  O  O356  1  0.71204906  0.75021151  0.05883944  1
  O  O357  1  0.71262266  0.75100300  0.30769129  1
  O  O358  1  0.71257495  0.74902929  0.55932725  1
  O  O359  1  0.71223467  0.74833157  0.80767273  1
  O  O360  1  0.28716426  0.25172751  0.19245115  1
  O  O361  1  0.28701910  0.25039633  0.44360563  1
  O  O362  1  0.28691693  0.24912249  0.69225920  1
  O  O363  1  0.28648116  0.25006343  0.94370436  1
  O  O364  1  0.28579780  0.58305497  0.19301105  1
  O  O365  1  0.28646278  0.58131249  0.44203402  1
  O  O366  1  0.28629231  0.58260864  0.69343922  1
  O  O367  1  0.28595835  0.58335162  0.94310625  1
  O  O368  1  0.28692663  0.91792537  0.19232661  1
  O  O369  1  0.28718981  0.91543904  0.44249338  1
  O  O370  1  0.28753551  0.91588905  0.69161002  1
  O  O371  1  0.28690181  0.91542097  0.94263063  1
  O  O372  1  0.78685408  0.25132244  0.19193087  1
  O  O373  1  0.78793038  0.25191673  0.44130639  1
  O  O374  1  0.78779928  0.25139458  0.69233374  1
  O  O375  1  0.78708802  0.24960557  0.94160836  1
  O  O376  1  0.78711264  0.58223493  0.19233137  1
  O  O377  1  0.78644324  0.58277111  0.44328498  1
  O  O378  1  0.78605870  0.58279398  0.69192334  1
  O  O379  1  0.78628935  0.58087949  0.94217263  1
  O  O380  1  0.78731629  0.91594883  0.19144968  1
  O  O381  1  0.78781169  0.91779443  0.44311108  1
  O  O382  1  0.78691500  0.91813760  0.69255442  1
  O  O383  1  0.78669644  0.91591067  0.94242628  1
  O  O384  1  0.22732264  0.24980375  0.05985788  1
  O  O385  1  0.22832872  0.25184086  0.30851273  1
  O  O386  1  0.22740017  0.24954045  0.55934843  1
  O  O387  1  0.22823148  0.24924397  0.80845361  1
  O  O388  1  0.22660404  0.58230714  0.05915994  1
  O  O389  1  0.22709854  0.58271775  0.30944397  1
  O  O390  1  0.22776012  0.58097190  0.55819347  1
  O  O391  1  0.22671020  0.58368587  0.80927333  1
  O  O392  1  0.22789809  0.91534809  0.05837522  1
  O  O393  1  0.22803360  0.91788837  0.30815999  1
  O  O394  1  0.22829061  0.91477291  0.55836982  1
  O  O395  1  0.22839204  0.91658015  0.80703757  1
  O  O396  1  0.72792291  0.24876011  0.05733307  1
  O  O397  1  0.72806368  0.25310821  0.30798651  1
  O  O398  1  0.72897965  0.25057638  0.55667731  1
  O  O399  1  0.72843295  0.25148883  0.80775148  1
  O  O400  1  0.72755071  0.58139810  0.05808637  1
  O  O401  1  0.72800914  0.58203053  0.30803700  1
  O  O402  1  0.72683105  0.58229541  0.55917374  1
  O  O403  1  0.72717415  0.58143102  0.80784258  1
  O  O404  1  0.72785683  0.91523964  0.05832156  1
  O  O405  1  0.72835194  0.91712125  0.30684509  1
  O  O406  1  0.72853028  0.91803151  0.55853145  1
  O  O407  1  0.72768586  0.91796877  0.80817691  1
  O  O408  1  0.27218844  0.08518500  0.19191514  1
  O  O409  1  0.27247875  0.08198006  0.44203835  1
  O  O410  1  0.27239219  0.08486328  0.69185363  1
  O  O411  1  0.27244038  0.08537649  0.94189118  1
  O  O412  1  0.27253792  0.41821303  0.19041131  1
  O  O413  1  0.27288652  0.41652545  0.44051898  1
  O  O414  1  0.27316500  0.41732625  0.69080337  1
  O  O415  1  0.27226396  0.41813160  0.94197377  1
  O  O416  1  0.27274390  0.75021058  0.19036003  1
  O  O417  1  0.27213976  0.74785707  0.44130466  1
  O  O418  1  0.27202139  0.75065978  0.69169185  1
  O  O419  1  0.27190970  0.74743611  0.94211365  1
  O  O420  1  0.77187801  0.08551139  0.19155304  1
  O  O421  1  0.77162769  0.08413512  0.44314651  1
  O  O422  1  0.77281169  0.08209476  0.69210291  1
  O  O423  1  0.77194257  0.08172817  0.94169439  1
  O  O424  1  0.77176851  0.41825751  0.19146272  1
  O  O425  1  0.77275826  0.41740011  0.44033631  1
  O  O426  1  0.77177693  0.41877851  0.69180077  1
  O  O427  1  0.77248660  0.41631185  0.94017885  1
  O  O428  1  0.77163890  0.75122086  0.19191796  1
  O  O429  1  0.77152936  0.74977941  0.44385731  1
  O  O430  1  0.77189333  0.74842500  0.69243038  1
  O  O431  1  0.77109977  0.74947179  0.94344745  1
  O  O432  1  0.02203543  0.08430961  0.18285299  1
  O  O433  1  0.02204830  0.08314716  0.43109044  1
  O  O434  1  0.02265918  0.08220294  0.68266782  1
  O  O435  1  0.02176966  0.08318260  0.93130932  1
  O  O436  1  0.02191199  0.41685175  0.18091270  1
  O  O437  1  0.02261397  0.41532632  0.43244090  1
  O  O438  1  0.02269913  0.41926170  0.68240285  1
  O  O439  1  0.02247988  0.41962066  0.93217152  1
  O  O440  1  0.02234270  0.75130788  0.18244294  1
  O  O441  1  0.02184793  0.74752438  0.43298790  1
  O  O442  1  0.02170279  0.74823640  0.68305910  1
  O  O443  1  0.02264465  0.75051749  0.93383468  1
  O  O444  1  0.52193337  0.08194615  0.18322354  1
  O  O445  1  0.52186502  0.08563246  0.43384920  1
  O  O446  1  0.52272559  0.08317597  0.68527863  1
  O  O447  1  0.52181433  0.08121389  0.93333290  1
  O  O448  1  0.52161755  0.41703568  0.18177510  1
  O  O449  1  0.52191710  0.41817135  0.43371525  1
  O  O450  1  0.52192406  0.41768665  0.68333769  1
  O  O451  1  0.52149449  0.41439514  0.93296891  1
  O  O452  1  0.52118975  0.75071640  0.18178063  1
  O  O453  1  0.52155606  0.74877625  0.43339414  1
  O  O454  1  0.52155211  0.75049838  0.68331682  1
  O  O455  1  0.52131291  0.74817834  0.93309830  1
  O  O456  1  0.47786163  0.25109004  0.06717488  1
  O  O457  1  0.47861854  0.25009772  0.31912467  1
  O  O458  1  0.47802180  0.24863263  0.56782580  1
  O  O459  1  0.47803547  0.24773828  0.81722652  1
  O  O460  1  0.47765102  0.58455869  0.06687018  1
  O  O461  1  0.47790008  0.58365595  0.31883131  1
  O  O462  1  0.47662218  0.58356617  0.56626238  1
  O  O463  1  0.47718634  0.58114286  0.81720873  1
  O  O464  1  0.47742745  0.91817225  0.06698776  1
  O  O465  1  0.47786462  0.91900155  0.31744772  1
  O  O466  1  0.47835792  0.91686172  0.56885207  1
  O  O467  1  0.47714619  0.91543732  0.81574177  1
  O  O468  1  0.97871049  0.25091032  0.06765478  1
  O  O469  1  0.97838023  0.24792718  0.31638939  1
  O  O470  1  0.97853002  0.25196668  0.56661631  1
  O  O471  1  0.97943676  0.25100688  0.81780802  1
  O  O472  1  0.97701390  0.58385431  0.06551851  1
  O  O473  1  0.97872860  0.58342141  0.31815880  1
  O  O474  1  0.97796322  0.58469893  0.56674340  1
  O  O475  1  0.97695409  0.58380233  0.81554062  1
  O  O476  1  0.97817024  0.91487157  0.06665831  1
  O  O477  1  0.97855957  0.91419345  0.31658355  1
  O  O478  1  0.97889344  0.91607335  0.56823741  1
  O  O479  1  0.97820050  0.91757685  0.81686363  1
  O  O480  1  0.07432323  0.31370129  0.07563387  1
  O  O481  1  0.07333676  0.31261242  0.32369243  1
  O  O482  1  0.07365499  0.31523946  0.57334229  1
  O  O483  1  0.07485566  0.31475996  0.82475959  1
  O  O484  1  0.07173080  0.64776417  0.07237996  1
  O  O485  1  0.07448587  0.64628700  0.32440213  1
  O  O486  1  0.07282099  0.64838449  0.57409982  1
  O  O487  1  0.07172113  0.64793621  0.82375421  1
  O  O488  1  0.07325273  0.97909553  0.07513130  1
  O  O489  1  0.07396936  0.97782353  0.32394647  1
  O  O490  1  0.07457817  0.97946249  0.57453520  1
  O  O491  1  0.07310635  0.98116875  0.82415164  1
  O  O492  1  0.57290697  0.31470328  0.07355207  1
  O  O493  1  0.57364791  0.31421000  0.32643019  1
  O  O494  1  0.57339001  0.31212216  0.57627962  1
  O  O495  1  0.57339826  0.31150549  0.82449343  1
  O  O496  1  0.57263270  0.64829549  0.07339284  1
  O  O497  1  0.57341490  0.64711960  0.32613758  1
  O  O498  1  0.57140934  0.64737976  0.57452971  1
  O  O499  1  0.57284723  0.64465814  0.82431959  1
  O  O500  1  0.57255975  0.98168647  0.07364417  1
  O  O501  1  0.57308795  0.98218092  0.32439964  1
  O  O502  1  0.57370364  0.98022196  0.57687439  1
  O  O503  1  0.57216854  0.97910689  0.82346706  1
  O  O504  1  0.42637885  0.01926027  0.17673582  1
  O  O505  1  0.42666596  0.02135829  0.42682613  1
  O  O506  1  0.42782776  0.01945306  0.67654341  1
  O  O507  1  0.42695195  0.01745559  0.92555859  1
  O  O508  1  0.42611125  0.35345592  0.17571860  1
  O  O509  1  0.42666228  0.35432482  0.42640672  1
  O  O510  1  0.42677025  0.35390414  0.67450718  1
  O  O511  1  0.42673537  0.35057334  0.92567849  1
  O  O512  1  0.42577570  0.68685221  0.17532655  1
  O  O513  1  0.42623112  0.68596804  0.42634071  1
  O  O514  1  0.42601646  0.68687772  0.67537315  1
  O  O515  1  0.42662315  0.68439650  0.92539279  1
  O  O516  1  0.92658730  0.02064866  0.17476116  1
  O  O517  1  0.92690369  0.01914905  0.42375311  1
  O  O518  1  0.92760582  0.01884823  0.67598424  1
  O  O519  1  0.92604347  0.02016303  0.92495187  1
  O  O520  1  0.92602366  0.35434647  0.17310617  1
  O  O521  1  0.92788587  0.35131766  0.42564693  1
  O  O522  1  0.92736055  0.35501027  0.67549398  1
  O  O523  1  0.92757705  0.35521989  0.92421077  1
  O  O524  1  0.92705451  0.68738818  0.17438432  1
  O  O525  1  0.92654542  0.68469042  0.42550929  1
  O  O526  1  0.92628919  0.68515079  0.67676654  1
  O  O527  1  0.92771708  0.68651346  0.92669550  1
  O  O528  1  0.17654531  0.02172715  0.19965384  1
  O  O529  1  0.17781293  0.01812427  0.44935858  1
  O  O530  1  0.17713786  0.02114613  0.70046208  1
  O  O531  1  0.17739212  0.02128947  0.95029543  1
  O  O532  1  0.17840688  0.35351905  0.19819214  1
  O  O533  1  0.17842644  0.35224291  0.44835765  1
  O  O534  1  0.17874065  0.35309297  0.69790250  1
  O  O535  1  0.17703201  0.35442364  0.95003428  1
  O  O536  1  0.17803642  0.68589952  0.19803309  1
  O  O537  1  0.17733713  0.68434596  0.44907186  1
  O  O538  1  0.17666709  0.68689741  0.69959518  1
  O  O539  1  0.17664117  0.68482005  0.94940083  1
  O  O540  1  0.67631437  0.02219435  0.19957547  1
  O  O541  1  0.67623857  0.02027577  0.45014371  1
  O  O542  1  0.67756440  0.01880789  0.69910417  1
  O  O543  1  0.67708073  0.01818382  0.94966075  1
  O  O544  1  0.67625685  0.35496704  0.19951721  1
  O  O545  1  0.67803897  0.35345763  0.44850612  1
  O  O546  1  0.67687870  0.35403230  0.69955419  1
  O  O547  1  0.67787596  0.35234108  0.94823947  1
  O  O548  1  0.67626507  0.68752688  0.20021020  1
  O  O549  1  0.67599561  0.68645696  0.45068155  1
  O  O550  1  0.67692377  0.68469109  0.69911583  1
  O  O551  1  0.67578447  0.68598878  0.95112337  1
  O  O552  1  0.32135344  0.31461431  0.05166854  1
  O  O553  1  0.32316962  0.31548260  0.30111994  1
  O  O554  1  0.32201778  0.31371732  0.55234814  1
  O  O555  1  0.32356230  0.31276553  0.80004985  1
  O  O556  1  0.32098649  0.64677774  0.05214266  1
  O  O557  1  0.32168454  0.64691479  0.30122026  1
  O  O558  1  0.32295140  0.64472686  0.54999191  1
  O  O559  1  0.32203033  0.64659449  0.80149955  1
  O  O560  1  0.32339772  0.97883048  0.05000549  1
  O  O561  1  0.32261371  0.98177268  0.30099097  1
  O  O562  1  0.32389926  0.97831440  0.55043274  1
  O  O563  1  0.32363187  0.97996583  0.79942834  1
  O  O564  1  0.82334112  0.31258923  0.04957760  1
  O  O565  1  0.82342977  0.31560158  0.29976406  1
  O  O566  1  0.82428137  0.31454429  0.54980780  1
  O  O567  1  0.82334637  0.31526634  0.80067328  1
  O  O568  1  0.82289316  0.64487378  0.04954805  1
  O  O569  1  0.82300752  0.64624615  0.29995555  1
  O  O570  1  0.82113574  0.64683717  0.55181048  1
  O  O571  1  0.82228926  0.64561285  0.80048421  1
  O  O572  1  0.82343571  0.97883617  0.05021123  1
  O  O573  1  0.82373665  0.98054210  0.29870294  1
  O  O574  1  0.82358024  0.98170400  0.55137116  1
  O  O575  1  0.82306916  0.98101446  0.80151299  1
  O  O576  1  0.42714392  0.14640639  0.17540138  1
  O  O577  1  0.42657295  0.14844443  0.42672233  1
  O  O578  1  0.42771248  0.14688353  0.67795557  1
  O  O579  1  0.42635104  0.14445948  0.92533111  1
  O  O580  1  0.42627345  0.48035410  0.17422206  1
  O  O581  1  0.42670871  0.48152034  0.42688025  1
  O  O582  1  0.42681743  0.48106860  0.67643245  1
  O  O583  1  0.42584873  0.47773747  0.92535028  1
  O  O584  1  0.42577308  0.81372022  0.17440460  1
  O  O585  1  0.42653357  0.81331891  0.42582857  1
  O  O586  1  0.42672060  0.81394918  0.67587161  1
  O  O587  1  0.42574940  0.81159955  0.92524209  1
  O  O588  1  0.92716020  0.14804970  0.17571667  1
  O  O589  1  0.92622799  0.14606902  0.42457048  1
  O  O590  1  0.92737345  0.14624705  0.67467211  1
  O  O591  1  0.92658035  0.14703320  0.92353975  1
  O  O592  1  0.92685308  0.48114897  0.17475355  1
  O  O593  1  0.92705605  0.47859672  0.42509443  1
  O  O594  1  0.92749177  0.48206763  0.67482640  1
  O  O595  1  0.92691656  0.48235981  0.92538185  1
  O  O596  1  0.92720087  0.81431565  0.17567514  1
  O  O597  1  0.92666613  0.81182887  0.42598152  1
  O  O598  1  0.92658896  0.81214597  0.67531333  1
  O  O599  1  0.92760310  0.81394334  0.92586831  1
  O  O600  1  0.07391145  0.18672468  0.07446332  1
  O  O601  1  0.07375949  0.18536223  0.32409961  1
  O  O602  1  0.07368021  0.18786583  0.57438880  1
  O  O603  1  0.07487513  0.18768376  0.82444437  1
  O  O604  1  0.07221088  0.52034969  0.07228232  1
  O  O605  1  0.07383741  0.51948059  0.32535766  1
  O  O606  1  0.07350609  0.52145752  0.57506898  1
  O  O607  1  0.07224124  0.52077465  0.82292352  1
  O  O608  1  0.07355770  0.85201065  0.07338838  1
  O  O609  1  0.07354178  0.85056413  0.32365022  1
  O  O610  1  0.07410455  0.85258233  0.57607730  1
  O  O611  1  0.07372907  0.85397665  0.82450651  1
  O  O612  1  0.57323297  0.18745569  0.07481822  1
  O  O613  1  0.57444820  0.18736031  0.32536780  1
  O  O614  1  0.57305020  0.18492527  0.57497475  1
  O  O615  1  0.57313725  0.18443640  0.82523032  1
  O  O616  1  0.57311289  0.52101974  0.07426536  1
  O  O617  1  0.57334861  0.52044249  0.32571543  1
  O  O618  1  0.57178000  0.51993820  0.57330315  1
  O  O619  1  0.57199281  0.51755335  0.82438000  1
  O  O620  1  0.57268873  0.85466224  0.07516360  1
  O  O621  1  0.57299285  0.85480457  0.32468213  1
  O  O622  1  0.57376218  0.85349051  0.57592726  1
  O  O623  1  0.57190797  0.85158158  0.82424023  1
  O  O624  1  0.32289038  0.18712070  0.05208552  1
  O  O625  1  0.32378147  0.18855190  0.30056761  1
  O  O626  1  0.32260733  0.18628940  0.55154364  1
  O  O627  1  0.32315293  0.18584093  0.80119186  1
  O  O628  1  0.32230265  0.51978880  0.05131123  1
  O  O629  1  0.32240588  0.51966542  0.30121684  1
  O  O630  1  0.32281832  0.51788290  0.55081321  1
  O  O631  1  0.32127299  0.51924142  0.80214140  1
  O  O632  1  0.32257360  0.85146387  0.05081949  1
  O  O633  1  0.32370361  0.85458868  0.29987059  1
  O  O634  1  0.32294554  0.85109234  0.55077486  1
  O  O635  1  0.32382179  0.85302342  0.80001057  1
  O  O636  1  0.82285328  0.18543742  0.05003005  1
  O  O637  1  0.82293442  0.18841014  0.30011186  1
  O  O638  1  0.82457288  0.18770011  0.54906508  1
  O  O639  1  0.82397244  0.18800643  0.79996706  1
  O  O640  1  0.82254850  0.51774687  0.05078018  1
  O  O641  1  0.82344376  0.51914772  0.30114668  1
  O  O642  1  0.82238345  0.51942557  0.55149319  1
  O  O643  1  0.82256990  0.51875574  0.80017061  1
  O  O644  1  0.82269542  0.85168466  0.05067086  1
  O  O645  1  0.82383685  0.85355605  0.30032542  1
  O  O646  1  0.82394833  0.85443776  0.55099513  1
  O  O647  1  0.82277765  0.85382958  0.79991810  1
  O  O648  1  0.17744415  0.14881277  0.19988857  1
  O  O649  1  0.17682669  0.14532086  0.44976578  1
  O  O650  1  0.17724767  0.14818669  0.69878340  1
  O  O651  1  0.17720535  0.14855755  0.94945223  1
  O  O652  1  0.17685004  0.48068449  0.19897536  1
  O  O653  1  0.17745967  0.47938900  0.44862862  1
  O  O654  1  0.17776519  0.48041388  0.69841045  1
  O  O655  1  0.17718728  0.48130327  0.94851268  1
  O  O656  1  0.17782380  0.81340169  0.19849556  1
  O  O657  1  0.17671685  0.81143605  0.44914153  1
  O  O658  1  0.17719606  0.81408536  0.69918393  1
  O  O659  1  0.17694677  0.81179573  0.95007104  1
  O  O660  1  0.67714677  0.14951225  0.19867846  1
  O  O661  1  0.67612777  0.14714891  0.45116621  1
  O  O662  1  0.67777806  0.14606316  0.70065066  1
  O  O663  1  0.67638250  0.14530832  0.94901130  1
  O  O664  1  0.67682779  0.48183043  0.19908503  1
  O  O665  1  0.67753048  0.48089686  0.44821968  1
  O  O666  1  0.67616336  0.48087245  0.69898880  1
  O  O667  1  0.67722177  0.47978876  0.94780289  1
  O  O668  1  0.67669160  0.81487706  0.19936668  1
  O  O669  1  0.67626010  0.81337383  0.45172790  1
  O  O670  1  0.67642534  0.81198316  0.70013356  1
  O  O671  1  0.67549475  0.81280378  0.95020440  1
