# generated using pymatgen
data_Na2MnFe(PO4)2
_symmetry_space_group_name_H-M   'P 1'
_cell_length_a   22.34156644
_cell_length_b   20.09562305
_cell_length_c   19.45183296
_cell_angle_alpha   89.98344438
_cell_angle_beta   90.07376649
_cell_angle_gamma   89.97223964
_symmetry_Int_Tables_number   1
_chemical_formula_structural   Na2MnFe(PO4)2
_chemical_formula_sum   'Na96 Mn48 Fe48 P96 O384'
_cell_volume   8733.23603036
_cell_formula_units_Z   48
loop_
 _symmetry_equiv_pos_site_id
 _symmetry_equiv_pos_as_xyz
  1  'x, y, z'
loop_
 _atom_site_type_symbol
 _atom_site_label
 _atom_site_symmetry_multiplicity
 _atom_site_fract_x
 _atom_site_fract_y
 _atom_site_fract_z
 _atom_site_occupancy
  Na  Na0  1  0.13998101  0.24952661  0.24280245  1
  Na  Na1  1  0.14052843  0.25145691  0.49307972  1
  Na  Na2  1  0.14001670  0.25078623  0.74399197  1
  Na  Na3  1  0.13971445  0.25030820  0.99463438  1
  Na  Na4  1  0.14018367  0.58227551  0.24211853  1
  Na  Na5  1  0.13959736  0.58399801  0.49288048  1
  Na  Na6  1  0.14003386  0.58367347  0.74356679  1
  Na  Na7  1  0.13945860  0.58323537  0.99402571  1
  Na  Na8  1  0.14081855  0.91542940  0.24385822  1
  Na  Na9  1  0.13997667  0.91715730  0.49334219  1
  Na  Na10  1  0.13990831  0.91587593  0.74304871  1
  Na  Na11  1  0.14047852  0.91562961  0.99376948  1
  Na  Na12  1  0.63960028  0.25131781  0.24292129  1
  Na  Na13  1  0.64021893  0.24961741  0.49366867  1
  Na  Na14  1  0.63990161  0.24830380  0.74301693  1
  Na  Na15  1  0.63954884  0.24933578  0.99435890  1
  Na  Na16  1  0.64016282  0.58381442  0.24447957  1
  Na  Na17  1  0.64005798  0.58341864  0.49332278  1
  Na  Na18  1  0.63979812  0.58323458  0.74356087  1
  Na  Na19  1  0.64023622  0.58377638  0.99392570  1
  Na  Na20  1  0.64063715  0.91799353  0.24520647  1
  Na  Na21  1  0.63999698  0.91737453  0.49348913  1
  Na  Na22  1  0.64027338  0.91688841  0.74421365  1
  Na  Na23  1  0.64020162  0.91692161  0.99387089  1
  Na  Na24  1  0.36003557  0.08332999  0.00734892  1
  Na  Na25  1  0.35988636  0.08293526  0.25551378  1
  Na  Na26  1  0.35956318  0.08481284  0.50610077  1
  Na  Na27  1  0.36000507  0.08408452  0.75628691  1
  Na  Na28  1  0.35936724  0.41690712  0.00724366  1
  Na  Na29  1  0.35983237  0.41527840  0.25631994  1
  Na  Na30  1  0.35981286  0.41811638  0.50621927  1
  Na  Na31  1  0.35947986  0.41729526  0.75501832  1
  Na  Na32  1  0.35947804  0.74942244  0.00758446  1
  Na  Na33  1  0.35963417  0.74875879  0.25536310  1
  Na  Na34  1  0.36031143  0.75005153  0.50705505  1
  Na  Na35  1  0.36038598  0.74923897  0.75627149  1
  Na  Na36  1  0.86029987  0.08364461  0.00656600  1
  Na  Na37  1  0.85962178  0.08462090  0.25708202  1
  Na  Na38  1  0.85958384  0.08318085  0.50662137  1
  Na  Na39  1  0.86003898  0.08195207  0.75560918  1
  Na  Na40  1  0.85961813  0.41637564  0.00670416  1
  Na  Na41  1  0.86007593  0.41730249  0.25641885  1
  Na  Na42  1  0.86025382  0.41569063  0.50588449  1
  Na  Na43  1  0.85973230  0.41528253  0.75553819  1
  Na  Na44  1  0.85989630  0.74907155  0.00588700  1
  Na  Na45  1  0.86001800  0.75040746  0.25717124  1
  Na  Na46  1  0.86057182  0.75121257  0.50705482  1
  Na  Na47  1  0.86051484  0.74974768  0.75657936  1
  Na  Na48  1  0.10930547  0.08315807  0.11899848  1
  Na  Na49  1  0.10964366  0.08328189  0.36835452  1
  Na  Na50  1  0.10942927  0.08210462  0.61832231  1
  Na  Na51  1  0.10914178  0.08363472  0.86919091  1
  Na  Na52  1  0.10975029  0.41665459  0.11853801  1
  Na  Na53  1  0.10939627  0.41745267  0.36694143  1
  Na  Na54  1  0.10931374  0.41679634  0.61799534  1
  Na  Na55  1  0.10918572  0.41824486  0.86952577  1
  Na  Na56  1  0.10977021  0.74805202  0.11810074  1
  Na  Na57  1  0.10965886  0.74872302  0.36858385  1
  Na  Na58  1  0.10900068  0.74931189  0.61862219  1
  Na  Na59  1  0.10958929  0.74946454  0.86835007  1
  Na  Na60  1  0.60932982  0.08452997  0.11859491  1
  Na  Na61  1  0.60965758  0.08344006  0.36909875  1
  Na  Na62  1  0.60981654  0.08358365  0.61797056  1
  Na  Na63  1  0.60947638  0.08328262  0.86956258  1
  Na  Na64  1  0.60928160  0.41652275  0.11832869  1
  Na  Na65  1  0.60956499  0.41552179  0.36896439  1
  Na  Na66  1  0.60917243  0.41674179  0.61746179  1
  Na  Na67  1  0.60888543  0.41567815  0.86886844  1
  Na  Na68  1  0.60949610  0.75118131  0.11848121  1
  Na  Na69  1  0.60963693  0.75060708  0.37029764  1
  Na  Na70  1  0.60897461  0.74968929  0.61835591  1
  Na  Na71  1  0.60951294  0.75066340  0.86971166  1
  Na  Na72  1  0.39048129  0.25040286  0.13145847  1
  Na  Na73  1  0.39032920  0.24992356  0.38092218  1
  Na  Na74  1  0.39016681  0.25106564  0.63039367  1
  Na  Na75  1  0.39070995  0.24943919  0.88143059  1
  Na  Na76  1  0.38992537  0.58318480  0.13149624  1
  Na  Na77  1  0.39051527  0.58283440  0.38197369  1
  Na  Na78  1  0.39041752  0.58396604  0.63053132  1
  Na  Na79  1  0.39024568  0.58431911  0.88180593  1
  Na  Na80  1  0.39001335  0.91737265  0.13087632  1
  Na  Na81  1  0.39066526  0.91601924  0.38129616  1
  Na  Na82  1  0.39078247  0.91696077  0.63079644  1
  Na  Na83  1  0.39083824  0.91673401  0.88301671  1
  Na  Na84  1  0.89054686  0.25025280  0.13246116  1
  Na  Na85  1  0.89036541  0.25040350  0.38126620  1
  Na  Na86  1  0.89022863  0.24910279  0.63175365  1
  Na  Na87  1  0.89048149  0.25092015  0.88063134  1
  Na  Na88  1  0.89054244  0.58224205  0.13131490  1
  Na  Na89  1  0.89129171  0.58417844  0.38078340  1
  Na  Na90  1  0.89102598  0.58315848  0.63083351  1
  Na  Na91  1  0.89077228  0.58350484  0.88101714  1
  Na  Na92  1  0.89086887  0.91642509  0.13200749  1
  Na  Na93  1  0.89063905  0.91604529  0.38311783  1
  Na  Na94  1  0.89071306  0.91604706  0.63108828  1
  Na  Na95  1  0.89090599  0.91601957  0.88060531  1
  Mn  Mn96  1  0.50034765  0.00080383  0.75082086  1
  Mn  Mn97  1  0.75039974  0.83413222  0.12574564  1
  Mn  Mn98  1  0.75033830  0.49951214  0.37486017  1
  Mn  Mn99  1  0.49950323  0.33276552  0.74952039  1
  Mn  Mn100  1  0.50000680  0.66703476  0.25068010  1
  Mn  Mn101  1  0.25051017  0.83275540  0.62479062  1
  Mn  Mn102  1  0.00039745  0.16664564  0.74984916  1
  Mn  Mn103  1  0.24991543  0.66558931  0.37441000  1
  Mn  Mn104  1  0.74988900  0.33371357  0.12485342  1
  Mn  Mn105  1  0.24952561  0.50107418  0.62533103  1
  Mn  Mn106  1  0.75031639  0.49866752  0.62415701  1
  Mn  Mn107  1  0.74955060  0.49903294  0.87432637  1
  Mn  Mn108  1  0.74984582  0.16733967  0.37574824  1
  Mn  Mn109  1  0.00035774  0.83212962  -0.00006287  1
  Mn  Mn110  1  0.24983895  0.16623307  0.12484506  1
  Mn  Mn111  1  0.00064152  0.16594090  0.50048077  1
  Mn  Mn112  1  0.75005270  0.66682748  0.62495561  1
  Mn  Mn113  1  0.24941472  0.50089809  0.87545227  1
  Mn  Mn114  1  0.49956274  0.50011491  0.00005008  1
  Mn  Mn115  1  0.50030326  0.83300735  0.75082056  1
  Mn  Mn116  1  0.75101782  0.00101404  0.12518846  1
  Mn  Mn117  1  0.74952995  0.33217523  0.87527738  1
  Mn  Mn118  1  0.75040368  0.16571344  0.87415162  1
  Mn  Mn119  1  0.49957410  0.50074596  0.74972623  1
  Mn  Mn120  1  0.75072827  0.66760321  0.37478111  1
  Mn  Mn121  1  0.24972705  0.33402164  0.87524110  1
  Mn  Mn122  1  0.24937056  0.16822916  0.62546158  1
  Mn  Mn123  1  0.50061346  0.49925055  0.25047568  1
  Mn  Mn124  1  0.25109313  0.00063504  0.37435262  1
  Mn  Mn125  1  0.24999214  -0.00060066  0.87530631  1
  Mn  Mn126  1  0.25032594  0.83277827  0.37428965  1
  Mn  Mn127  1  0.00020725  0.00040778  0.00042192  1
  Mn  Mn128  1  0.74976472  -0.00069911  0.87564258  1
  Mn  Mn129  1  0.00045706  0.33373169  0.49954618  1
  Mn  Mn130  1  0.50087290  0.00070745  0.24988073  1
  Mn  Mn131  1  -0.00029313  0.33372138  0.00055029  1
  Mn  Mn132  1  0.25009492  0.00064765  0.62464347  1
  Mn  Mn133  1  0.24973355  0.33380873  0.37450747  1
  Mn  Mn134  1  -0.00016096  0.50025537  0.74968877  1
  Mn  Mn135  1  0.50004233  0.16698444  0.49940124  1
  Mn  Mn136  1  0.00050721  0.83190874  0.25087527  1
  Mn  Mn137  1  0.25051854  0.83189181  0.87458582  1
  Mn  Mn138  1  0.75047310  0.66670944  0.87488362  1
  Mn  Mn139  1  0.25008291  0.16702292  0.87551036  1
  Mn  Mn140  1  0.49983891  0.83382004  0.25026810  1
  Mn  Mn141  1  0.00033205  -0.00002287  0.25047680  1
  Mn  Mn142  1  0.74952069  0.83425868  0.62544324  1
  Mn  Mn143  1  0.74930207  0.66670722  0.12565047  1
  Fe  Fe144  1  0.00036702  0.66671037  0.74954696  1
  Fe  Fe145  1  0.75014657  0.83447223  0.37576490  1
  Fe  Fe146  1  -0.00008063  -0.00082165  0.49985440  1
  Fe  Fe147  1  -0.00029085  0.16642087  0.25017877  1
  Fe  Fe148  1  0.50006724  0.66646472  0.50033089  1
  Fe  Fe149  1  -0.00003040  0.66595997  0.24980891  1
  Fe  Fe150  1  0.00014041  0.66642805  0.49997466  1
  Fe  Fe151  1  0.49948473  0.33290085  -0.00030700  1
  Fe  Fe152  1  0.74968439  0.50003656  0.12516351  1
  Fe  Fe153  1  0.75021681  0.83334926  0.87501742  1
  Fe  Fe154  1  0.00003511  0.50036627  0.49869444  1
  Fe  Fe155  1  0.50026368  0.83322353  0.50074286  1
  Fe  Fe156  1  0.74972792  0.16735755  0.12580863  1
  Fe  Fe157  1  0.49973613  0.16719970  0.00009345  1
  Fe  Fe158  1  0.50011855  0.33314637  0.49962470  1
  Fe  Fe159  1  0.49977887  0.16641056  0.75029760  1
  Fe  Fe160  1  0.00052660  0.83253789  0.50057692  1
  Fe  Fe161  1  0.75011162  0.16603104  0.62440330  1
  Fe  Fe162  1  0.24991843  0.33449680  0.62433860  1
  Fe  Fe163  1  -0.00037705  0.66609886  -0.00047151  1
  Fe  Fe164  1  0.49944376  0.00041779  0.50010368  1
  Fe  Fe165  1  0.49992717  0.00084864  0.00035637  1
  Fe  Fe166  1  -0.00034350  0.16726580  -0.00018210  1
  Fe  Fe167  1  0.74978424  0.33243237  0.62497214  1
  Fe  Fe168  1  0.50020856  0.49984391  0.49996108  1
  Fe  Fe169  1  0.00008456  0.33349646  0.24981513  1
  Fe  Fe170  1  0.74983201  0.33323805  0.37491842  1
  Fe  Fe171  1  0.25005050  0.49967147  0.37432585  1
  Fe  Fe172  1  0.24961964  0.16702752  0.37440119  1
  Fe  Fe173  1  0.74998513  0.00087820  0.37531200  1
  Fe  Fe174  1  0.50010645  0.66704238  0.00037755  1
  Fe  Fe175  1  0.00016048  0.33385522  0.75029205  1
  Fe  Fe176  1  0.24962018  -0.00055905  0.12531301  1
  Fe  Fe177  1  0.24992292  0.83254754  0.12480303  1
  Fe  Fe178  1  0.75028526  -0.00033943  0.62467509  1
  Fe  Fe179  1  0.24983830  0.66657970  0.62465370  1
  Fe  Fe180  1  0.25001311  0.66633824  0.87574865  1
  Fe  Fe181  1  0.49974578  0.33306118  0.24960126  1
  Fe  Fe182  1  0.50000948  0.66682054  0.74998635  1
  Fe  Fe183  1  0.24972196  0.66569154  0.12496247  1
  Fe  Fe184  1  0.49953400  0.16706643  0.24964860  1
  Fe  Fe185  1  0.00026983  -0.00050393  0.74964696  1
  Fe  Fe186  1  -0.00018210  0.83307672  0.74958167  1
  Fe  Fe187  1  0.00030614  0.50030864  0.24930754  1
  Fe  Fe188  1  0.49991583  0.83367266  0.00015253  1
  Fe  Fe189  1  -0.00082822  0.50018382  0.00004659  1
  Fe  Fe190  1  0.25004698  0.33310160  0.12540382  1
  Fe  Fe191  1  0.25010903  0.49964335  0.12492651  1
  P  P192  1  0.04155769  0.24880219  0.10338730  1
  P  P193  1  0.04141451  0.25009863  0.35127791  1
  P  P194  1  0.04287555  0.25013468  0.60340857  1
  P  P195  1  0.04214691  0.25163103  0.85292538  1
  P  P196  1  0.04086280  0.58295030  0.10191564  1
  P  P197  1  0.04169347  0.58323942  0.35148890  1
  P  P198  1  0.04125502  0.58293489  0.60120720  1
  P  P199  1  0.04207132  0.58482717  0.85257517  1
  P  P200  1  0.04283768  0.91589862  0.10322680  1
  P  P201  1  0.04295043  0.91607437  0.35416373  1
  P  P202  1  0.04135777  0.91612965  0.60208461  1
  P  P203  1  0.04154568  0.91635668  0.85128927  1
  P  P204  1  0.54100025  0.25034911  0.10211814  1
  P  P205  1  0.54132724  0.25008610  0.35134587  1
  P  P206  1  0.54216309  0.25097431  0.60222578  1
  P  P207  1  0.54193703  0.24843034  0.85295617  1
  P  P208  1  0.54215396  0.58440552  0.10256880  1
  P  P209  1  0.54253437  0.58306848  0.35446491  1
  P  P210  1  0.54162506  0.58350397  0.60178401  1
  P  P211  1  0.54177780  0.58514382  0.85292128  1
  P  P212  1  0.54130458  0.91727745  0.10162138  1
  P  P213  1  0.54250067  0.91700323  0.35438302  1
  P  P214  1  0.54128869  0.91726298  0.60187189  1
  P  P215  1  0.54250118  0.91695944  0.85456479  1
  P  P216  1  0.45810552  0.08508035  0.14674163  1
  P  P217  1  0.45764366  0.08260473  0.39712092  1
  P  P218  1  0.45806761  0.08454798  0.64731242  1
  P  P219  1  0.45842399  0.08414004  0.89851083  1
  P  P220  1  0.45792229  0.41529336  0.14716789  1
  P  P221  1  0.45865958  0.41607426  0.39807225  1
  P  P222  1  0.45745210  0.41710227  0.64574570  1
  P  P223  1  0.45717801  0.41545976  0.89763238  1
  P  P224  1  0.45768834  0.75040530  0.14618453  1
  P  P225  1  0.45858732  0.74993397  0.39912100  1
  P  P226  1  0.45831278  0.74896973  0.64712151  1
  P  P227  1  0.45837202  0.75008984  0.89879864  1
  P  P228  1  0.95767645  0.08466311  0.14758325  1
  P  P229  1  0.95797298  0.08240412  0.39758992  1
  P  P230  1  0.95824515  0.08126560  0.64718068  1
  P  P231  1  0.95794797  0.08451210  0.89723995  1
  P  P232  1  0.95883799  0.41674381  0.14823341  1
  P  P233  1  0.95839170  0.41807405  0.39615367  1
  P  P234  1  0.95794675  0.41565583  0.64702875  1
  P  P235  1  0.95745919  0.41805707  0.89753123  1
  P  P236  1  0.95793976  0.74780163  0.14744528  1
  P  P237  1  0.95921749  0.74939897  0.39852787  1
  P  P238  1  0.95889123  0.74955946  0.64752921  1
  P  P239  1  0.95801494  0.74847822  0.89653080  1
  P  P240  1  0.20769196  0.08210801  0.22759807  1
  P  P241  1  0.20777302  0.08523833  0.47702324  1
  P  P242  1  0.20686741  0.08356996  0.72823278  1
  P  P243  1  0.20727009  0.08283655  0.97885931  1
  P  P244  1  0.20870401  0.41669676  0.22664409  1
  P  P245  1  0.20750579  0.41842479  0.47712754  1
  P  P246  1  0.20711965  0.41617181  0.72718666  1
  P  P247  1  0.20720717  0.41717909  0.97942570  1
  P  P248  1  0.20855780  0.74894947  0.22617356  1
  P  P249  1  0.20762746  0.74952191  0.47803604  1
  P  P250  1  0.20788306  0.74809491  0.72748308  1
  P  P251  1  0.20785767  0.74834103  0.97843179  1
  P  P252  1  0.70774742  0.08499829  0.22814144  1
  P  P253  1  0.70791465  0.08238105  0.47830257  1
  P  P254  1  0.70871843  0.08240997  0.72597974  1
  P  P255  1  0.70739313  0.08373725  0.97876595  1
  P  P256  1  0.70750265  0.41791549  0.22763174  1
  P  P257  1  0.70800346  0.41464400  0.47767864  1
  P  P258  1  0.70696963  0.41471892  0.72687583  1
  P  P259  1  0.70681206  0.41645071  0.97851455  1
  P  P260  1  0.70710988  0.75138452  0.22915536  1
  P  P261  1  0.70822648  0.75175518  0.47756249  1
  P  P262  1  0.70716216  0.75036693  0.72860037  1
  P  P263  1  0.70792466  0.75123297  0.97759853  1
  P  P264  1  0.29212475  0.25126533  0.02299047  1
  P  P265  1  0.29176891  0.24898242  0.27197204  1
  P  P266  1  0.29186687  0.25206891  0.52192340  1
  P  P267  1  0.29276003  0.25103409  0.77159000  1
  P  P268  1  0.29117460  0.58321523  0.02328556  1
  P  P269  1  0.29227786  0.58107155  0.27149191  1
  P  P270  1  0.29214294  0.58437638  0.52216081  1
  P  P271  1  0.29211916  0.58500096  0.77256411  1
  P  P272  1  0.29108871  0.91618811  0.02361860  1
  P  P273  1  0.29310904  0.91628803  0.27060501  1
  P  P274  1  0.29309875  0.91701483  0.52164927  1
  P  P275  1  0.29332980  0.91612261  0.77199958  1
  P  P276  1  0.79246507  0.24857433  0.02300471  1
  P  P277  1  0.79187692  0.25138687  0.27253200  1
  P  P278  1  0.79150970  0.24998883  0.52314365  1
  P  P279  1  0.79263131  0.24938090  0.77067347  1
  P  P280  1  0.79204911  0.58214151  0.02280213  1
  P  P281  1  0.79287233  0.58321274  0.27143269  1
  P  P282  1  0.79306206  0.58323664  0.52154803  1
  P  P283  1  0.79301417  0.58261804  0.77156530  1
  P  P284  1  0.79349225  0.91651567  0.02188558  1
  P  P285  1  0.79218254  0.91773529  0.27423494  1
  P  P286  1  0.79211281  0.91812749  0.52187816  1
  P  P287  1  0.79229495  0.91575586  0.77241814  1
  O  O288  1  0.03618347  0.24883718  0.18325821  1
  O  O289  1  0.03680875  0.25022110  0.43128225  1
  O  O290  1  0.03770232  0.25061706  0.68331793  1
  O  O291  1  0.03662156  0.25115747  0.93284363  1
  O  O292  1  0.03596510  0.58290886  0.18178924  1
  O  O293  1  0.03679978  0.58274642  0.43133161  1
  O  O294  1  0.03644818  0.58343169  0.68110457  1
  O  O295  1  0.03647814  0.58461852  0.93235621  1
  O  O296  1  0.03785743  0.91585176  0.18315929  1
  O  O297  1  0.03774222  0.91625244  0.43405920  1
  O  O298  1  0.03636022  0.91599559  0.68199028  1
  O  O299  1  0.03675539  0.91617376  0.93125748  1
  O  O300  1  0.53561204  0.25048460  0.18198710  1
  O  O301  1  0.53629474  0.25061448  0.43127362  1
  O  O302  1  0.53702516  0.25023634  0.68205234  1
  O  O303  1  0.53653641  0.24873184  0.93281839  1
  O  O304  1  0.53743322  0.58392469  0.18257218  1
  O  O305  1  0.53703582  0.58290817  0.43435884  1
  O  O306  1  0.53665026  0.58377182  0.68176860  1
  O  O307  1  0.53642464  0.58510062  0.93284284  1
  O  O308  1  0.53667477  0.91736073  0.18164522  1
  O  O309  1  0.53698271  0.91711326  0.43423368  1
  O  O310  1  0.53670475  0.91703267  0.68190368  1
  O  O311  1  0.53712097  0.91708879  0.93441384  1
  O  O312  1  0.46336361  0.08500599  0.06687329  1
  O  O313  1  0.46298903  0.08331947  0.31723746  1
  O  O314  1  0.46316442  0.08367836  0.56737634  1
  O  O315  1  0.46332499  0.08411822  0.81853435  1
  O  O316  1  0.46306260  0.41521743  0.06725765  1
  O  O317  1  0.46379623  0.41575703  0.31809724  1
  O  O318  1  0.46314072  0.41730849  0.56588861  1
  O  O319  1  0.46229871  0.41585982  0.81769447  1
  O  O320  1  0.46307596  0.75028869  0.06630671  1
  O  O321  1  0.46331988  0.75038377  0.31912814  1
  O  O322  1  0.46388900  0.74916444  0.56729652  1
  O  O323  1  0.46331904  0.74985118  0.81881969  1
  O  O324  1  0.96280722  0.08484923  0.06763889  1
  O  O325  1  0.96308424  0.08321659  0.31764831  1
  O  O326  1  0.96365482  0.08093168  0.56729197  1
  O  O327  1  0.96343745  0.08384793  0.81736272  1
  O  O328  1  0.96324278  0.41714631  0.06827130  1
  O  O329  1  0.96397465  0.41761771  0.31632509  1
  O  O330  1  0.96307538  0.41607538  0.56714237  1
  O  O331  1  0.96266628  0.41750345  0.81764428  1
  O  O332  1  0.96315222  0.74780515  0.06752509  1
  O  O333  1  0.96359608  0.74903229  0.31858235  1
  O  O334  1  0.96402422  0.74994856  0.56766695  1
  O  O335  1  0.96322762  0.74875841  0.81666924  1
  O  O336  1  0.21245994  0.08206325  0.05883524  1
  O  O337  1  0.21316342  0.08317203  0.30751698  1
  O  O338  1  0.21276623  0.08522010  0.55701209  1
  O  O339  1  0.21192296  0.08343100  0.80821434  1
  O  O340  1  0.21278923  0.41698162  0.05932436  1
  O  O341  1  0.21343177  0.41707032  0.30664592  1
  O  O342  1  0.21249711  0.41785801  0.55706440  1
  O  O343  1  0.21211129  0.41666368  0.80715368  1
  O  O344  1  0.21327449  0.74890215  0.05829768  1
  O  O345  1  0.21317122  0.74908808  0.30617003  1
  O  O346  1  0.21277385  0.74913125  0.55798644  1
  O  O347  1  0.21309201  0.74784067  0.80746191  1
  O  O348  1  0.71240279  0.08444118  0.05871731  1
  O  O349  1  0.71300660  0.08446776  0.30809908  1
  O  O350  1  0.71319803  0.08236538  0.55814225  1
  O  O351  1  0.71329244  0.08263128  0.80598382  1
  O  O352  1  0.71213961  0.41723325  0.05847292  1
  O  O353  1  0.71276742  0.41706172  0.30755100  1
  O  O354  1  0.71329404  0.41414316  0.55758876  1
  O  O355  1  0.71183361  0.41497955  0.80691010  1
  O  O356  1  0.71288018  0.75094639  0.05759800  1
  O  O357  1  0.71260327  0.75195176  0.30908862  1
  O  O358  1  0.71303621  0.75143708  0.55754110  1
  O  O359  1  0.71248779  0.75068507  0.80853887  1
  O  O360  1  0.28645226  0.24971232  0.19207048  1
  O  O361  1  0.28657671  0.25114990  0.44198189  1
  O  O362  1  0.28749464  0.25166938  0.69160769  1
  O  O363  1  0.28733863  0.25112854  0.94302956  1
  O  O364  1  0.28695843  0.58110960  0.19160319  1
  O  O365  1  0.28738362  0.58347748  0.44222942  1
  O  O366  1  0.28682396  0.58517574  0.69261781  1
  O  O367  1  0.28605738  0.58398643  0.94332554  1
  O  O368  1  0.28744267  0.91632155  0.19070737  1
  O  O369  1  0.28828225  0.91696183  0.44165725  1
  O  O370  1  0.28841870  0.91629508  0.69201623  1
  O  O371  1  0.28655030  0.91580876  0.94359860  1
  O  O372  1  0.78683108  0.25057820  0.19262462  1
  O  O373  1  0.78671523  0.25023661  0.44313367  1
  O  O374  1  0.78757185  0.24951437  0.69074941  1
  O  O375  1  0.78756993  0.24867934  0.94300910  1
  O  O376  1  0.78732192  0.58290165  0.19151479  1
  O  O377  1  0.78801424  0.58345923  0.44157037  1
  O  O378  1  0.78809098  0.58262420  0.69158204  1
  O  O379  1  0.78701574  0.58234008  0.94281581  1
  O  O380  1  0.78760166  0.91772705  0.19418661  1
  O  O381  1  0.78687444  0.91779380  0.44199606  1
  O  O382  1  0.78699034  0.91657028  0.69249732  1
  O  O383  1  0.78815920  0.91590658  0.94194330  1
  O  O384  1  0.22776507  0.25102120  0.05816096  1
  O  O385  1  0.22753875  0.24889631  0.30770767  1
  O  O386  1  0.22763799  0.25259808  0.55768931  1
  O  O387  1  0.22837246  0.25045475  0.80678000  1
  O  O388  1  0.22706781  0.58254816  0.05926522  1
  O  O389  1  0.22798994  0.58104112  0.30724509  1
  O  O390  1  0.22774628  0.58500943  0.55752638  1
  O  O391  1  0.22779177  0.58533148  0.80814484  1
  O  O392  1  0.22691953  0.91670395  0.05922858  1
  O  O393  1  0.22894503  0.91667699  0.30639650  1
  O  O394  1  0.22862704  0.91669899  0.55650388  1
  O  O395  1  0.22876209  0.91574786  0.80661432  1
  O  O396  1  0.72803239  0.24884319  0.05820771  1
  O  O397  1  0.72756562  0.25157293  0.30806946  1
  O  O398  1  0.72730490  0.25041093  0.55879540  1
  O  O399  1  0.72826505  0.24922376  0.80603421  1
  O  O400  1  0.72769098  0.58171705  0.05824293  1
  O  O401  1  0.72863931  0.58363667  0.30689928  1
  O  O402  1  0.72859196  0.58298731  0.55640370  1
  O  O403  1  0.72851664  0.58311440  0.80634334  1
  O  O404  1  0.72908648  0.91738290  0.05697506  1
  O  O405  1  0.72783861  0.91776514  0.30960799  1
  O  O406  1  0.72786501  0.91870305  0.55768515  1
  O  O407  1  0.72804450  0.91494041  0.80820992  1
  O  O408  1  0.27188583  0.08159511  0.19181668  1
  O  O409  1  0.27216540  0.08582297  0.44173084  1
  O  O410  1  0.27135503  0.08403929  0.69341238  1
  O  O411  1  0.27170337  0.08300744  0.94379882  1
  O  O412  1  0.27289127  0.41698672  0.19096715  1
  O  O413  1  0.27186752  0.41825166  0.44166267  1
  O  O414  1  0.27146697  0.41617093  0.69176969  1
  O  O415  1  0.27136580  0.41756466  0.94365626  1
  O  O416  1  0.27275679  0.74879413  0.19073888  1
  O  O417  1  0.27197467  0.74921580  0.44279191  1
  O  O418  1  0.27219470  0.74785040  0.69192768  1
  O  O419  1  0.27206848  0.74779626  0.94237869  1
  O  O420  1  0.77208237  0.08563454  0.19258074  1
  O  O421  1  0.77204166  0.08245079  0.44223527  1
  O  O422  1  0.77295995  0.08187845  0.69045604  1
  O  O423  1  0.77178340  0.08290910  0.94368368  1
  O  O424  1  0.77178804  0.41838261  0.19196058  1
  O  O425  1  0.77226534  0.41454777  0.44200618  1
  O  O426  1  0.77149453  0.41421224  0.69185371  1
  O  O427  1  0.77119988  0.41594857  0.94334060  1
  O  O428  1  0.77147837  0.75037809  0.19399886  1
  O  O429  1  0.77261021  0.75200988  0.44236880  1
  O  O430  1  0.77156864  0.75042849  0.69348356  1
  O  O431  1  0.77221538  0.75165769  0.94204571  1
  O  O432  1  0.02200277  0.08454216  0.18326224  1
  O  O433  1  0.02229336  0.08170105  0.43322096  1
  O  O434  1  0.02240420  0.08150098  0.68326227  1
  O  O435  1  0.02209021  0.08506208  0.93345227  1
  O  O436  1  0.02307273  0.41604121  0.18394388  1
  O  O437  1  0.02248769  0.41849081  0.43252102  1
  O  O438  1  0.02218344  0.41565079  0.68297462  1
  O  O439  1  0.02165449  0.41833888  0.93349404  1
  O  O440  1  0.02228609  0.74759760  0.18319949  1
  O  O441  1  0.02341128  0.74924419  0.43424834  1
  O  O442  1  0.02286279  0.74943800  0.68410978  1
  O  O443  1  0.02219734  0.74771256  0.93269056  1
  O  O444  1  0.52223886  0.08581466  0.18301757  1
  O  O445  1  0.52187307  0.08203491  0.43307139  1
  O  O446  1  0.52236688  0.08501761  0.68314689  1
  O  O447  1  0.52256699  0.08448291  0.93453884  1
  O  O448  1  0.52219325  0.41486882  0.18300651  1
  O  O449  1  0.52275677  0.41589670  0.43432757  1
  O  O450  1  0.52150278  0.41690495  0.68198506  1
  O  O451  1  0.52149124  0.41535952  0.93325745  1
  O  O452  1  0.52190550  0.75038680  0.18204475  1
  O  O453  1  0.52278509  0.74931003  0.43491461  1
  O  O454  1  0.52236578  0.74858264  0.68362142  1
  O  O455  1  0.52256912  0.75062740  0.93482798  1
  O  O456  1  0.47700632  0.25023529  0.06542380  1
  O  O457  1  0.47713460  0.24975253  0.31521275  1
  O  O458  1  0.47790772  0.25147257  0.56631008  1
  O  O459  1  0.47775593  0.24810250  0.81672006  1
  O  O460  1  0.47773889  0.58452479  0.06726013  1
  O  O461  1  0.47838407  0.58290145  0.31845544  1
  O  O462  1  0.47748864  0.58362102  0.56563103  1
  O  O463  1  0.47754905  0.58525200  0.81691588  1
  O  O464  1  0.47711014  0.91658766  0.06585618  1
  O  O465  1  0.47837495  0.91748534  0.31828880  1
  O  O466  1  0.47710659  0.91750383  0.56607096  1
  O  O467  1  0.47834895  0.91696715  0.81858852  1
  O  O468  1  0.97746934  0.24872272  0.06699657  1
  O  O469  1  0.97715070  0.25053530  0.31562813  1
  O  O470  1  0.97855877  0.24999239  0.56792815  1
  O  O471  1  0.97804840  0.25166346  0.81668924  1
  O  O472  1  0.97682065  0.58321914  0.06540304  1
  O  O473  1  0.97754672  0.58390142  0.31533976  1
  O  O474  1  0.97715850  0.58234510  0.56502901  1
  O  O475  1  0.97799232  0.58504682  0.81616058  1
  O  O476  1  0.97847627  0.91590706  0.06799114  1
  O  O477  1  0.97864489  0.91601594  0.31852181  1
  O  O478  1  0.97735283  0.91651292  0.56559440  1
  O  O479  1  0.97737321  0.91662864  0.81532356  1
  O  O480  1  0.07270718  0.31252345  0.07571126  1
  O  O481  1  0.07255421  0.31357809  0.32311116  1
  O  O482  1  0.07416186  0.31315590  0.57458887  1
  O  O483  1  0.07262250  0.31552294  0.82481303  1
  O  O484  1  0.07198300  0.64636266  0.07349909  1
  O  O485  1  0.07304010  0.64662833  0.32327119  1
  O  O486  1  0.07166249  0.64676880  0.57266237  1
  O  O487  1  0.07321660  0.64794061  0.82356200  1
  O  O488  1  0.07370710  0.97946193  0.07515318  1
  O  O489  1  0.07416482  0.97931533  0.32551231  1
  O  O490  1  0.07271933  0.97942637  0.57366656  1
  O  O491  1  0.07247947  0.98005907  0.82343571  1
  O  O492  1  0.57177340  0.31400805  0.07359610  1
  O  O493  1  0.57211286  0.31357746  0.32271484  1
  O  O494  1  0.57295015  0.31448944  0.57377560  1
  O  O495  1  0.57297823  0.31203803  0.82491796  1
  O  O496  1  0.57281555  0.64802139  0.07424084  1
  O  O497  1  0.57362487  0.64657111  0.32628614  1
  O  O498  1  0.57295078  0.64680544  0.57352726  1
  O  O499  1  0.57276095  0.64838583  0.82418344  1
  O  O500  1  0.57133755  0.98156655  0.07374586  1
  O  O501  1  0.57408326  0.98009622  0.32579639  1
  O  O502  1  0.57218136  0.98084909  0.57382825  1
  O  O503  1  0.57375291  0.98030261  0.82605650  1
  O  O504  1  0.42745634  0.02121141  0.17468124  1
  O  O505  1  0.42660088  0.01923612  0.42550851  1
  O  O506  1  0.42691520  0.02124964  0.67584514  1
  O  O507  1  0.42823362  0.02002559  0.92687333  1
  O  O508  1  0.42666664  0.35223813  0.17601218  1
  O  O509  1  0.42739822  0.35267782  0.42620976  1
  O  O510  1  0.42600146  0.35382831  0.67385675  1
  O  O511  1  0.42651244  0.35187977  0.92594439  1
  O  O512  1  0.42650760  0.68707976  0.17479042  1
  O  O513  1  0.42726693  0.68637376  0.42663475  1
  O  O514  1  0.42730726  0.68562057  0.67582368  1
  O  O515  1  0.42783954  0.68635470  0.92724853  1
  O  O516  1  0.92672015  0.02082507  0.17522756  1
  O  O517  1  0.92707449  0.01888386  0.42581392  1
  O  O518  1  0.92739976  0.01798650  0.67607748  1
  O  O519  1  0.92695101  0.02091287  0.92530626  1
  O  O520  1  0.92765234  0.35321864  0.17631798  1
  O  O521  1  0.92732636  0.35446278  0.42428233  1
  O  O522  1  0.92759676  0.35193438  0.67571379  1
  O  O523  1  0.92618501  0.35472107  0.92579416  1
  O  O524  1  0.92687956  0.68464386  0.17621750  1
  O  O525  1  0.92805197  0.68608196  0.42709221  1
  O  O526  1  0.92777068  0.68597621  0.67553623  1
  O  O527  1  0.92660572  0.68543744  0.92535657  1
  O  O528  1  0.17684669  0.01838463  0.19970442  1
  O  O529  1  0.17722101  0.02129618  0.44935741  1
  O  O530  1  0.17629871  0.01988960  0.69982715  1
  O  O531  1  0.17591488  0.01979708  0.95004799  1
  O  O532  1  0.17857544  0.35236340  0.19884808  1
  O  O533  1  0.17604191  0.35522244  0.44874670  1
  O  O534  1  0.17657316  0.35269599  0.69856690  1
  O  O535  1  0.17604596  0.35378866  0.95107924  1
  O  O536  1  0.17761940  0.68522586  0.19827557  1
  O  O537  1  0.17620808  0.68645796  0.44937764  1
  O  O538  1  0.17665127  0.68514039  0.69835227  1
  O  O539  1  0.17673822  0.68499692  0.95003379  1
  O  O540  1  0.67688273  0.02136963  0.19999287  1
  O  O541  1  0.67707899  0.01914199  0.44915608  1
  O  O542  1  0.67740537  0.01896476  0.69814548  1
  O  O543  1  0.67619493  0.02016861  0.95088176  1
  O  O544  1  0.67641824  0.35447229  0.19932074  1
  O  O545  1  0.67698323  0.35154136  0.44850989  1
  O  O546  1  0.67603607  0.35139510  0.69837213  1
  O  O547  1  0.67583029  0.35266646  0.95089677  1
  O  O548  1  0.67555726  0.68803798  0.20124730  1
  O  O549  1  0.67727055  0.68808870  0.44976217  1
  O  O550  1  0.67638972  0.68669383  0.70034493  1
  O  O551  1  0.67714028  0.68736571  0.94996528  1
  O  O552  1  0.32246365  0.31495925  0.05165808  1
  O  O553  1  0.32310460  0.31228808  0.30019605  1
  O  O554  1  0.32239067  0.31594110  0.54997672  1
  O  O555  1  0.32378500  0.31431625  0.80018240  1
  O  O556  1  0.32185712  0.64675836  0.05200352  1
  O  O557  1  0.32341040  0.64472347  0.29944923  1
  O  O558  1  0.32294667  0.64791683  0.55053768  1
  O  O559  1  0.32339725  0.64787533  0.80168517  1
  O  O560  1  0.32226174  0.97974396  0.05143732  1
  O  O561  1  0.32468890  0.97943415  0.29899838  1
  O  O562  1  0.32376345  0.98073884  0.54970217  1
  O  O563  1  0.32412809  0.97961132  0.80047576  1
  O  O564  1  0.82364072  0.31225338  0.05062055  1
  O  O565  1  0.82234833  0.31526062  0.30066357  1
  O  O566  1  0.82316798  0.31294109  0.55162504  1
  O  O567  1  0.82359349  0.31263657  0.79973560  1
  O  O568  1  0.82270680  0.64603322  0.05053579  1
  O  O569  1  0.82413460  0.64671949  0.29936458  1
  O  O570  1  0.82387769  0.64677950  0.54978208  1
  O  O571  1  0.82427668  0.64589271  0.79987133  1
  O  O572  1  0.82481934  0.97994174  0.04996142  1
  O  O573  1  0.82280094  0.98154176  0.30227445  1
  O  O574  1  0.82323366  0.98132627  0.55074332  1
  O  O575  1  0.82314260  0.97933357  0.80067299  1
  O  O576  1  0.42675805  0.14818445  0.17558988  1
  O  O577  1  0.42672876  0.14628096  0.42516595  1
  O  O578  1  0.42743423  0.14837303  0.67534980  1
  O  O579  1  0.42686829  0.14728443  0.92669354  1
  O  O580  1  0.42737913  0.47930204  0.17492765  1
  O  O581  1  0.42820747  0.48010022  0.42606670  1
  O  O582  1  0.42622845  0.48052060  0.67416516  1
  O  O583  1  0.42610591  0.47913611  0.92543675  1
  O  O584  1  0.42654787  0.81385315  0.17447682  1
  O  O585  1  0.42840884  0.81391129  0.42760404  1
  O  O586  1  0.42726941  0.81264423  0.67515782  1
  O  O587  1  0.42726353  0.81372923  0.92675778  1
  O  O588  1  0.92679165  0.14788671  0.17664286  1
  O  O589  1  0.92701958  0.14602596  0.42582371  1
  O  O590  1  0.92709930  0.14508503  0.67444668  1
  O  O591  1  0.92709900  0.14818839  0.92535582  1
  O  O592  1  0.92851114  0.48054475  0.17691504  1
  O  O593  1  0.92729288  0.48142728  0.42469636  1
  O  O594  1  0.92653788  0.47905696  0.67492760  1
  O  O595  1  0.92677399  0.48175856  0.92578842  1
  O  O596  1  0.92714183  0.81165950  0.17537277  1
  O  O597  1  0.92888719  0.81337068  0.42695422  1
  O  O598  1  0.92820936  0.81327330  0.67624967  1
  O  O599  1  0.92742326  0.81234667  0.92477315  1
  O  O600  1  0.07250909  0.18557603  0.07429554  1
  O  O601  1  0.07172124  0.18604070  0.32334141  1
  O  O602  1  0.07376393  0.18632339  0.57564370  1
  O  O603  1  0.07368167  0.18827528  0.82513951  1
  O  O604  1  0.07139536  0.51909743  0.07344274  1
  O  O605  1  0.07202246  0.51956111  0.32217189  1
  O  O606  1  0.07238131  0.51942181  0.57311700  1
  O  O607  1  0.07319904  0.52116426  0.82455297  1
  O  O608  1  0.07384979  0.85243665  0.07503451  1
  O  O609  1  0.07414823  0.85259120  0.32588588  1
  O  O610  1  0.07182865  0.85216443  0.57360347  1
  O  O611  1  0.07201288  0.85248409  0.82297533  1
  O  O612  1  0.57224971  0.18687744  0.07398481  1
  O  O613  1  0.57213614  0.18621648  0.32360744  1
  O  O614  1  0.57317462  0.18748116  0.57388131  1
  O  O615  1  0.57284744  0.18503475  0.82405929  1
  O  O616  1  0.57308640  0.52079185  0.07453059  1
  O  O617  1  0.57393243  0.51977482  0.32607222  1
  O  O618  1  0.57210642  0.51951296  0.57370354  1
  O  O619  1  0.57267288  0.52123761  0.82525040  1
  O  O620  1  0.57273535  0.85398015  0.07363143  1
  O  O621  1  0.57333716  0.85338630  0.32605632  1
  O  O622  1  0.57167207  0.85320211  0.57376167  1
  O  O623  1  0.57371403  0.85364643  0.82608532  1
  O  O624  1  0.32345102  0.18774020  0.05071497  1
  O  O625  1  0.32234118  0.18519369  0.30021127  1
  O  O626  1  0.32315390  0.18874339  0.55032467  1
  O  O627  1  0.32381894  0.18737856  0.79962825  1
  O  O628  1  0.32243919  0.51954027  0.05088499  1
  O  O629  1  0.32312282  0.51777185  0.30070897  1
  O  O630  1  0.32301570  0.52091912  0.55086684  1
  O  O631  1  0.32270151  0.52083996  0.80018234  1
  O  O632  1  0.32127044  0.85208627  0.05190736  1
  O  O633  1  0.32405582  0.85262944  0.29894055  1
  O  O634  1  0.32427421  0.85363947  0.54990477  1
  O  O635  1  0.32444421  0.85263082  0.80019727  1
  O  O636  1  0.82287073  0.18506513  0.05192364  1
  O  O637  1  0.82325703  0.18825431  0.30123543  1
  O  O638  1  0.82144176  0.18554615  0.55126130  1
  O  O639  1  0.82385019  0.18588153  0.79895803  1
  O  O640  1  0.82297974  0.51868520  0.05128830  1
  O  O641  1  0.82403609  0.51988459  0.29979680  1
  O  O642  1  0.82411177  0.51961394  0.54935604  1
  O  O643  1  0.82362422  0.51882929  0.79962788  1
  O  O644  1  0.82444836  0.85318095  0.05066267  1
  O  O645  1  0.82284124  0.85388287  0.30242695  1
  O  O646  1  0.82300406  0.85446709  0.55028397  1
  O  O647  1  0.82327835  0.85217585  0.80055770  1
  O  O648  1  0.17643875  0.14549913  0.19932653  1
  O  O649  1  0.17673278  0.14862586  0.44843410  1
  O  O650  1  0.17547623  0.14687734  0.70017630  1
  O  O651  1  0.17654919  0.14681020  0.95124072  1
  O  O652  1  0.17720288  0.47975870  0.19801270  1
  O  O653  1  0.17725718  0.48223866  0.44843549  1
  O  O654  1  0.17605528  0.47992019  0.69942128  1
  O  O655  1  0.17583799  0.48048380  0.95093267  1
  O  O656  1  0.17798040  0.81277662  0.19787428  1
  O  O657  1  0.17689567  0.81330853  0.45000966  1
  O  O658  1  0.17720154  0.81222154  0.70000172  1
  O  O659  1  0.17697271  0.81196468  0.94981430  1
  O  O660  1  0.67690894  0.14858611  0.19973686  1
  O  O661  1  0.67663516  0.14603541  0.45037184  1
  O  O662  1  0.67858758  0.14642669  0.69734446  1
  O  O663  1  0.67652012  0.14693617  0.94961776  1
  O  O664  1  0.67663260  0.48155517  0.19946311  1
  O  O665  1  0.67713632  0.47867717  0.45039568  1
  O  O666  1  0.67642942  0.47871188  0.69895535  1
  O  O667  1  0.67560966  0.47957690  0.94963033  1
  O  O668  1  0.67634988  0.81489317  0.20049496  1
  O  O669  1  0.67747939  0.81543295  0.44937723  1
  O  O670  1  0.67567413  0.81352164  0.70012298  1
  O  O671  1  0.67708751  0.81474588  0.94925364  1
