# generated using pymatgen
data_Na2MnFe(PO4)2
_symmetry_space_group_name_H-M   'P 1'
_cell_length_a   22.34178716
_cell_length_b   20.09478325
_cell_length_c   19.45094248
_cell_angle_alpha   89.97386534
_cell_angle_beta   90.03021907
_cell_angle_gamma   89.97227207
_symmetry_Int_Tables_number   1
_chemical_formula_structural   Na2MnFe(PO4)2
_chemical_formula_sum   'Na96 Mn48 Fe48 P96 O384'
_cell_volume   8732.56303942
_cell_formula_units_Z   48
loop_
 _symmetry_equiv_pos_site_id
 _symmetry_equiv_pos_as_xyz
  1  'x, y, z'
loop_
 _atom_site_type_symbol
 _atom_site_label
 _atom_site_symmetry_multiplicity
 _atom_site_fract_x
 _atom_site_fract_y
 _atom_site_fract_z
 _atom_site_occupancy
  Na  Na0  1  0.14006157  0.25015969  0.24410275  1
  Na  Na1  1  0.14039835  0.24951288  0.49450831  1
  Na  Na2  1  0.13996382  0.24911214  0.74290359  1
  Na  Na3  1  0.13944070  0.24976293  0.99234411  1
  Na  Na4  1  0.14016519  0.58153935  0.24361880  1
  Na  Na5  1  0.14016799  0.58335084  0.49338819  1
  Na  Na6  1  0.13981029  0.58426116  0.74133685  1
  Na  Na7  1  0.13972534  0.58438159  0.99333558  1
  Na  Na8  1  0.13983335  0.91481982  0.24394578  1
  Na  Na9  1  0.13978277  0.91652845  0.49382369  1
  Na  Na10  1  0.14069424  0.91784852  0.74175634  1
  Na  Na11  1  0.14048272  0.91771800  0.99339820  1
  Na  Na12  1  0.64046609  0.25005241  0.24433198  1
  Na  Na13  1  0.64073582  0.24942561  0.49479319  1
  Na  Na14  1  0.64009685  0.25016504  0.74558637  1
  Na  Na15  1  0.64002522  0.25117307  0.99295641  1
  Na  Na16  1  0.64034794  0.58259321  0.24386876  1
  Na  Na17  1  0.63997108  0.58329439  0.49380062  1
  Na  Na18  1  0.63993722  0.58317999  0.74408159  1
  Na  Na19  1  0.64009321  0.58498691  0.99316585  1
  Na  Na20  1  0.64034149  0.91661922  0.24362465  1
  Na  Na21  1  0.64075300  0.91726386  0.49443989  1
  Na  Na22  1  0.64082196  0.91601608  0.74460502  1
  Na  Na23  1  0.64089393  0.91822889  0.99294428  1
  Na  Na24  1  0.36006385  0.08384854  0.00618521  1
  Na  Na25  1  0.35967170  0.08258434  0.25572295  1
  Na  Na26  1  0.35923450  0.08264745  0.50627905  1
  Na  Na27  1  0.35938491  0.08331722  0.75667064  1
  Na  Na28  1  0.35940927  0.41726814  0.00639591  1
  Na  Na29  1  0.35919764  0.41620058  0.25518572  1
  Na  Na30  1  0.35918598  0.41687110  0.50640454  1
  Na  Na31  1  0.35948116  0.41637440  0.75645305  1
  Na  Na32  1  0.35951433  0.74980655  0.00545103  1
  Na  Na33  1  0.35944008  0.74820945  0.25625737  1
  Na  Na34  1  0.35927217  0.74985183  0.50768430  1
  Na  Na35  1  0.36006729  0.75067692  0.75560473  1
  Na  Na36  1  0.86042565  0.08472158  0.00573883  1
  Na  Na37  1  0.85997612  0.08370785  0.25727623  1
  Na  Na38  1  0.86051622  0.08368427  0.50721575  1
  Na  Na39  1  0.86035405  0.08309852  0.75736585  1
  Na  Na40  1  0.85985054  0.41783352  0.00629137  1
  Na  Na41  1  0.85964792  0.41608329  0.25594135  1
  Na  Na42  1  0.85928580  0.41566615  0.50650451  1
  Na  Na43  1  0.86029942  0.41587059  0.75732254  1
  Na  Na44  1  0.86012365  0.75074193  0.00568472  1
  Na  Na45  1  0.85992125  0.74971808  0.25582424  1
  Na  Na46  1  0.86054712  0.74962223  0.50696439  1
  Na  Na47  1  0.86017065  0.74890330  0.75647417  1
  Na  Na48  1  0.10904236  0.08388071  0.11839083  1
  Na  Na49  1  0.10925795  0.08208316  0.37024066  1
  Na  Na50  1  0.10984240  0.08241258  0.61862782  1
  Na  Na51  1  0.11014902  0.08440891  0.86692682  1
  Na  Na52  1  0.10911041  0.41650200  0.11830735  1
  Na  Na53  1  0.10990238  0.41656292  0.36838082  1
  Na  Na54  1  0.10925600  0.41705147  0.61831673  1
  Na  Na55  1  0.10882023  0.41632919  0.86756633  1
  Na  Na56  1  0.10968010  0.75015962  0.11921474  1
  Na  Na57  1  0.10976504  0.75025254  0.36917744  1
  Na  Na58  1  0.10963411  0.75042533  0.61697638  1
  Na  Na59  1  0.10933356  0.74944784  0.86741548  1
  Na  Na60  1  0.60902662  0.08405171  0.11830424  1
  Na  Na61  1  0.60983314  0.08368467  0.36924618  1
  Na  Na62  1  0.61019690  0.08361309  0.62011558  1
  Na  Na63  1  0.61014880  0.08376737  0.86853701  1
  Na  Na64  1  0.60967320  0.41671120  0.11750197  1
  Na  Na65  1  0.60947038  0.41695699  0.36948231  1
  Na  Na66  1  0.60931416  0.41673933  0.61957307  1
  Na  Na67  1  0.60920489  0.41797234  0.86988031  1
  Na  Na68  1  0.60945485  0.75033744  0.11782366  1
  Na  Na69  1  0.60936962  0.74996166  0.36942862  1
  Na  Na70  1  0.61006294  0.74861302  0.61939801  1
  Na  Na71  1  0.60963317  0.74964947  0.86868527  1
  Na  Na72  1  0.38991340  0.24981064  0.13026125  1
  Na  Na73  1  0.39002470  0.25089235  0.38119004  1
  Na  Na74  1  0.39013767  0.24983755  0.63151852  1
  Na  Na75  1  0.39042978  0.25024534  0.88245981  1
  Na  Na76  1  0.39023008  0.58353775  0.13026504  1
  Na  Na77  1  0.38990715  0.58300929  0.38228815  1
  Na  Na78  1  0.39005795  0.58310992  0.63142519  1
  Na  Na79  1  0.39017200  0.58331111  0.88062774  1
  Na  Na80  1  0.39033183  0.91706406  0.13030562  1
  Na  Na81  1  0.39029836  0.91577335  0.38151996  1
  Na  Na82  1  0.39009557  0.91547760  0.63221601  1
  Na  Na83  1  0.39028236  0.91659037  0.88087972  1
  Na  Na84  1  0.89022633  0.25044200  0.13146933  1
  Na  Na85  1  0.89007122  0.24917579  0.38227114  1
  Na  Na86  1  0.89082296  0.24866026  0.63217960  1
  Na  Na87  1  0.89075725  0.24984974  0.88165196  1
  Na  Na88  1  0.89050101  0.58485899  0.13118069  1
  Na  Na89  1  0.89061517  0.58362403  0.38118661  1
  Na  Na90  1  0.89075463  0.58309028  0.63199147  1
  Na  Na91  1  0.89069103  0.58226918  0.88089547  1
  Na  Na92  1  0.89095409  0.91705253  0.13055818  1
  Na  Na93  1  0.89163137  0.91664032  0.38153389  1
  Na  Na94  1  0.89095435  0.91673710  0.63184671  1
  Na  Na95  1  0.89061020  0.91744243  0.88134571  1
  Mn  Mn96  1  0.75089348  0.83321969  0.12432815  1
  Mn  Mn97  1  0.24937583  0.49958637  0.12502294  1
  Mn  Mn98  1  0.74991247  0.50037078  0.12551090  1
  Mn  Mn99  1  0.75071941  0.00094977  0.62527788  1
  Mn  Mn100  1  0.49980850  0.16625371  0.24986130  1
  Mn  Mn101  1  0.50077622  0.83232677  0.50057693  1
  Mn  Mn102  1  0.50054923  0.33423143  0.50044819  1
  Mn  Mn103  1  0.75069878  0.49874820  0.37450064  1
  Mn  Mn104  1  0.00044646  0.33368875  0.25022391  1
  Mn  Mn105  1  0.49977806  0.50051989  0.24938489  1
  Mn  Mn106  1  0.50036118  0.66666697  0.24988164  1
  Mn  Mn107  1  0.49965139  0.49994680  0.75047237  1
  Mn  Mn108  1  0.49961229  0.16689260  0.50017577  1
  Mn  Mn109  1  0.75009825  0.33405567  0.87504278  1
  Mn  Mn110  1  0.24941035  0.16669556  0.37509358  1
  Mn  Mn111  1  0.75081829  0.83282993  0.62512970  1
  Mn  Mn112  1  -0.00059347  0.50030929  0.50015283  1
  Mn  Mn113  1  0.75038863  0.00076389  0.12468084  1
  Mn  Mn114  1  0.00013191  0.83312633  0.74962974  1
  Mn  Mn115  1  0.00044098  0.66727656  0.25026542  1
  Mn  Mn116  1  0.75020526  0.66636996  0.37515094  1
  Mn  Mn117  1  0.24989876  0.33317223  0.62487239  1
  Mn  Mn118  1  -0.00044093  0.33273750  0.50018767  1
  Mn  Mn119  1  0.24955948  0.50059430  0.87495061  1
  Mn  Mn120  1  0.00036069  0.50013350  -0.00104845  1
  Mn  Mn121  1  0.24892072  0.16756788  0.12554236  1
  Mn  Mn122  1  0.49972761  0.16736582  0.75060628  1
  Mn  Mn123  1  0.25054190  0.83210004  0.12416558  1
  Mn  Mn124  1  0.49919256  0.83426117  0.24914995  1
  Mn  Mn125  1  0.24956818  -0.00146867  0.37591575  1
  Mn  Mn126  1  0.74956776  0.49978623  0.62507953  1
  Mn  Mn127  1  0.49989649  -0.00070296  0.75016535  1
  Mn  Mn128  1  0.24959580  0.66731051  0.87354798  1
  Mn  Mn129  1  0.75007569  0.33216393  0.62640648  1
  Mn  Mn130  1  0.75003400  0.83300114  0.37484025  1
  Mn  Mn131  1  0.24907959  0.83435022  0.87459469  1
  Mn  Mn132  1  0.49979242  0.33366318  0.24936806  1
  Mn  Mn133  1  0.00030659  0.16599538  0.25070515  1
  Mn  Mn134  1  0.24963993  -0.00005965  0.12483246  1
  Mn  Mn135  1  0.49999514  0.83314140  0.00001506  1
  Mn  Mn136  1  0.75079778  0.00084684  0.37517726  1
  Mn  Mn137  1  0.24887341  0.33277713  0.87445507  1
  Mn  Mn138  1  0.00102927  0.83314159  -0.00030589  1
  Mn  Mn139  1  0.49996008  -0.00041077  0.50046822  1
  Mn  Mn140  1  0.74946400  0.16797942  0.12556081  1
  Mn  Mn141  1  0.24990044  0.66605229  0.37553768  1
  Mn  Mn142  1  0.00098401  0.00110477  0.00038992  1
  Mn  Mn143  1  0.75042361  0.66683153  0.87519561  1
  Fe  Fe144  1  0.49981174  0.00020922  0.24982100  1
  Fe  Fe145  1  0.25053847  0.16633932  0.62476386  1
  Fe  Fe146  1  0.25042139  0.16664432  0.87441747  1
  Fe  Fe147  1  -0.00001639  -0.00018570  0.25049863  1
  Fe  Fe148  1  0.25034638  0.00082003  0.87376995  1
  Fe  Fe149  1  0.00000914  0.83352415  0.49983522  1
  Fe  Fe150  1  0.00023785  0.16626742  0.75014051  1
  Fe  Fe151  1  0.25007804  0.83404971  0.62508093  1
  Fe  Fe152  1  0.50052590  -0.00025857  -0.00021500  1
  Fe  Fe153  1  0.74986106  0.66707597  0.12426072  1
  Fe  Fe154  1  -0.00004912  -0.00030899  0.50031978  1
  Fe  Fe155  1  0.25008855  0.33308229  0.37530524  1
  Fe  Fe156  1  0.75014124  0.33358848  0.12527229  1
  Fe  Fe157  1  0.25009026  0.83267359  0.37544726  1
  Fe  Fe158  1  0.74983140  0.33257992  0.37579836  1
  Fe  Fe159  1  0.49905690  0.66664810  -0.00074635  1
  Fe  Fe160  1  0.00001116  0.49967975  0.75008364  1
  Fe  Fe161  1  0.75011657  0.66611626  0.62558826  1
  Fe  Fe162  1  0.49965605  0.66629441  0.50037616  1
  Fe  Fe163  1  0.24989477  0.49934515  0.37467618  1
  Fe  Fe164  1  0.24985276  0.66696386  0.62404993  1
  Fe  Fe165  1  -0.00037254  0.50042551  0.24954917  1
  Fe  Fe166  1  0.49975854  0.33383673  0.75078433  1
  Fe  Fe167  1  0.50036284  0.66616554  0.75005595  1
  Fe  Fe168  1  0.24952791  0.49980537  0.62451940  1
  Fe  Fe169  1  0.49990898  0.50037368  -0.00092259  1
  Fe  Fe170  1  0.00051157  -0.00006765  0.74964505  1
  Fe  Fe171  1  0.75023720  0.83352076  0.87508624  1
  Fe  Fe172  1  0.75007703  0.50063751  0.87550719  1
  Fe  Fe173  1  0.75060040  0.16739412  0.87544354  1
  Fe  Fe174  1  0.00011459  0.16723796  -0.00097103  1
  Fe  Fe175  1  0.50024567  0.16647699  0.00017184  1
  Fe  Fe176  1  0.75042934  0.00078269  0.87471766  1
  Fe  Fe177  1  0.75039808  0.16659684  0.62554846  1
  Fe  Fe178  1  0.25047621  0.00017244  0.62478551  1
  Fe  Fe179  1  -0.00015020  0.66672980  -0.00022421  1
  Fe  Fe180  1  0.24905160  0.33327368  0.12472761  1
  Fe  Fe181  1  -0.00035435  0.33332746  -0.00072596  1
  Fe  Fe182  1  -0.00015944  0.83362695  0.25029799  1
  Fe  Fe183  1  0.00006810  0.33248170  0.74966200  1
  Fe  Fe184  1  0.00046032  0.66668772  0.49974710  1
  Fe  Fe185  1  0.00043363  0.16585563  0.50116748  1
  Fe  Fe186  1  0.50059061  0.83235130  0.75074241  1
  Fe  Fe187  1  0.24946942  0.66585130  0.12539805  1
  Fe  Fe188  1  0.74987392  0.16702150  0.37549154  1
  Fe  Fe189  1  0.49945950  0.50024778  0.50048861  1
  Fe  Fe190  1  0.00013140  0.66645394  0.74908121  1
  Fe  Fe191  1  0.49937779  0.33364316  -0.00014073  1
  P  P192  1  0.04098734  0.24999614  0.10115004  1
  P  P193  1  0.04263232  0.24937690  0.35402628  1
  P  P194  1  0.04194473  0.24844491  0.60354515  1
  P  P195  1  0.04136075  0.24991877  0.85174908  1
  P  P196  1  0.04202684  0.58449178  0.10221089  1
  P  P197  1  0.04218890  0.58235203  0.35247193  1
  P  P198  1  0.04207211  0.58466455  0.60276307  1
  P  P199  1  0.04148069  0.58359086  0.85101500  1
  P  P200  1  0.04315208  0.91684143  0.10387520  1
  P  P201  1  0.04147254  0.91645669  0.35255781  1
  P  P202  1  0.04102869  0.91676252  0.60180678  1
  P  P203  1  0.04277442  0.91787304  0.85185762  1
  P  P204  1  0.54115090  0.25027881  0.10118439  1
  P  P205  1  0.54265052  0.25044428  0.35295955  1
  P  P206  1  0.54270299  0.25043086  0.60415124  1
  P  P207  1  0.54159006  0.25191372  0.85398028  1
  P  P208  1  0.54146848  0.58354837  0.10070020  1
  P  P209  1  0.54244344  0.58324576  0.35397625  1
  P  P210  1  0.54138148  0.58338331  0.60217337  1
  P  P211  1  0.54181964  0.58440636  0.85314669  1
  P  P212  1  0.54260425  0.91826274  0.10247355  1
  P  P213  1  0.54233862  0.91766660  0.35227857  1
  P  P214  1  0.54303729  0.91567191  0.60421034  1
  P  P215  1  0.54214985  0.91534649  0.85308825  1
  P  P216  1  0.45776764  0.08199904  0.14644489  1
  P  P217  1  0.45677591  0.08292670  0.39661507  1
  P  P218  1  0.45701745  0.08323476  0.64743211  1
  P  P219  1  0.45912461  0.08313727  0.89857525  1
  P  P220  1  0.45741319  0.41695535  0.14525530  1
  P  P221  1  0.45726514  0.41824469  0.39780315  1
  P  P222  1  0.45751060  0.41600345  0.64778667  1
  P  P223  1  0.45779368  0.41673724  0.89810161  1
  P  P224  1  0.45689483  0.74975552  0.14605382  1
  P  P225  1  0.45720366  0.74872437  0.39807741  1
  P  P226  1  0.45910512  0.74899274  0.64847561  1
  P  P227  1  0.45777092  0.74891432  0.89650663  1
  P  P228  1  0.95784039  0.08242944  0.14787803  1
  P  P229  1  0.95871909  0.08282338  0.39897532  1
  P  P230  1  0.95907495  0.08295103  0.64810491  1
  P  P231  1  0.95871670  0.08473754  0.89662423  1
  P  P232  1  0.95787252  0.41797823  0.14702779  1
  P  P233  1  0.95707783  0.41680995  0.39664995  1
  P  P234  1  0.95854381  0.41625311  0.64870916  1
  P  P235  1  0.95802921  0.41518204  0.89646664  1
  P  P236  1  0.95797850  0.75137684  0.14745448  1
  P  P237  1  0.95899005  0.75025112  0.39827602  1
  P  P238  1  0.95825586  0.74879733  0.64664038  1
  P  P239  1  0.95827898  0.74849608  0.89679426  1
  P  P240  1  0.20652746  0.08293892  0.22826722  1
  P  P241  1  0.20746958  0.08294256  0.47928919  1
  P  P242  1  0.20911930  0.08341068  0.72672956  1
  P  P243  1  0.20864120  0.08378309  0.97576617  1
  P  P244  1  0.20720879  0.41488646  0.22800605  1
  P  P245  1  0.20839100  0.41675183  0.47677313  1
  P  P246  1  0.20731763  0.41766907  0.72692996  1
  P  P247  1  0.20646584  0.41652955  0.97807132  1
  P  P248  1  0.20782885  0.74811058  0.22784187  1
  P  P249  1  0.20819755  0.75120939  0.47845746  1
  P  P250  1  0.20843693  0.75069680  0.72547056  1
  P  P251  1  0.20678674  0.74990525  0.97773513  1
  P  P252  1  0.70715741  0.08406341  0.22858941  1
  P  P253  1  0.70815585  0.08501158  0.47816853  1
  P  P254  1  0.70856329  0.08491705  0.72882322  1
  P  P255  1  0.70893700  0.08437873  0.97641974  1
  P  P256  1  0.70752324  0.41482903  0.22784302  1
  P  P257  1  0.70767494  0.41501845  0.47778202  1
  P  P258  1  0.70730903  0.41679773  0.72910556  1
  P  P259  1  0.70796931  0.41850298  0.97792769  1
  P  P260  1  0.70747524  0.74877814  0.22692290  1
  P  P261  1  0.70736280  0.74966276  0.47884619  1
  P  P262  1  0.70852526  0.74876681  0.72814971  1
  P  P263  1  0.70787372  0.75152117  0.97742865  1
  P  P264  1  0.29135898  0.25100461  0.02206227  1
  P  P265  1  0.29187149  0.25149240  0.27238362  1
  P  P266  1  0.29223693  0.24913124  0.52230586  1
  P  P267  1  0.29213584  0.24848698  0.77190953  1
  P  P268  1  0.29179057  0.58450805  0.02249724  1
  P  P269  1  0.29188178  0.58155592  0.27251631  1
  P  P270  1  0.29096076  0.58270619  0.52301072  1
  P  P271  1  0.29208613  0.58351959  0.77019576  1
  P  P272  1  0.29257617  0.91735900  0.02092734  1
  P  P273  1  0.29211166  0.91449707  0.27283152  1
  P  P274  1  0.29156300  0.91624621  0.52344195  1
  P  P275  1  0.29185226  0.91815472  0.77134536  1
  P  P276  1  0.79198591  0.25172503  0.02251423  1
  P  P277  1  0.79159523  0.25043778  0.27373895  1
  P  P278  1  0.79258089  0.24842641  0.52264591  1
  P  P279  1  0.79274973  0.24865285  0.77286535  1
  P  P280  1  0.79234699  0.58471002  0.02229097  1
  P  P281  1  0.79302394  0.58323964  0.27133162  1
  P  P282  1  0.79249576  0.58406150  0.52291773  1
  P  P283  1  0.79225630  0.58215048  0.77245199  1
  P  P284  1  0.79309441  0.91747489  0.02053488  1
  P  P285  1  0.79334866  0.91662844  0.27193539  1
  P  P286  1  0.79352915  0.91707173  0.52227404  1
  P  P287  1  0.79176964  0.91658118  0.77359694  1
  O  O288  1  0.03643340  0.25015616  0.18114872  1
  O  O289  1  0.03741321  0.24883090  0.43393397  1
  O  O290  1  0.03636041  0.24894885  0.68340812  1
  O  O291  1  0.03641373  0.24989646  0.93165013  1
  O  O292  1  0.03673130  0.58381702  0.18210635  1
  O  O293  1  0.03707883  0.58275490  0.43239172  1
  O  O294  1  0.03693680  0.58454481  0.68262091  1
  O  O295  1  0.03677825  0.58367562  0.93099325  1
  O  O296  1  0.03754159  0.91678156  0.18375034  1
  O  O297  1  0.03584131  0.91644622  0.43242505  1
  O  O298  1  0.03645434  0.91691522  0.68176038  1
  O  O299  1  0.03803792  0.91757900  0.93180472  1
  O  O300  1  0.53642636  0.24981593  0.18117235  1
  O  O301  1  0.53777050  0.25046158  0.43292846  1
  O  O302  1  0.53731545  0.25097990  0.68411232  1
  O  O303  1  0.53589638  0.25159499  0.93384747  1
  O  O304  1  0.53677013  0.58354035  0.18072735  1
  O  O305  1  0.53716250  0.58306625  0.43388970  1
  O  O306  1  0.53645044  0.58360577  0.68216853  1
  O  O307  1  0.53631469  0.58424621  0.93295646  1
  O  O308  1  0.53723573  0.91850154  0.18240789  1
  O  O309  1  0.53748077  0.91696482  0.43229943  1
  O  O310  1  0.53775471  0.91501934  0.68415821  1
  O  O311  1  0.53685559  0.91598240  0.93301431  1
  O  O312  1  0.46360127  0.08218475  0.06658868  1
  O  O313  1  0.46178074  0.08250713  0.31659479  1
  O  O314  1  0.46194878  0.08327423  0.56748883  1
  O  O315  1  0.46369438  0.08354339  0.81861194  1
  O  O316  1  0.46278858  0.41700089  0.06535177  1
  O  O317  1  0.46215342  0.41792176  0.31781754  1
  O  O318  1  0.46283194  0.41696848  0.56789131  1
  O  O319  1  0.46296191  0.41612673  0.81812943  1
  O  O320  1  0.46208087  0.74934185  0.06609668  1
  O  O321  1  0.46196161  0.74927234  0.31809592  1
  O  O322  1  0.46406741  0.74881227  0.56850885  1
  O  O323  1  0.46342907  0.74919487  0.81663344  1
  O  O324  1  0.96308510  0.08339488  0.06799940  1
  O  O325  1  0.96373451  0.08225374  0.31904883  1
  O  O326  1  0.96404055  0.08327609  0.56823573  1
  O  O327  1  0.96401059  0.08430932  0.81678108  1
  O  O328  1  0.96309332  0.41755124  0.06709448  1
  O  O329  1  0.96236349  0.41724561  0.31673309  1
  O  O330  1  0.96321711  0.41666561  0.56872129  1
  O  O331  1  0.96309675  0.41489125  0.81661832  1
  O  O332  1  0.96328139  0.75070814  0.06755653  1
  O  O333  1  0.96397300  0.75106065  0.31834407  1
  O  O334  1  0.96359672  0.74906128  0.56680517  1
  O  O335  1  0.96358518  0.74835248  0.81685319  1
  O  O336  1  0.21299265  0.08395383  0.05579710  1
  O  O337  1  0.21158165  0.08284931  0.30819765  1
  O  O338  1  0.21330393  0.08306613  0.55915049  1
  O  O339  1  0.21443444  0.08331707  0.80666480  1
  O  O340  1  0.21153904  0.41608447  0.05804307  1
  O  O341  1  0.21279085  0.41511191  0.30785990  1
  O  O342  1  0.21369683  0.41713681  0.55673716  1
  O  O343  1  0.21215731  0.41740020  0.80688548  1
  O  O344  1  0.21209075  0.74906135  0.05765806  1
  O  O345  1  0.21310893  0.74869864  0.30778402  1
  O  O346  1  0.21361962  0.75131349  0.55830235  1
  O  O347  1  0.21271580  0.75063929  0.80548666  1
  O  O348  1  0.71335877  0.08414824  0.05643463  1
  O  O349  1  0.71228383  0.08457186  0.30855121  1
  O  O350  1  0.71328926  0.08508200  0.55815065  1
  O  O351  1  0.71414982  0.08474525  0.80868686  1
  O  O352  1  0.71320347  0.41777162  0.05782217  1
  O  O353  1  0.71282206  0.41458665  0.30779510  1
  O  O354  1  0.71279848  0.41528375  0.55774528  1
  O  O355  1  0.71257030  0.41775060  0.80901393  1
  O  O356  1  0.71300590  0.75073234  0.05734200  1
  O  O357  1  0.71241479  0.74895299  0.30693470  1
  O  O358  1  0.71261090  0.74922180  0.55880135  1
  O  O359  1  0.71389226  0.74952428  0.80807014  1
  O  O360  1  0.28637966  0.25173864  0.19243058  1
  O  O361  1  0.28681269  0.24992852  0.44239614  1
  O  O362  1  0.28720351  0.24823824  0.69194652  1
  O  O363  1  0.28633042  0.25017580  0.94209916  1
  O  O364  1  0.28646141  0.58239745  0.19261025  1
  O  O365  1  0.28624088  0.58242366  0.44302342  1
  O  O366  1  0.28681876  0.58315987  0.69029482  1
  O  O367  1  0.28684925  0.58442217  0.94251543  1
  O  O368  1  0.28699605  0.91476295  0.19287301  1
  O  O369  1  0.28647149  0.91543893  0.44350616  1
  O  O370  1  0.28662881  0.91791376  0.69141148  1
  O  O371  1  0.28714692  0.91819421  0.94098359  1
  O  O372  1  0.78657052  0.25098584  0.19374410  1
  O  O373  1  0.78706148  0.24878977  0.44276940  1
  O  O374  1  0.78758710  0.24837798  0.69296007  1
  O  O375  1  0.78682367  0.25107462  0.94261832  1
  O  O376  1  0.78760494  0.58393749  0.19140201  1
  O  O377  1  0.78778605  0.58357756  0.44291533  1
  O  O378  1  0.78691971  0.58275761  0.69253872  1
  O  O379  1  0.78710524  0.58392215  0.94233862  1
  O  O380  1  0.78837536  0.91671940  0.19193887  1
  O  O381  1  0.78860024  0.91710223  0.44233270  1
  O  O382  1  0.78705838  0.91689244  0.69360525  1
  O  O383  1  0.78764645  0.91736937  0.94063140  1
  O  O384  1  0.22700769  0.25174489  0.05767672  1
  O  O385  1  0.22765508  0.25156602  0.30823927  1
  O  O386  1  0.22805249  0.24876129  0.55817533  1
  O  O387  1  0.22771401  0.24807092  0.80719392  1
  O  O388  1  0.22744829  0.58461874  0.05792200  1
  O  O389  1  0.22770920  0.58141060  0.30850640  1
  O  O390  1  0.22679768  0.58245910  0.55879440  1
  O  O391  1  0.22774750  0.58344765  0.80567248  1
  O  O392  1  0.22836364  0.91640796  0.05651897  1
  O  O393  1  0.22775347  0.91412426  0.30834883  1
  O  O394  1  0.22738369  0.91660146  0.55936477  1
  O  O395  1  0.22765046  0.91872818  0.80724043  1
  O  O396  1  0.72765165  0.25225646  0.05812278  1
  O  O397  1  0.72741501  0.25030732  0.30974495  1
  O  O398  1  0.72839919  0.24802279  0.55880863  1
  O  O399  1  0.72845253  0.24885053  0.80846704  1
  O  O400  1  0.72804606  0.58495060  0.05796239  1
  O  O401  1  0.72873717  0.58271429  0.30674629  1
  O  O402  1  0.72800740  0.58447252  0.55797831  1
  O  O403  1  0.72804237  0.58204251  0.80829285  1
  O  O404  1  0.72890955  0.91718823  0.05637069  1
  O  O405  1  0.72886099  0.91707667  0.30683359  1
  O  O406  1  0.72910494  0.91698390  0.55725257  1
  O  O407  1  0.72761804  0.91607309  0.80937299  1
  O  O408  1  0.27096363  0.08358326  0.19325495  1
  O  O409  1  0.27147022  0.08283838  0.44310761  1
  O  O410  1  0.27312178  0.08320913  0.69033111  1
  O  O411  1  0.27300937  0.08367961  0.94038422  1
  O  O412  1  0.27126764  0.41451101  0.19158214  1
  O  O413  1  0.27245900  0.41684187  0.44052829  1
  O  O414  1  0.27172130  0.41783351  0.69172839  1
  O  O415  1  0.27085558  0.41639856  0.94289482  1
  O  O416  1  0.27204789  0.74743933  0.19194697  1
  O  O417  1  0.27226875  0.75105967  0.44222287  1
  O  O418  1  0.27281814  0.75100055  0.69032068  1
  O  O419  1  0.27112691  0.75058265  0.94243858  1
  O  O420  1  0.77159691  0.08433054  0.19350436  1
  O  O421  1  0.77245336  0.08518158  0.44252719  1
  O  O422  1  0.77267790  0.08537960  0.69252000  1
  O  O423  1  0.77323298  0.08469533  0.94101411  1
  O  O424  1  0.77184531  0.41524907  0.19219776  1
  O  O425  1  0.77202462  0.41443443  0.44227021  1
  O  O426  1  0.77162174  0.41655730  0.69379675  1
  O  O427  1  0.77221365  0.41867836  0.94211762  1
  O  O428  1  0.77196415  0.74825061  0.19173137  1
  O  O429  1  0.77181425  0.74993033  0.44372863  1
  O  O430  1  0.77270603  0.74810198  0.69227057  1
  O  O431  1  0.77220714  0.75188347  0.94192506  1
  O  O432  1  0.02211121  0.08155451  0.18371769  1
  O  O433  1  0.02282646  0.08307102  0.43516109  1
  O  O434  1  0.02317746  0.08219170  0.68433283  1
  O  O435  1  0.02287082  0.08543640  0.93277795  1
  O  O436  1  0.02207710  0.41843255  0.18303423  1
  O  O437  1  0.02139210  0.41661423  0.43208479  1
  O  O438  1  0.02277292  0.41570790  0.68437313  1
  O  O439  1  0.02218987  0.41523111  0.93245703  1
  O  O440  1  0.02214572  0.75206180  0.18351845  1
  O  O441  1  0.02308004  0.74962844  0.43441949  1
  O  O442  1  0.02244820  0.74876902  0.68273387  1
  O  O443  1  0.02250976  0.74812936  0.93267167  1
  O  O444  1  0.52182425  0.08163331  0.18297847  1
  O  O445  1  0.52123616  0.08322897  0.43177820  1
  O  O446  1  0.52146315  0.08331290  0.68244058  1
  O  O447  1  0.52340382  0.08278134  0.93410468  1
  O  O448  1  0.52166127  0.41705871  0.18101872  1
  O  O449  1  0.52169263  0.41892986  0.43318292  1
  O  O450  1  0.52173496  0.41535395  0.68376261  1
  O  O451  1  0.52193017  0.41713911  0.93420063  1
  O  O452  1  0.52124402  0.75053612  0.18144926  1
  O  O453  1  0.52171948  0.74778749  0.43323267  1
  O  O454  1  0.52322891  0.74881400  0.68462046  1
  O  O455  1  0.52183470  0.74860838  0.93282776  1
  O  O456  1  0.47694341  0.25034593  0.06554212  1
  O  O457  1  0.47817423  0.25024020  0.31795915  1
  O  O458  1  0.47840844  0.25069635  0.56862884  1
  O  O459  1  0.47756250  0.25231634  0.81746815  1
  O  O460  1  0.47717204  0.58276200  0.06502552  1
  O  O461  1  0.47811900  0.58351505  0.31839973  1
  O  O462  1  0.47716382  0.58337403  0.56612074  1
  O  O463  1  0.47775337  0.58479169  0.81684389  1
  O  O464  1  0.47831684  0.91825618  0.06674026  1
  O  O465  1  0.47787876  0.91839041  0.31688854  1
  O  O466  1  0.47868620  0.91577730  0.56883588  1
  O  O467  1  0.47796757  0.91494602  0.81721706  1
  O  O468  1  0.97681607  0.24926458  0.06534590  1
  O  O469  1  0.97838306  0.24979171  0.31844912  1
  O  O470  1  0.97787926  0.24807705  0.56720409  1
  O  O471  1  0.97726162  0.25032162  0.81561891  1
  O  O472  1  0.97784459  0.58454407  0.06617510  1
  O  O473  1  0.97796025  0.58245333  0.31664806  1
  O  O474  1  0.97785275  0.58523923  0.56679000  1
  O  O475  1  0.97723925  0.58378275  0.81528650  1
  O  O476  1  0.97907332  0.91692817  0.06774391  1
  O  O477  1  0.97760914  0.91664095  0.31551352  1
  O  O478  1  0.97690685  0.91686558  0.56598942  1
  O  O479  1  0.97834044  0.91804624  0.81654029  1
  O  O480  1  0.07091864  0.31412641  0.07267526  1
  O  O481  1  0.07373400  0.31292197  0.32600150  1
  O  O482  1  0.07305151  0.31206616  0.57546919  1
  O  O483  1  0.07283353  0.31310493  0.82319946  1
  O  O484  1  0.07244417  0.64837280  0.07400857  1
  O  O485  1  0.07368883  0.64577957  0.32472967  1
  O  O486  1  0.07326363  0.64774696  0.57366650  1
  O  O487  1  0.07285461  0.64675527  0.82251497  1
  O  O488  1  0.07444352  0.98024953  0.07553283  1
  O  O489  1  0.07250151  0.98008643  0.32445713  1
  O  O490  1  0.07226612  0.98006631  0.57340048  1
  O  O491  1  0.07341097  0.98141474  0.82334986  1
  O  O492  1  0.57216139  0.31387314  0.07332837  1
  O  O493  1  0.57337497  0.31405003  0.32468810  1
  O  O494  1  0.57428637  0.31347491  0.57571224  1
  O  O495  1  0.57277910  0.31522223  0.82549768  1
  O  O496  1  0.57144597  0.64773203  0.07258108  1
  O  O497  1  0.57376375  0.64655316  0.32544932  1
  O  O498  1  0.57238317  0.64679150  0.57375614  1
  O  O499  1  0.57317347  0.64749969  0.82436694  1
  O  O500  1  0.57373096  0.98136921  0.07346762  1
  O  O501  1  0.57332255  0.98109465  0.32412658  1
  O  O502  1  0.57396818  0.97945295  0.57649207  1
  O  O503  1  0.57341269  0.97883562  0.82521512  1
  O  O504  1  0.42655223  0.01881906  0.17519762  1
  O  O505  1  0.42576952  0.01963591  0.42535013  1
  O  O506  1  0.42614873  0.01964615  0.67548383  1
  O  O507  1  0.42805429  0.01948326  0.92621529  1
  O  O508  1  0.42637292  0.35348168  0.17371988  1
  O  O509  1  0.42669716  0.35440155  0.42576701  1
  O  O510  1  0.42658977  0.35245621  0.67595418  1
  O  O511  1  0.42687323  0.35333361  0.92671580  1
  O  O512  1  0.42610752  0.68636182  0.17468053  1
  O  O513  1  0.42605063  0.68549962  0.42666140  1
  O  O514  1  0.42780608  0.68563161  0.67663291  1
  O  O515  1  0.42664916  0.68549282  0.92503348  1
  O  O516  1  0.92683998  0.01895482  0.17613025  1
  O  O517  1  0.92777920  0.01932546  0.42747608  1
  O  O518  1  0.92767165  0.01955441  0.67637504  1
  O  O519  1  0.92788535  0.02111876  0.92495005  1
  O  O520  1  0.92691510  0.35433409  0.17505235  1
  O  O521  1  0.92612787  0.35319819  0.42477891  1
  O  O522  1  0.92723513  0.35273478  0.67629752  1
  O  O523  1  0.92728561  0.35190232  0.92589868  1
  O  O524  1  0.92717550  0.68774735  0.17574975  1
  O  O525  1  0.92794296  0.68643986  0.42583189  1
  O  O526  1  0.92728427  0.68549448  0.67546623  1
  O  O527  1  0.92712546  0.68535871  0.92565323  1
  O  O528  1  0.17600452  0.01929908  0.19993870  1
  O  O529  1  0.17620627  0.01943446  0.45128235  1
  O  O530  1  0.17799391  0.01994903  0.69827351  1
  O  O531  1  0.17786936  0.02015240  0.94749324  1
  O  O532  1  0.17596897  0.35171757  0.19922060  1
  O  O533  1  0.17781258  0.35267747  0.44916620  1
  O  O534  1  0.17652933  0.35387301  0.69912888  1
  O  O535  1  0.17510877  0.35350261  0.94929872  1
  O  O536  1  0.17696173  0.68441867  0.19978406  1
  O  O537  1  0.17687098  0.68763106  0.45072223  1
  O  O538  1  0.17823995  0.68677767  0.69691782  1
  O  O539  1  0.17582000  0.68675949  0.94868511  1
  O  O540  1  0.67653577  0.02039307  0.20029554  1
  O  O541  1  0.67731895  0.02107114  0.45060561  1
  O  O542  1  0.67770104  0.02106537  0.70087886  1
  O  O543  1  0.67876363  0.02048016  0.94774249  1
  O  O544  1  0.67693268  0.35151318  0.19867430  1
  O  O545  1  0.67665058  0.35161349  0.44958926  1
  O  O546  1  0.67651502  0.35286470  0.70171840  1
  O  O547  1  0.67665122  0.35520601  0.94970145  1
  O  O548  1  0.67659337  0.68538357  0.19832468  1
  O  O549  1  0.67617961  0.68652066  0.45022340  1
  O  O550  1  0.67776429  0.68505047  0.69999901  1
  O  O551  1  0.67678132  0.68807806  0.94920526  1
  O  O552  1  0.32225357  0.31453189  0.05022966  1
  O  O553  1  0.32298840  0.31462224  0.30129109  1
  O  O554  1  0.32340602  0.31257944  0.55050241  1
  O  O555  1  0.32255319  0.31257437  0.79963769  1
  O  O556  1  0.32253550  0.64791204  0.05111984  1
  O  O557  1  0.32329557  0.64473115  0.30091790  1
  O  O558  1  0.32106931  0.64700812  0.55103490  1
  O  O559  1  0.32301170  0.64717300  0.79832160  1
  O  O560  1  0.32330857  0.98073953  0.04978881  1
  O  O561  1  0.32284826  0.97828259  0.30071578  1
  O  O562  1  0.32244744  0.98009620  0.55108645  1
  O  O563  1  0.32308563  0.98137671  0.80002635  1
  O  O564  1  0.82271490  0.31533376  0.05086597  1
  O  O565  1  0.82260199  0.31378736  0.30234733  1
  O  O566  1  0.82356113  0.31204473  0.55094629  1
  O  O567  1  0.82363062  0.31253191  0.80041785  1
  O  O568  1  0.82277581  0.64863971  0.05030252  1
  O  O569  1  0.82425864  0.64639430  0.29995607  1
  O  O570  1  0.82311038  0.64754251  0.55157600  1
  O  O571  1  0.82370022  0.64542509  0.80053837  1
  O  O572  1  0.82408176  0.98100897  0.04889217  1
  O  O573  1  0.82462041  0.97989776  0.30016967  1
  O  O574  1  0.82435086  0.98059996  0.55058468  1
  O  O575  1  0.82195042  0.98065575  0.80184422  1
  O  O576  1  0.42667746  0.14581124  0.17416817  1
  O  O577  1  0.42577338  0.14660982  0.42453931  1
  O  O578  1  0.42596330  0.14662194  0.67571444  1
  O  O579  1  0.42877400  0.14706388  0.92704120  1
  O  O580  1  0.42611072  0.48024470  0.17371708  1
  O  O581  1  0.42629295  0.48153716  0.42647277  1
  O  O582  1  0.42654903  0.47954153  0.67608091  1
  O  O583  1  0.42696242  0.48074068  0.92548076  1
  O  O584  1  0.42560404  0.81332491  0.17381561  1
  O  O585  1  0.42687521  0.81263499  0.42635193  1
  O  O586  1  0.42868711  0.81301602  0.67664022  1
  O  O587  1  0.42649147  0.81240801  0.92457813  1
  O  O588  1  0.92698199  0.14604862  0.17630406  1
  O  O589  1  0.92803920  0.14668974  0.42693824  1
  O  O590  1  0.92876407  0.14677080  0.67697473  1
  O  O591  1  0.92748695  0.14803295  0.92523142  1
  O  O592  1  0.92710781  0.48163023  0.17530698  1
  O  O593  1  0.92575122  0.47996978  0.42520930  1
  O  O594  1  0.92838732  0.48031039  0.67711330  1
  O  O595  1  0.92684217  0.47882629  0.92432684  1
  O  O596  1  0.92685771  0.81479151  0.17566851  1
  O  O597  1  0.92841715  0.81386584  0.42715993  1
  O  O598  1  0.92704204  0.81233517  0.67488715  1
  O  O599  1  0.92766165  0.81258874  0.92426519  1
  O  O600  1  0.07241121  0.18662789  0.07314313  1
  O  O601  1  0.07377421  0.18609000  0.32549372  1
  O  O602  1  0.07301183  0.18497294  0.57526442  1
  O  O603  1  0.07181586  0.18605285  0.82302464  1
  O  O604  1  0.07351436  0.52127986  0.07392375  1
  O  O605  1  0.07253602  0.51865155  0.32374964  1
  O  O606  1  0.07282884  0.52076099  0.57486637  1
  O  O607  1  0.07158904  0.51934705  0.82276359  1
  O  O608  1  0.07445179  0.85356861  0.07535759  1
  O  O609  1  0.07230941  0.85271066  0.32441148  1
  O  O610  1  0.07140563  0.85281369  0.57337803  1
  O  O611  1  0.07360439  0.85414886  0.82390067  1
  O  O612  1  0.57175049  0.18640965  0.07286862  1
  O  O613  1  0.57372055  0.18703489  0.32475029  1
  O  O614  1  0.57336837  0.18656104  0.57631309  1
  O  O615  1  0.57265373  0.18812921  0.82622765  1
  O  O616  1  0.57286846  0.52018527  0.07273709  1
  O  O617  1  0.57353460  0.51995243  0.32509001  1
  O  O618  1  0.57191190  0.51936663  0.57428312  1
  O  O619  1  0.57272736  0.52064395  0.82510050  1
  O  O620  1  0.57350285  0.85435218  0.07495709  1
  O  O621  1  0.57282090  0.85374278  0.32417725  1
  O  O622  1  0.57437932  0.85255377  0.57557938  1
  O  O623  1  0.57289561  0.85165067  0.82488205  1
  O  O624  1  0.32220027  0.18740550  0.05053147  1
  O  O625  1  0.32281223  0.18751585  0.29980261  1
  O  O626  1  0.32308447  0.18547568  0.55048052  1
  O  O627  1  0.32342089  0.18553309  0.80114829  1
  O  O628  1  0.32267320  0.52068651  0.05018573  1
  O  O629  1  0.32243421  0.51763252  0.30046828  1
  O  O630  1  0.32235715  0.51954930  0.55157207  1
  O  O631  1  0.32338483  0.52038899  0.79926396  1
  O  O632  1  0.32411351  0.85384092  0.04845244  1
  O  O633  1  0.32302242  0.85099493  0.30124804  1
  O  O634  1  0.32261735  0.85288592  0.55225469  1
  O  O635  1  0.32270749  0.85440890  0.79952855  1
  O  O636  1  0.82301945  0.18822190  0.05085424  1
  O  O637  1  0.82226458  0.18642382  0.30159209  1
  O  O638  1  0.82372435  0.18515545  0.55140348  1
  O  O639  1  0.82373649  0.18548404  0.80184179  1
  O  O640  1  0.82376836  0.52146289  0.05055653  1
  O  O641  1  0.82410428  0.51951617  0.29910035  1
  O  O642  1  0.82337116  0.52024894  0.55077545  1
  O  O643  1  0.82283796  0.51840030  0.80083632  1
  O  O644  1  0.82456871  0.85419200  0.04892354  1
  O  O645  1  0.82390643  0.85281150  0.30005314  1
  O  O646  1  0.82464370  0.85366966  0.55053722  1
  O  O647  1  0.82306903  0.85301896  0.80130782  1
  O  O648  1  0.17518656  0.14635290  0.20014372  1
  O  O649  1  0.17603587  0.14620611  0.45100821  1
  O  O650  1  0.17824288  0.14715074  0.69849680  1
  O  O651  1  0.17810222  0.14758690  0.94725720  1
  O  O652  1  0.17618639  0.47861023  0.19991684  1
  O  O653  1  0.17720493  0.48015522  0.44834553  1
  O  O654  1  0.17647212  0.48105603  0.69830415  1
  O  O655  1  0.17571456  0.48038938  0.95013541  1
  O  O656  1  0.17690409  0.81164176  0.19953828  1
  O  O657  1  0.17738770  0.81461013  0.44940973  1
  O  O658  1  0.17721788  0.81425645  0.69756186  1
  O  O659  1  0.17555526  0.81355045  0.94994047  1
  O  O660  1  0.67571927  0.14722461  0.19992169  1
  O  O661  1  0.67703872  0.14817645  0.44928170  1
  O  O662  1  0.67720112  0.14809490  0.70021073  1
  O  O663  1  0.67779922  0.14800055  0.94858150  1
  O  O664  1  0.67625274  0.47855404  0.20026311  1
  O  O665  1  0.67712571  0.47894631  0.44985909  1
  O  O666  1  0.67579915  0.47971273  0.70008938  1
  O  O667  1  0.67742947  0.48233795  0.94970887  1
  O  O668  1  0.67683854  0.81268499  0.19908266  1
  O  O669  1  0.67641762  0.81337672  0.45070687  1
  O  O670  1  0.67742236  0.81230576  0.70012683  1
  O  O671  1  0.67711775  0.81516055  0.94907710  1
