# generated using pymatgen
data_Na2MnFe(PO4)2
_symmetry_space_group_name_H-M   'P 1'
_cell_length_a   22.34987185
_cell_length_b   20.10108238
_cell_length_c   19.44375704
_cell_angle_alpha   90.02305937
_cell_angle_beta   90.04590283
_cell_angle_gamma   89.96401215
_symmetry_Int_Tables_number   1
_chemical_formula_structural   Na2MnFe(PO4)2
_chemical_formula_sum   'Na96 Mn48 Fe48 P96 O384'
_cell_volume   8735.23124543
_cell_formula_units_Z   48
loop_
 _symmetry_equiv_pos_site_id
 _symmetry_equiv_pos_as_xyz
  1  'x, y, z'
loop_
 _atom_site_type_symbol
 _atom_site_label
 _atom_site_symmetry_multiplicity
 _atom_site_fract_x
 _atom_site_fract_y
 _atom_site_fract_z
 _atom_site_occupancy
  Na  Na0  1  0.13955832  0.24895786  0.24246888  1
  Na  Na1  1  0.13971688  0.24837676  0.49407945  1
  Na  Na2  1  0.13938720  0.24963088  0.74255442  1
  Na  Na3  1  0.13903139  0.25056865  0.99362699  1
  Na  Na4  1  0.13947076  0.58326898  0.24378304  1
  Na  Na5  1  0.13961477  0.58399515  0.49286478  1
  Na  Na6  1  0.14007776  0.58315548  0.74158048  1
  Na  Na7  1  0.14009676  0.58395712  0.99340856  1
  Na  Na8  1  0.14015299  0.91676909  0.24533669  1
  Na  Na9  1  0.14053315  0.91483217  0.49342706  1
  Na  Na10  1  0.14031355  0.91505613  0.74323876  1
  Na  Na11  1  0.14006820  0.91731576  0.99454862  1
  Na  Na12  1  0.63985627  0.24919728  0.24293513  1
  Na  Na13  1  0.64032023  0.24940311  0.49272563  1
  Na  Na14  1  0.64030013  0.25028203  0.74528417  1
  Na  Na15  1  0.64000908  0.24885946  0.99329622  1
  Na  Na16  1  0.64046228  0.58371915  0.24454269  1
  Na  Na17  1  0.64073046  0.58433769  0.49307315  1
  Na  Na18  1  0.64061711  0.58362377  0.74405980  1
  Na  Na19  1  0.64077588  0.58314179  0.99440760  1
  Na  Na20  1  0.64096247  0.91768317  0.24446496  1
  Na  Na21  1  0.64113468  0.91720728  0.49267182  1
  Na  Na22  1  0.64070379  0.91750327  0.74439668  1
  Na  Na23  1  0.64066514  0.91809129  0.99386046  1
  Na  Na24  1  0.35932112  0.08439506  0.00616758  1
  Na  Na25  1  0.35978969  0.08233411  0.25610162  1
  Na  Na26  1  0.35976980  0.08160656  0.50643248  1
  Na  Na27  1  0.35941991  0.08235209  0.75574914  1
  Na  Na28  1  0.35957030  0.41641180  0.00626224  1
  Na  Na29  1  0.35971627  0.41631820  0.25616090  1
  Na  Na30  1  0.35907221  0.41626486  0.50588062  1
  Na  Na31  1  0.35937109  0.41580269  0.75542801  1
  Na  Na32  1  0.35997488  0.75145845  0.00592873  1
  Na  Na33  1  0.35927156  0.75033758  0.25609819  1
  Na  Na34  1  0.35966380  0.74925668  0.50545477  1
  Na  Na35  1  0.35977244  0.74980590  0.75500136  1
  Na  Na36  1  0.85995712  0.08399823  0.00681101  1
  Na  Na37  1  0.85982332  0.08419759  0.25734187  1
  Na  Na38  1  0.86005588  0.08438282  0.50499279  1
  Na  Na39  1  0.85965268  0.08474218  0.75749219  1
  Na  Na40  1  0.86027113  0.41458723  0.00672650  1
  Na  Na41  1  0.86012593  0.41700800  0.25783134  1
  Na  Na42  1  0.85968575  0.41769140  0.50625572  1
  Na  Na43  1  0.86034306  0.41601526  0.75723737  1
  Na  Na44  1  0.86020302  0.75096958  0.00602954  1
  Na  Na45  1  0.85978385  0.75105227  0.25852494  1
  Na  Na46  1  0.86069516  0.75043901  0.50702865  1
  Na  Na47  1  0.86069589  0.75035086  0.75616348  1
  Na  Na48  1  0.10913245  0.08387500  0.11940178  1
  Na  Na49  1  0.10938523  0.08403596  0.36837922  1
  Na  Na50  1  0.10906040  0.08324412  0.61855763  1
  Na  Na51  1  0.10900614  0.08391446  0.86845071  1
  Na  Na52  1  0.10908518  0.41554842  0.11896679  1
  Na  Na53  1  0.10856067  0.41718035  0.36816430  1
  Na  Na54  1  0.10883816  0.41607463  0.61822132  1
  Na  Na55  1  0.10884042  0.41553153  0.86775587  1
  Na  Na56  1  0.10922776  0.74961845  0.11976659  1
  Na  Na57  1  0.10981859  0.74985789  0.36872867  1
  Na  Na58  1  0.10996206  0.74901710  0.61732526  1
  Na  Na59  1  0.10945525  0.74954062  0.86663796  1
  Na  Na60  1  0.61034472  0.08445224  0.11811421  1
  Na  Na61  1  0.60995741  0.08359233  0.36756481  1
  Na  Na62  1  0.60998249  0.08332212  0.61956461  1
  Na  Na63  1  0.60997566  0.08470802  0.86936645  1
  Na  Na64  1  0.60933932  0.41626190  0.11958365  1
  Na  Na65  1  0.60912354  0.41545805  0.36795363  1
  Na  Na66  1  0.60970686  0.41650404  0.61936566  1
  Na  Na67  1  0.60968829  0.41563567  0.86976250  1
  Na  Na68  1  0.60962870  0.75009823  0.11960198  1
  Na  Na69  1  0.61041100  0.74883366  0.36882350  1
  Na  Na70  1  0.61031779  0.75054320  0.61769223  1
  Na  Na71  1  0.60960506  0.75107730  0.86953822  1
  Na  Na72  1  0.39057230  0.25111059  0.13105256  1
  Na  Na73  1  0.39027866  0.24861545  0.38023979  1
  Na  Na74  1  0.38987600  0.24874746  0.63149315  1
  Na  Na75  1  0.39008916  0.25047148  0.88025440  1
  Na  Na76  1  0.39075788  0.58322475  0.13070976  1
  Na  Na77  1  0.39014219  0.58264147  0.38085604  1
  Na  Na78  1  0.39058067  0.58339271  0.63022265  1
  Na  Na79  1  0.39079356  0.58342616  0.88066939  1
  Na  Na80  1  0.39023782  0.91730567  0.13108235  1
  Na  Na81  1  0.39022341  0.91575328  0.38189424  1
  Na  Na82  1  0.39048156  0.91609893  0.63036952  1
  Na  Na83  1  0.39036869  0.91685766  0.88143216  1
  Na  Na84  1  0.89022151  0.24961373  0.13232114  1
  Na  Na85  1  0.89005403  0.25101192  0.38110233  1
  Na  Na86  1  0.89024520  0.25058600  0.63128886  1
  Na  Na87  1  0.89027826  0.25008628  0.88197467  1
  Na  Na88  1  0.89090063  0.58268925  0.13262850  1
  Na  Na89  1  0.89090804  0.58485872  0.38232586  1
  Na  Na90  1  0.89111783  0.58398413  0.63170109  1
  Na  Na91  1  0.89113476  0.58240536  0.88019895  1
  Na  Na92  1  0.89039964  0.91765847  0.13289975  1
  Na  Na93  1  0.89045768  0.91731763  0.38267190  1
  Na  Na94  1  0.89088679  0.91655090  0.63106996  1
  Na  Na95  1  0.89077226  0.91728684  0.88169946  1
  Mn  Mn96  1  -0.00005705  0.83288385  0.00084187  1
  Mn  Mn97  1  0.00071871  0.49861434  0.00024632  1
  Mn  Mn98  1  0.00030665  0.00085726  0.00066715  1
  Mn  Mn99  1  0.49985527  0.16664414  0.74978849  1
  Mn  Mn100  1  0.24949998  0.66744170  0.12435869  1
  Mn  Mn101  1  0.49979580  0.83283874  0.25051016  1
  Mn  Mn102  1  0.24866356  0.50027746  0.37521765  1
  Mn  Mn103  1  0.24972916  0.16684658  0.87521910  1
  Mn  Mn104  1  -0.00012407  0.66583133  -0.00048231  1
  Mn  Mn105  1  0.75019964  0.16704176  0.62501880  1
  Mn  Mn106  1  0.24955527  0.33314490  0.87415226  1
  Mn  Mn107  1  -0.00007133  0.00015073  0.74996539  1
  Mn  Mn108  1  0.75018607  0.50076894  0.37600842  1
  Mn  Mn109  1  0.49989126  0.00087015  0.00025694  1
  Mn  Mn110  1  0.75054311  0.66739042  0.12554406  1
  Mn  Mn111  1  0.24996061  0.49996003  0.62415109  1
  Mn  Mn112  1  0.25029354  0.16517632  0.37444414  1
  Mn  Mn113  1  0.49998727  0.49957018  0.00004351  1
  Mn  Mn114  1  0.50059994  0.66703657  0.75052120  1
  Mn  Mn115  1  0.24907497  -0.00059917  0.87445516  1
  Mn  Mn116  1  0.50055247  0.16525415  0.50050031  1
  Mn  Mn117  1  0.24944653  0.50000354  0.87397461  1
  Mn  Mn118  1  0.25026616  0.66774418  0.87402413  1
  Mn  Mn119  1  0.75066631  0.49971046  0.12578596  1
  Mn  Mn120  1  -0.00032362  0.83331670  0.25103048  1
  Mn  Mn121  1  0.75029911  0.00068331  0.62462515  1
  Mn  Mn122  1  0.75032098  0.66702904  0.87545385  1
  Mn  Mn123  1  -0.00023360  0.33381390  0.49957512  1
  Mn  Mn124  1  0.50065552  0.00052655  0.24947471  1
  Mn  Mn125  1  0.50003979  0.83448126  0.74936828  1
  Mn  Mn126  1  0.49913097  0.66572825  0.24906550  1
  Mn  Mn127  1  0.50066010  0.49910275  0.75068165  1
  Mn  Mn128  1  0.24958656  0.16621847  0.12512773  1
  Mn  Mn129  1  0.75028410  0.33322526  0.62522946  1
  Mn  Mn130  1  0.74955116  0.33214366  0.12606933  1
  Mn  Mn131  1  0.74985267  0.83503480  0.12613134  1
  Mn  Mn132  1  0.74986223  0.83469552  0.87554680  1
  Mn  Mn133  1  0.25025757  0.49974651  0.12459547  1
  Mn  Mn134  1  0.24928594  0.83468626  0.12605026  1
  Mn  Mn135  1  0.75098409  0.83332841  0.62446516  1
  Mn  Mn136  1  0.24985826  -0.00149347  0.62525175  1
  Mn  Mn137  1  -0.00002502  0.00101600  0.50089952  1
  Mn  Mn138  1  0.50087166  0.83303636  0.50013529  1
  Mn  Mn139  1  0.24939378  0.33234623  0.37511679  1
  Mn  Mn140  1  0.49958829  0.33245108  0.49919605  1
  Mn  Mn141  1  0.75099082  0.49915385  0.87501046  1
  Mn  Mn142  1  0.74960057  0.50063038  0.62547485  1
  Mn  Mn143  1  0.49932759  0.49967159  0.49971686  1
  Fe  Fe144  1  0.24937135  0.16549776  0.62449956  1
  Fe  Fe145  1  0.75057815  0.00068892  0.87541231  1
  Fe  Fe146  1  0.00068850  0.66623371  0.74874136  1
  Fe  Fe147  1  0.24925410  0.33320481  0.12482257  1
  Fe  Fe148  1  -0.00029836  0.16745931  0.49956562  1
  Fe  Fe149  1  0.50034660  0.66686029  0.00039729  1
  Fe  Fe150  1  0.25021600  0.66669505  0.62394397  1
  Fe  Fe151  1  0.24978309  -0.00104884  0.37597449  1
  Fe  Fe152  1  0.25038935  0.83221005  0.62382174  1
  Fe  Fe153  1  0.00037245  0.83341154  0.50051247  1
  Fe  Fe154  1  0.50039057  -0.00026563  0.49962956  1
  Fe  Fe155  1  0.49957240  0.16684563  0.24898943  1
  Fe  Fe156  1  0.24993601  0.83294424  0.37490568  1
  Fe  Fe157  1  0.75038789  0.16628149  0.12502784  1
  Fe  Fe158  1  0.49992175  0.33294638  0.74996885  1
  Fe  Fe159  1  0.49974520  0.33285518  0.24940673  1
  Fe  Fe160  1  -0.00011585  0.16764508  0.24982202  1
  Fe  Fe161  1  0.50007659  0.49973890  0.24972630  1
  Fe  Fe162  1  0.74981438  0.33270367  0.87621314  1
  Fe  Fe163  1  -0.00062057  0.16713769  0.74992500  1
  Fe  Fe164  1  0.50047798  0.66587218  0.49957577  1
  Fe  Fe165  1  0.00053870  0.83296057  0.75008690  1
  Fe  Fe166  1  -0.00018376  0.33356905  0.25020414  1
  Fe  Fe167  1  0.75059567  0.83404591  0.37524065  1
  Fe  Fe168  1  0.24989523  0.83327415  0.87446245  1
  Fe  Fe169  1  0.75007884  0.16653100  0.87578261  1
  Fe  Fe170  1  0.00034982  0.66657929  0.50046244  1
  Fe  Fe171  1  0.25019057  0.66678048  0.37461598  1
  Fe  Fe172  1  0.00043659  0.00098623  0.25099973  1
  Fe  Fe173  1  0.75017443  0.66733274  0.62507088  1
  Fe  Fe174  1  0.49947107  0.16764607  -0.00072179  1
  Fe  Fe175  1  0.49959958  0.33344997  0.00040505  1
  Fe  Fe176  1  0.74982082  0.16677559  0.37439159  1
  Fe  Fe177  1  -0.00032446  0.16734058  -0.00008769  1
  Fe  Fe178  1  0.50011843  0.00035320  0.75057791  1
  Fe  Fe179  1  -0.00047595  0.33273635  0.00000916  1
  Fe  Fe180  1  -0.00052237  0.50031948  0.49983844  1
  Fe  Fe181  1  -0.00026818  0.33280410  0.74934484  1
  Fe  Fe182  1  0.00011658  0.49963108  0.74955510  1
  Fe  Fe183  1  -0.00025042  0.66662033  0.25095862  1
  Fe  Fe184  1  0.24946239  0.33243019  0.62449996  1
  Fe  Fe185  1  0.74944910  0.33324456  0.37503476  1
  Fe  Fe186  1  0.24989980  -0.00016361  0.12529424  1
  Fe  Fe187  1  0.75088066  0.66755669  0.37539229  1
  Fe  Fe188  1  0.75037725  0.00091443  0.37455565  1
  Fe  Fe189  1  -0.00017225  0.50010411  0.25005564  1
  Fe  Fe190  1  0.75088863  0.00096078  0.12551979  1
  Fe  Fe191  1  0.50057935  0.83405302  -0.00006175  1
  P  P192  1  0.04069834  0.24979167  0.10226554  1
  P  P193  1  0.04132802  0.25028525  0.35166089  1
  P  P194  1  0.04126689  0.24912667  0.60266706  1
  P  P195  1  0.04110285  0.24997521  0.85174115  1
  P  P196  1  0.04251507  0.58259551  0.10384025  1
  P  P197  1  0.04097903  0.58319498  0.35246117  1
  P  P198  1  0.04131909  0.58285839  0.60184203  1
  P  P199  1  0.04186176  0.58276413  0.85054678  1
  P  P200  1  0.04226193  0.91717535  0.10442484  1
  P  P201  1  0.04140129  0.91794278  0.35363028  1
  P  P202  1  0.04220683  0.91522253  0.60300887  1
  P  P203  1  0.04222978  0.91572980  0.85244453  1
  P  P204  1  0.54122501  0.25016134  0.10192322  1
  P  P205  1  0.54114167  0.24914487  0.35080375  1
  P  P206  1  0.54294246  0.24979504  0.60331500  1
  P  P207  1  0.54175707  0.25123328  0.85319731  1
  P  P208  1  0.54236996  0.58377508  0.10278023  1
  P  P209  1  0.54202093  0.58195532  0.35250513  1
  P  P210  1  0.54274416  0.58400627  0.60232810  1
  P  P211  1  0.54319500  0.58336606  0.85403986  1
  P  P212  1  0.54260316  0.91620434  0.10246170  1
  P  P213  1  0.54287130  0.91682791  0.35355800  1
  P  P214  1  0.54287312  0.91857712  0.60254414  1
  P  P215  1  0.54226920  0.91813544  0.85310304  1
  P  P216  1  0.45785681  0.08519247  0.14656979  1
  P  P217  1  0.45793974  0.08203907  0.39702800  1
  P  P218  1  0.45775353  0.08117944  0.64729227  1
  P  P219  1  0.45750756  0.08480093  0.89715847  1
  P  P220  1  0.45861291  0.41648108  0.14806218  1
  P  P221  1  0.45692980  0.41603547  0.39554385  1
  P  P222  1  0.45753955  0.41520873  0.64751827  1
  P  P223  1  0.45744285  0.41493084  0.89738887  1
  P  P224  1  0.45706023  0.75034055  0.14570349  1
  P  P225  1  0.45800807  0.74818491  0.39758946  1
  P  P226  1  0.45804643  0.74979470  0.64615468  1
  P  P227  1  0.45895174  0.75042251  0.89860131  1
  P  P228  1  0.95868128  0.08409416  0.14890088  1
  P  P229  1  0.95840368  0.08533222  0.39682652  1
  P  P230  1  0.95746911  0.08487739  0.64747274  1
  P  P231  1  0.95804024  0.08516101  0.89753229  1
  P  P232  1  0.95840662  0.41601532  0.14856160  1
  P  P233  1  0.95763678  0.41852263  0.39688071  1
  P  P234  1  0.95845055  0.41688289  0.64797736  1
  P  P235  1  0.95818979  0.41475233  0.89695140  1
  P  P236  1  0.95729448  0.74861909  0.14860805  1
  P  P237  1  0.95938163  0.74992221  0.39884457  1
  P  P238  1  0.95953648  0.75017521  0.64759695  1
  P  P239  1  0.95786444  0.74982481  0.89590796  1
  P  P240  1  0.20763711  0.08110976  0.22808493  1
  P  P241  1  0.20762307  0.08156031  0.47786868  1
  P  P242  1  0.20717491  0.08355818  0.72698737  1
  P  P243  1  0.20672485  0.08306898  0.97850545  1
  P  P244  1  0.20731008  0.41544189  0.22729980  1
  P  P245  1  0.20651366  0.41572465  0.47850702  1
  P  P246  1  0.20735770  0.41530492  0.72635603  1
  P  P247  1  0.20666321  0.41646030  0.97797950  1
  P  P248  1  0.20703246  0.75029065  0.22919216  1
  P  P249  1  0.20880025  0.74953022  0.47672587  1
  P  P250  1  0.20863033  0.75010335  0.72575662  1
  P  P251  1  0.20712121  0.75193599  0.97689959  1
  P  P252  1  0.70892803  0.08370290  0.22721701  1
  P  P253  1  0.70861196  0.08395712  0.47590498  1
  P  P254  1  0.70782476  0.08376136  0.72914353  1
  P  P255  1  0.70905328  0.08323649  0.97765533  1
  P  P256  1  0.70757141  0.41626247  0.22938890  1
  P  P257  1  0.70747456  0.41584292  0.47750583  1
  P  P258  1  0.70762411  0.41609910  0.72908130  1
  P  P259  1  0.70794716  0.41508540  0.97824349  1
  P  P260  1  0.70783907  0.75086615  0.22969652  1
  P  P261  1  0.70938710  0.75047660  0.47689410  1
  P  P262  1  0.70795047  0.74968639  0.72730415  1
  P  P263  1  0.70737191  0.75096928  0.97869333  1
  P  P264  1  0.29179892  0.25120762  0.02269983  1
  P  P265  1  0.29214897  0.24954565  0.27108252  1
  P  P266  1  0.29119204  0.24875333  0.52324912  1
  P  P267  1  0.29197213  0.24930239  0.77030656  1
  P  P268  1  0.29283257  0.58384585  0.02126513  1
  P  P269  1  0.29191482  0.58413924  0.27236005  1
  P  P270  1  0.29188881  0.58474383  0.52137630  1
  P  P271  1  0.29264643  0.58371844  0.77052423  1
  P  P272  1  0.29213529  0.91793936  0.02248280  1
  P  P273  1  0.29155422  0.91699636  0.27370569  1
  P  P274  1  0.29198546  0.91451010  0.52156550  1
  P  P275  1  0.29223070  0.91456511  0.77180253  1
  P  P276  1  0.79177789  0.24830941  0.02248784  1
  P  P277  1  0.79124795  0.24955587  0.27330612  1
  P  P278  1  0.79248126  0.25021389  0.52075576  1
  P  P279  1  0.79148285  0.25013126  0.77436405  1
  P  P280  1  0.79358949  0.58305929  0.02242467  1
  P  P281  1  0.79270939  0.58484250  0.27345496  1
  P  P282  1  0.79222665  0.58527847  0.52262376  1
  P  P283  1  0.79296101  0.58389051  0.77151754  1
  P  P284  1  0.79269301  0.91909451  0.02297277  1
  P  P285  1  0.79190809  0.91774942  0.27369668  1
  P  P286  1  0.79312075  0.91730009  0.52064961  1
  P  P287  1  0.79282696  0.91833823  0.77279326  1
  O  O288  1  0.03584579  0.24998203  0.18215714  1
  O  O289  1  0.03649293  0.25032127  0.43161684  1
  O  O290  1  0.03585964  0.24947944  0.68253453  1
  O  O291  1  0.03611034  0.25017751  0.93166534  1
  O  O292  1  0.03719827  0.58266731  0.18374695  1
  O  O293  1  0.03577842  0.58291927  0.43237376  1
  O  O294  1  0.03662235  0.58328434  0.68173479  1
  O  O295  1  0.03755674  0.58273867  0.93057302  1
  O  O296  1  0.03694105  0.91767087  0.18439152  1
  O  O297  1  0.03639932  0.91767829  0.43358940  1
  O  O298  1  0.03688558  0.91487249  0.68296574  1
  O  O299  1  0.03720553  0.91597672  0.93244692  1
  O  O300  1  0.53599138  0.24974703  0.18185279  1
  O  O301  1  0.53678430  0.24904758  0.43081504  1
  O  O302  1  0.53777433  0.25019499  0.68326355  1
  O  O303  1  0.53611399  0.25099586  0.93306277  1
  O  O304  1  0.53675270  0.58283237  0.18273081  1
  O  O305  1  0.53671552  0.58272361  0.43248468  1
  O  O306  1  0.53792208  0.58370921  0.68235323  1
  O  O307  1  0.53777682  0.58380458  0.93398867  1
  O  O308  1  0.53754350  0.91645108  0.18245457  1
  O  O309  1  0.53775224  0.91745812  0.43354734  1
  O  O310  1  0.53758571  0.91872655  0.68254697  1
  O  O311  1  0.53688948  0.91719647  0.93306984  1
  O  O312  1  0.46300666  0.08536632  0.06661800  1
  O  O313  1  0.46287388  0.08282974  0.31706421  1
  O  O314  1  0.46304988  0.08083023  0.56730730  1
  O  O315  1  0.46277153  0.08392796  0.81720292  1
  O  O316  1  0.46354646  0.41594299  0.06808329  1
  O  O317  1  0.46221490  0.41635232  0.31563058  1
  O  O318  1  0.46243761  0.41570884  0.56748485  1
  O  O319  1  0.46279167  0.41493853  0.81743875  1
  O  O320  1  0.46272473  0.75071861  0.06581353  1
  O  O321  1  0.46257762  0.74834428  0.31755739  1
  O  O322  1  0.46349688  0.74914232  0.56622016  1
  O  O323  1  0.46413079  0.75071071  0.81855992  1
  O  O324  1  0.96353646  0.08399397  0.06894297  1
  O  O325  1  0.96411543  0.08494956  0.31699146  1
  O  O326  1  0.96279957  0.08483603  0.56750609  1
  O  O327  1  0.96320223  0.08501180  0.81758897  1
  O  O328  1  0.96322770  0.41531797  0.06856680  1
  O  O329  1  0.96292114  0.41841517  0.31702432  1
  O  O330  1  0.96338122  0.41765239  0.56800221  1
  O  O331  1  0.96332479  0.41466075  0.81711111  1
  O  O332  1  0.96226660  0.74878418  0.06859413  1
  O  O333  1  0.96389036  0.74929974  0.31885364  1
  O  O334  1  0.96456957  0.75024037  0.56765845  1
  O  O335  1  0.96334706  0.75028088  0.81598611  1
  O  O336  1  0.21212286  0.08267377  0.05848647  1
  O  O337  1  0.21302217  0.08101265  0.30805893  1
  O  O338  1  0.21286985  0.08238834  0.55783756  1
  O  O339  1  0.21212794  0.08349296  0.80699863  1
  O  O340  1  0.21196101  0.41597660  0.05800227  1
  O  O341  1  0.21219447  0.41580400  0.30732452  1
  O  O342  1  0.21201625  0.41532572  0.55844185  1
  O  O343  1  0.21227995  0.41581362  0.80638642  1
  O  O344  1  0.21178581  0.75168459  0.05694824  1
  O  O345  1  0.21263779  0.75002052  0.30910513  1
  O  O346  1  0.21413396  0.74930559  0.55667749  1
  O  O347  1  0.21342651  0.75069713  0.80576256  1
  O  O348  1  0.71396805  0.08350136  0.05760272  1
  O  O349  1  0.71406656  0.08401663  0.30711474  1
  O  O350  1  0.71309563  0.08385726  0.55593114  1
  O  O351  1  0.71323336  0.08363948  0.80905100  1
  O  O352  1  0.71306137  0.41528660  0.05827394  1
  O  O353  1  0.71275236  0.41595897  0.30936069  1
  O  O354  1  0.71240052  0.41616016  0.55755906  1
  O  O355  1  0.71307313  0.41539883  0.80905541  1
  O  O356  1  0.71238856  0.75119532  0.05869580  1
  O  O357  1  0.71348473  0.75083370  0.30965929  1
  O  O358  1  0.71423578  0.74991354  0.55693419  1
  O  O359  1  0.71276836  0.75024175  0.80731482  1
  O  O360  1  0.28676779  0.25018547  0.19114651  1
  O  O361  1  0.28636598  0.24857232  0.44317548  1
  O  O362  1  0.28653130  0.24897987  0.69036751  1
  O  O363  1  0.28694503  0.25100120  0.94266815  1
  O  O364  1  0.28690209  0.58376542  0.19233979  1
  O  O365  1  0.28639510  0.58477896  0.44141449  1
  O  O366  1  0.28737274  0.58407297  0.69050626  1
  O  O367  1  0.28777926  0.58371124  0.94122661  1
  O  O368  1  0.28639305  0.91779009  0.19371414  1
  O  O369  1  0.28641062  0.91487399  0.44169403  1
  O  O370  1  0.28716534  0.91425949  0.69180375  1
  O  O371  1  0.28701315  0.91712799  0.94253856  1
  O  O372  1  0.78653976  0.24897335  0.19328208  1
  O  O373  1  0.78699246  0.25041276  0.44084323  1
  O  O374  1  0.78705135  0.24987960  0.69429465  1
  O  O375  1  0.78650017  0.24882573  0.94259447  1
  O  O376  1  0.78787754  0.58441756  0.19345833  1
  O  O377  1  0.78701211  0.58537852  0.44260997  1
  O  O378  1  0.78734081  0.58444668  0.69154011  1
  O  O379  1  0.78849144  0.58276786  0.94239941  1
  O  O380  1  0.78712957  0.91824928  0.19368927  1
  O  O381  1  0.78775063  0.91715396  0.44073249  1
  O  O382  1  0.78788196  0.91771673  0.69274482  1
  O  O383  1  0.78761180  0.91910987  0.94298654  1
  O  O384  1  0.22741257  0.25124173  0.05794973  1
  O  O385  1  0.22785865  0.24890738  0.30642606  1
  O  O386  1  0.22693209  0.24881846  0.55877478  1
  O  O387  1  0.22773196  0.24941679  0.80596959  1
  O  O388  1  0.22838319  0.58346789  0.05618009  1
  O  O389  1  0.22755590  0.58499099  0.30770728  1
  O  O390  1  0.22772511  0.58448855  0.55719157  1
  O  O391  1  0.22828002  0.58402739  0.80573550  1
  O  O392  1  0.22781335  0.91876123  0.05816191  1
  O  O393  1  0.22743178  0.91672293  0.30979737  1
  O  O394  1  0.22794907  0.91430557  0.55782973  1
  O  O395  1  0.22786476  0.91451441  0.80727174  1
  O  O396  1  0.72758240  0.24793711  0.05836649  1
  O  O397  1  0.72700252  0.24939875  0.30897901  1
  O  O398  1  0.72825965  0.25015394  0.55640799  1
  O  O399  1  0.72726384  0.25046915  0.80992088  1
  O  O400  1  0.72912096  0.58321536  0.05736619  1
  O  O401  1  0.72835244  0.58505831  0.30862552  1
  O  O402  1  0.72796145  0.58546358  0.55823833  1
  O  O403  1  0.72879268  0.58317747  0.80715437  1
  O  O404  1  0.72837835  0.91945252  0.05853625  1
  O  O405  1  0.72778475  0.91677184  0.30947604  1
  O  O406  1  0.72894974  0.91699163  0.55641934  1
  O  O407  1  0.72845397  0.91919380  0.80816291  1
  O  O408  1  0.27180939  0.08135934  0.19217706  1
  O  O409  1  0.27191383  0.08092197  0.44224029  1
  O  O410  1  0.27152686  0.08346407  0.69172120  1
  O  O411  1  0.27100821  0.08282362  0.94308835  1
  O  O412  1  0.27166274  0.41471196  0.19195135  1
  O  O413  1  0.27077896  0.41628744  0.44313706  1
  O  O414  1  0.27166994  0.41514194  0.69104493  1
  O  O415  1  0.27104548  0.41673218  0.94279432  1
  O  O416  1  0.27115409  0.75053252  0.19329767  1
  O  O417  1  0.27273899  0.74966119  0.44019820  1
  O  O418  1  0.27286068  0.74966009  0.68998260  1
  O  O419  1  0.27168629  0.75191869  0.94193452  1
  O  O420  1  0.77304375  0.08371187  0.19094868  1
  O  O421  1  0.77291331  0.08486695  0.44056820  1
  O  O422  1  0.77204789  0.08383251  0.69339885  1
  O  O423  1  0.77305818  0.08285258  0.94137426  1
  O  O424  1  0.77191217  0.41592453  0.19415601  1
  O  O425  1  0.77184780  0.41577557  0.44237031  1
  O  O426  1  0.77188528  0.41678238  0.69362067  1
  O  O427  1  0.77229079  0.41440391  0.94286621  1
  O  O428  1  0.77202520  0.75117075  0.19399265  1
  O  O429  1  0.77357416  0.75106776  0.44109314  1
  O  O430  1  0.77242276  0.74903912  0.69214365  1
  O  O431  1  0.77178442  0.75104073  0.94370662  1
  O  O432  1  0.02282860  0.08465372  0.18492687  1
  O  O433  1  0.02234370  0.08543500  0.43349654  1
  O  O434  1  0.02169507  0.08494748  0.68329279  1
  O  O435  1  0.02220343  0.08553534  0.93352339  1
  O  O436  1  0.02254497  0.41659743  0.18452919  1
  O  O437  1  0.02173437  0.41870119  0.43308422  1
  O  O438  1  0.02254771  0.41584749  0.68403766  1
  O  O439  1  0.02232132  0.41420168  0.93314368  1
  O  O440  1  0.02165268  0.74867815  0.18405877  1
  O  O441  1  0.02352480  0.75019220  0.43464336  1
  O  O442  1  0.02355476  0.75034780  0.68391967  1
  O  O443  1  0.02204063  0.74966599  0.93184165  1
  O  O444  1  0.52216050  0.08539069  0.18227531  1
  O  O445  1  0.52236758  0.08177322  0.43247279  1
  O  O446  1  0.52198020  0.08158541  0.68313941  1
  O  O447  1  0.52174234  0.08518055  0.93294786  1
  O  O448  1  0.52265208  0.41708711  0.18427408  1
  O  O449  1  0.52119828  0.41615113  0.43122052  1
  O  O450  1  0.52191716  0.41458838  0.68302639  1
  O  O451  1  0.52166623  0.41493140  0.93331950  1
  O  O452  1  0.52124080  0.74987675  0.18161945  1
  O  O453  1  0.52243101  0.74820992  0.43282008  1
  O  O454  1  0.52227624  0.75048221  0.68172886  1
  O  O455  1  0.52303822  0.75005555  0.93471733  1
  O  O456  1  0.47716995  0.25037602  0.06542418  1
  O  O457  1  0.47686577  0.24885427  0.31526517  1
  O  O458  1  0.47851831  0.24891850  0.56812190  1
  O  O459  1  0.47778287  0.25146054  0.81653510  1
  O  O460  1  0.47826036  0.58444552  0.06666193  1
  O  O461  1  0.47777680  0.58104250  0.31664998  1
  O  O462  1  0.47828528  0.58452199  0.56704721  1
  O  O463  1  0.47891944  0.58311268  0.81847993  1
  O  O464  1  0.47828257  0.91614085  0.06699314  1
  O  O465  1  0.47852996  0.91712494  0.31821525  1
  O  O466  1  0.47860981  0.91792547  0.56678210  1
  O  O467  1  0.47802999  0.91856799  0.81718071  1
  O  O468  1  0.97665178  0.24939741  0.06586169  1
  O  O469  1  0.97712716  0.24979732  0.31576317  1
  O  O470  1  0.97722153  0.24913434  0.56634357  1
  O  O471  1  0.97695026  0.25017108  0.81545806  1
  O  O472  1  0.97833467  0.58240614  0.06797114  1
  O  O473  1  0.97702506  0.58293937  0.31583444  1
  O  O474  1  0.97720741  0.58284833  0.56568648  1
  O  O475  1  0.97761576  0.58308116  0.81503520  1
  O  O476  1  0.97805112  0.91705255  0.06876747  1
  O  O477  1  0.97730864  0.91774033  0.31774028  1
  O  O478  1  0.97803769  0.91567673  0.56710051  1
  O  O479  1  0.97793907  0.91574995  0.81693735  1
  O  O480  1  0.07120709  0.31348031  0.07350901  1
  O  O481  1  0.07126268  0.31446534  0.32326427  1
  O  O482  1  0.07248022  0.31253854  0.57442579  1
  O  O483  1  0.07220676  0.31322983  0.82287366  1
  O  O484  1  0.07361801  0.64594236  0.07526967  1
  O  O485  1  0.07145268  0.64721038  0.32439873  1
  O  O486  1  0.07199975  0.64649120  0.57295889  1
  O  O487  1  0.07270718  0.64625188  0.82196534  1
  O  O488  1  0.07349373  0.98030057  0.07579842  1
  O  O489  1  0.07158436  0.98183147  0.32504560  1
  O  O490  1  0.07334696  0.97901326  0.57574747  1
  O  O491  1  0.07325603  0.97938682  0.82466685  1
  O  O492  1  0.57220507  0.31386886  0.07402910  1
  O  O493  1  0.57135276  0.31307832  0.32238677  1
  O  O494  1  0.57366922  0.31306804  0.57441139  1
  O  O495  1  0.57278879  0.31450363  0.82456208  1
  O  O496  1  0.57329466  0.64743784  0.07501018  1
  O  O497  1  0.57282272  0.64552765  0.32429110  1
  O  O498  1  0.57355008  0.64741754  0.57373582  1
  O  O499  1  0.57447229  0.64653519  0.82561907  1
  O  O500  1  0.57358420  0.97993932  0.07490343  1
  O  O501  1  0.57441975  0.97970723  0.32479933  1
  O  O502  1  0.57341220  0.98195406  0.57352908  1
  O  O503  1  0.57295905  0.98192202  0.82532820  1
  O  O504  1  0.42721302  0.02124195  0.17423481  1
  O  O505  1  0.42741778  0.01837886  0.42546204  1
  O  O506  1  0.42698406  0.01794665  0.67626672  1
  O  O507  1  0.42624450  0.02153942  0.92550045  1
  O  O508  1  0.42823655  0.35268002  0.17661185  1
  O  O509  1  0.42596733  0.35245125  0.42380365  1
  O  O510  1  0.42661210  0.35175714  0.67555979  1
  O  O511  1  0.42643855  0.35178397  0.92620897  1
  O  O512  1  0.42559814  0.68698196  0.17366565  1
  O  O513  1  0.42757762  0.68454244  0.42601310  1
  O  O514  1  0.42693018  0.68668422  0.67489325  1
  O  O515  1  0.42792074  0.68674972  0.92623986  1
  O  O516  1  0.92871844  0.02006701  0.17762432  1
  O  O517  1  0.92707180  0.02197957  0.42496731  1
  O  O518  1  0.92674216  0.02095557  0.67513885  1
  O  O519  1  0.92743985  0.02128044  0.92542369  1
  O  O520  1  0.92786106  0.35236196  0.17735179  1
  O  O521  1  0.92676624  0.35475568  0.42482762  1
  O  O522  1  0.92691016  0.35343368  0.67549173  1
  O  O523  1  0.92695276  0.35175653  0.92619386  1
  O  O524  1  0.92678956  0.68513278  0.17732248  1
  O  O525  1  0.92866159  0.68647542  0.42772073  1
  O  O526  1  0.92907354  0.68624060  0.67591071  1
  O  O527  1  0.92670349  0.68627783  0.92387404  1
  O  O528  1  0.17677222  0.01785507  0.19938797  1
  O  O529  1  0.17677803  0.01785205  0.44997056  1
  O  O530  1  0.17617472  0.01979565  0.69942025  1
  O  O531  1  0.17520326  0.02012458  0.94981205  1
  O  O532  1  0.17631491  0.35198406  0.19904849  1
  O  O533  1  0.17542997  0.35242057  0.45000565  1
  O  O534  1  0.17671948  0.35164148  0.69815542  1
  O  O535  1  0.17549557  0.35324920  0.94935570  1
  O  O536  1  0.17584954  0.68710853  0.20041019  1
  O  O537  1  0.17774607  0.68603406  0.44830570  1
  O  O538  1  0.17786222  0.68626009  0.69775563  1
  O  O539  1  0.17620271  0.68836236  0.94864384  1
  O  O540  1  0.67811502  0.02001122  0.19897188  1
  O  O541  1  0.67886626  0.01975137  0.44737914  1
  O  O542  1  0.67671904  0.02052010  0.70028611  1
  O  O543  1  0.67776798  0.01996529  0.94912932  1
  O  O544  1  0.67609155  0.35316098  0.20095442  1
  O  O545  1  0.67688124  0.35228325  0.44884655  1
  O  O546  1  0.67659953  0.35288724  0.70036682  1
  O  O547  1  0.67688595  0.35165218  0.95007796  1
  O  O548  1  0.67670941  0.68746179  0.20129517  1
  O  O549  1  0.67882028  0.68680101  0.44825329  1
  O  O550  1  0.67702522  0.68624674  0.69894150  1
  O  O551  1  0.67651521  0.68739531  0.95071276  1
  O  O552  1  0.32240878  0.31474714  0.05124064  1
  O  O553  1  0.32318030  0.31269899  0.29990529  1
  O  O554  1  0.32182120  0.31266423  0.55109564  1
  O  O555  1  0.32316057  0.31273432  0.79857001  1
  O  O556  1  0.32339240  0.64757491  0.04929675  1
  O  O557  1  0.32314964  0.64747292  0.30051682  1
  O  O558  1  0.32278459  0.64801451  0.55011772  1
  O  O559  1  0.32415579  0.64675472  0.79908930  1
  O  O560  1  0.32309575  0.98146107  0.05077951  1
  O  O561  1  0.32256582  0.98026286  0.30249251  1
  O  O562  1  0.32308171  0.97800574  0.54987170  1
  O  O563  1  0.32283347  0.97855361  0.79948324  1
  O  O564  1  0.82285904  0.31170992  0.05109594  1
  O  O565  1  0.82144987  0.31370277  0.30132693  1
  O  O566  1  0.82374484  0.31345849  0.54949008  1
  O  O567  1  0.82244360  0.31368742  0.80243738  1
  O  O568  1  0.82454739  0.64663153  0.05035137  1
  O  O569  1  0.82343173  0.64840938  0.30189540  1
  O  O570  1  0.82330536  0.64845524  0.55136729  1
  O  O571  1  0.82393532  0.64723281  0.79998219  1
  O  O572  1  0.82381865  0.98222336  0.05192064  1
  O  O573  1  0.82199118  0.98180040  0.30221423  1
  O  O574  1  0.82405653  0.98085987  0.54894271  1
  O  O575  1  0.82391959  0.98164670  0.80109386  1
  O  O576  1  0.42667250  0.14830035  0.17536933  1
  O  O577  1  0.42679054  0.14539690  0.42558750  1
  O  O578  1  0.42657264  0.14496775  0.67471394  1
  O  O579  1  0.42676343  0.14857544  0.92516571  1
  O  O580  1  0.42739611  0.48011708  0.17574324  1
  O  O581  1  0.42554780  0.47913719  0.42441117  1
  O  O582  1  0.42699725  0.47913364  0.67546562  1
  O  O583  1  0.42645016  0.47876267  0.92507391  1
  O  O584  1  0.42603295  0.81365038  0.17466178  1
  O  O585  1  0.42702675  0.81189294  0.42527679  1
  O  O586  1  0.42680542  0.81346480  0.67383076  1
  O  O587  1  0.42845171  0.81443235  0.92648127  1
  O  O588  1  0.92714645  0.14737661  0.17693849  1
  O  O589  1  0.92748417  0.14890344  0.42516651  1
  O  O590  1  0.92634391  0.14807652  0.67616874  1
  O  O591  1  0.92687338  0.14833311  0.92624043  1
  O  O592  1  0.92731277  0.47965309  0.17642382  1
  O  O593  1  0.92649755  0.48165692  0.42594068  1
  O  O594  1  0.92839177  0.48075842  0.67697611  1
  O  O595  1  0.92751538  0.47864636  0.92504882  1
  O  O596  1  0.92618573  0.81230113  0.17634241  1
  O  O597  1  0.92856095  0.81379402  0.42664753  1
  O  O598  1  0.92816393  0.81349455  0.67604049  1
  O  O599  1  0.92658265  0.81302265  0.92481532  1
  O  O600  1  0.07191932  0.18636087  0.07384724  1
  O  O601  1  0.07295957  0.18722438  0.32334106  1
  O  O602  1  0.07214941  0.18564913  0.57402918  1
  O  O603  1  0.07181703  0.18619088  0.82333367  1
  O  O604  1  0.07372750  0.51922700  0.07528558  1
  O  O605  1  0.07239190  0.51998359  0.32385520  1
  O  O606  1  0.07226432  0.51933440  0.57342036  1
  O  O607  1  0.07227552  0.51881367  0.82230132  1
  O  O608  1  0.07325876  0.85341482  0.07668660  1
  O  O609  1  0.07313206  0.85470147  0.32587373  1
  O  O610  1  0.07303893  0.85195252  0.57395415  1
  O  O611  1  0.07300189  0.85227003  0.82383896  1
  O  O612  1  0.57205620  0.18662457  0.07312186  1
  O  O613  1  0.57222605  0.18572278  0.32249147  1
  O  O614  1  0.57428191  0.18626648  0.57539815  1
  O  O615  1  0.57294659  0.18757396  0.82537257  1
  O  O616  1  0.57354098  0.52023826  0.07483272  1
  O  O617  1  0.57313634  0.51847425  0.32438291  1
  O  O618  1  0.57336981  0.52014628  0.57441353  1
  O  O619  1  0.57411857  0.51959798  0.82618299  1
  O  O620  1  0.57335176  0.85268751  0.07403564  1
  O  O621  1  0.57340217  0.85279301  0.32597588  1
  O  O622  1  0.57430803  0.85493667  0.57500130  1
  O  O623  1  0.57348976  0.85481330  0.82461267  1
  O  O624  1  0.32283241  0.18752536  0.05038482  1
  O  O625  1  0.32339490  0.18591376  0.29879525  1
  O  O626  1  0.32197338  0.18500406  0.55131122  1
  O  O627  1  0.32316140  0.18604180  0.79912802  1
  O  O628  1  0.32412935  0.52054769  0.04956299  1
  O  O629  1  0.32231891  0.52020625  0.30041284  1
  O  O630  1  0.32317777  0.52101323  0.54885288  1
  O  O631  1  0.32331539  0.51986327  0.79843611  1
  O  O632  1  0.32289672  0.85445226  0.05118363  1
  O  O633  1  0.32228799  0.85292954  0.30117354  1
  O  O634  1  0.32311123  0.85110475  0.54994703  1
  O  O635  1  0.32319451  0.85142753  0.80091863  1
  O  O636  1  0.82280660  0.18491599  0.05110666  1
  O  O637  1  0.82254364  0.18632565  0.30179158  1
  O  O638  1  0.82360406  0.18683162  0.54931962  1
  O  O639  1  0.82179689  0.18624884  0.80283300  1
  O  O640  1  0.82442237  0.51945321  0.05069083  1
  O  O641  1  0.82371581  0.52125486  0.30142440  1
  O  O642  1  0.82298942  0.52127784  0.55020040  1
  O  O643  1  0.82438953  0.52033196  0.79908976  1
  O  O644  1  0.82343190  0.85523223  0.05091602  1
  O  O645  1  0.82346581  0.85445387  0.30173921  1
  O  O646  1  0.82458091  0.85413312  0.54926298  1
  O  O647  1  0.82326463  0.85441903  0.80085203  1
  O  O648  1  0.17651615  0.14489024  0.20048677  1
  O  O649  1  0.17662864  0.14496767  0.44930001  1
  O  O650  1  0.17645864  0.14697596  0.69827627  1
  O  O651  1  0.17604450  0.14695801  0.95063501  1
  O  O652  1  0.17673946  0.47934567  0.19952778  1
  O  O653  1  0.17530832  0.47932598  0.45066149  1
  O  O654  1  0.17626594  0.47890284  0.69855943  1
  O  O655  1  0.17566620  0.48006731  0.94982788  1
  O  O656  1  0.17577230  0.81387031  0.20132311  1
  O  O657  1  0.17778486  0.81320254  0.44862751  1
  O  O658  1  0.17782343  0.81352409  0.69694766  1
  O  O659  1  0.17674481  0.81560094  0.94830853  1
  O  O660  1  0.67798210  0.14713411  0.19836089  1
  O  O661  1  0.67697809  0.14705805  0.44763716  1
  O  O662  1  0.67664347  0.14719939  0.70076394  1
  O  O663  1  0.67855546  0.14705616  0.94886689  1
  O  O664  1  0.67696459  0.48005380  0.20126838  1
  O  O665  1  0.67637139  0.47954396  0.44992230  1
  O  O666  1  0.67630025  0.47966550  0.70131862  1
  O  O667  1  0.67732698  0.47890752  0.95033080  1
  O  O668  1  0.67641504  0.81420951  0.20146296  1
  O  O669  1  0.67822539  0.81412097  0.44913502  1
  O  O670  1  0.67733486  0.81346300  0.69906457  1
  O  O671  1  0.67640405  0.81444954  0.95035798  1
