# generated using pymatgen
data_Na2MnFe(PO4)2
_symmetry_space_group_name_H-M   'P 1'
_cell_length_a   22.34262548
_cell_length_b   20.09293433
_cell_length_c   19.45006493
_cell_angle_alpha   89.99859461
_cell_angle_beta   90.03021197
_cell_angle_gamma   89.97406075
_symmetry_Int_Tables_number   1
_chemical_formula_structural   Na2MnFe(PO4)2
_chemical_formula_sum   'Na96 Mn48 Fe48 P96 O384'
_cell_volume   8731.69427148
_cell_formula_units_Z   48
loop_
 _symmetry_equiv_pos_site_id
 _symmetry_equiv_pos_as_xyz
  1  'x, y, z'
loop_
 _atom_site_type_symbol
 _atom_site_label
 _atom_site_symmetry_multiplicity
 _atom_site_fract_x
 _atom_site_fract_y
 _atom_site_fract_z
 _atom_site_occupancy
  Na  Na0  1  0.14046731  0.24989167  0.24389061  1
  Na  Na1  1  0.14027102  0.24966019  0.49436509  1
  Na  Na2  1  0.13983642  0.24997499  0.74507707  1
  Na  Na3  1  0.14082781  0.25004308  0.99279234  1
  Na  Na4  1  0.13999060  0.58270111  0.24348497  1
  Na  Na5  1  0.13993751  0.58334977  0.49469575  1
  Na  Na6  1  0.14024031  0.58334861  0.74346351  1
  Na  Na7  1  0.13987029  0.58206150  0.99375136  1
  Na  Na8  1  0.14068938  0.91654614  0.24472398  1
  Na  Na9  1  0.14008683  0.91705980  0.49335361  1
  Na  Na10  1  0.14016176  0.91693607  0.74388444  1
  Na  Na11  1  0.14033792  0.91780277  0.99348755  1
  Na  Na12  1  0.64041957  0.24997326  0.24263434  1
  Na  Na13  1  0.63977980  0.24858669  0.49323365  1
  Na  Na14  1  0.64038724  0.25005534  0.74495186  1
  Na  Na15  1  0.64087009  0.25062174  0.99494099  1
  Na  Na16  1  0.64037724  0.58344224  0.24249171  1
  Na  Na17  1  0.63975670  0.58300308  0.49372016  1
  Na  Na18  1  0.63917517  0.58311869  0.74368075  1
  Na  Na19  1  0.63967292  0.58216246  0.99267334  1
  Na  Na20  1  0.64070901  0.91870097  0.24297884  1
  Na  Na21  1  0.64032420  0.91656475  0.49315824  1
  Na  Na22  1  0.64040828  0.91734454  0.74336383  1
  Na  Na23  1  0.64030029  0.91738897  0.99385114  1
  Na  Na24  1  0.35986848  0.08300267  0.00546471  1
  Na  Na25  1  0.36086919  0.08335695  0.25794158  1
  Na  Na26  1  0.36044951  0.08352749  0.50653106  1
  Na  Na27  1  0.35986059  0.08339086  0.75661902  1
  Na  Na28  1  0.35990843  0.41708873  0.00632006  1
  Na  Na29  1  0.36013772  0.41686370  0.25610001  1
  Na  Na30  1  0.36029874  0.41648221  0.50662900  1
  Na  Na31  1  0.35959334  0.41592701  0.75708576  1
  Na  Na32  1  0.35953523  0.74859319  0.00572486  1
  Na  Na33  1  0.35943693  0.74983766  0.25472012  1
  Na  Na34  1  0.35982804  0.75022108  0.50605336  1
  Na  Na35  1  0.35953339  0.74969794  0.75648354  1
  Na  Na36  1  0.85975439  0.08362140  0.00702640  1
  Na  Na37  1  0.86009994  0.08388182  0.25557656  1
  Na  Na38  1  0.86006582  0.08257665  0.50590337  1
  Na  Na39  1  0.85964231  0.08493154  0.75656837  1
  Na  Na40  1  0.85990621  0.41627068  0.00711717  1
  Na  Na41  1  0.86009769  0.41760712  0.25595625  1
  Na  Na42  1  0.85929305  0.41661315  0.50610780  1
  Na  Na43  1  0.85900868  0.41652060  0.75730083  1
  Na  Na44  1  0.85874916  0.74968692  0.00538077  1
  Na  Na45  1  0.85886580  0.75143943  0.25630376  1
  Na  Na46  1  0.86011899  0.74962766  0.50682941  1
  Na  Na47  1  0.86007674  0.74992276  0.75569477  1
  Na  Na48  1  0.11031996  0.08412952  0.11941491  1
  Na  Na49  1  0.11021515  0.08325003  0.36869402  1
  Na  Na50  1  0.10936797  0.08310138  0.61933552  1
  Na  Na51  1  0.10965082  0.08295761  0.86783062  1
  Na  Na52  1  0.10996144  0.41703358  0.11869119  1
  Na  Na53  1  0.10908051  0.41601993  0.36861367  1
  Na  Na54  1  0.10931254  0.41631372  0.62037666  1
  Na  Na55  1  0.10978416  0.41720597  0.86787316  1
  Na  Na56  1  0.10914276  0.74946312  0.11836158  1
  Na  Na57  1  0.10941330  0.74916059  0.36963385  1
  Na  Na58  1  0.10935866  0.75112437  0.61883443  1
  Na  Na59  1  0.10908201  0.75019473  0.86893134  1
  Na  Na60  1  0.61007986  0.08462315  0.11851267  1
  Na  Na61  1  0.60997006  0.08310532  0.36817704  1
  Na  Na62  1  0.60953535  0.08380588  0.61829930  1
  Na  Na63  1  0.61023554  0.08357001  0.86940898  1
  Na  Na64  1  0.60986912  0.41783272  0.11770072  1
  Na  Na65  1  0.60933050  0.41581790  0.36867913  1
  Na  Na66  1  0.60886880  0.41609263  0.61916158  1
  Na  Na67  1  0.60964446  0.41685465  0.86981397  1
  Na  Na68  1  0.60946481  0.75056751  0.11747309  1
  Na  Na69  1  0.60952100  0.74955368  0.36803560  1
  Na  Na70  1  0.60931828  0.74847443  0.61818930  1
  Na  Na71  1  0.60901195  0.74866064  0.86782225  1
  Na  Na72  1  0.39089762  0.25064990  0.13141746  1
  Na  Na73  1  0.39126326  0.24918922  0.38259938  1
  Na  Na74  1  0.39030546  0.25011292  0.63148696  1
  Na  Na75  1  0.39027013  0.24998133  0.88230689  1
  Na  Na76  1  0.38988136  0.58318709  0.13054710  1
  Na  Na77  1  0.39056231  0.58190828  0.37991763  1
  Na  Na78  1  0.39084860  0.58235989  0.63151338  1
  Na  Na79  1  0.39022777  0.58196738  0.88189180  1
  Na  Na80  1  0.39078411  0.91838430  0.13113933  1
  Na  Na81  1  0.39079968  0.91806261  0.38160254  1
  Na  Na82  1  0.39044782  0.91613563  0.63118353  1
  Na  Na83  1  0.39081773  0.91657833  0.88074005  1
  Na  Na84  1  0.89065219  0.25094919  0.13210376  1
  Na  Na85  1  0.89066942  0.24914621  0.37986697  1
  Na  Na86  1  0.89001701  0.24963131  0.63256126  1
  Na  Na87  1  0.88976467  0.25003582  0.88213072  1
  Na  Na88  1  0.88985252  0.58199406  0.13138686  1
  Na  Na89  1  0.89001217  0.58383815  0.38139226  1
  Na  Na90  1  0.89008740  0.58504458  0.63162867  1
  Na  Na91  1  0.89002379  0.58402374  0.88071739  1
  Na  Na92  1  0.88985769  0.91822285  0.13157648  1
  Na  Na93  1  0.89054560  0.91647633  0.38159552  1
  Na  Na94  1  0.89083744  0.91668034  0.63042885  1
  Na  Na95  1  0.89032318  0.91647807  0.88096999  1
  Mn  Mn96  1  0.24961730  0.33275469  0.37508501  1
  Mn  Mn97  1  0.49984708  0.16668673  0.00061430  1
  Mn  Mn98  1  0.74949780  0.50067072  0.62599727  1
  Mn  Mn99  1  0.75057600  0.16583941  0.37365782  1
  Mn  Mn100  1  0.75032289  0.00065657  0.62475944  1
  Mn  Mn101  1  0.50041042  0.16584296  0.75060082  1
  Mn  Mn102  1  0.74994069  0.83239154  0.62406601  1
  Mn  Mn103  1  0.25057799  0.66692350  0.62517697  1
  Mn  Mn104  1  0.24938558  0.83354054  0.37466138  1
  Mn  Mn105  1  0.25024395  0.49873146  0.62501526  1
  Mn  Mn106  1  0.00069306  0.33407537  0.00069964  1
  Mn  Mn107  1  -0.00089378  0.66572883  0.24961047  1
  Mn  Mn108  1  0.50010502  0.83382037  -0.00097009  1
  Mn  Mn109  1  0.24935484  -0.00007912  0.62534843  1
  Mn  Mn110  1  0.24952462  0.83378814  0.87583168  1
  Mn  Mn111  1  0.49989911  0.83374990  0.49940657  1
  Mn  Mn112  1  0.74957380  0.83268221  0.87438570  1
  Mn  Mn113  1  0.00014997  0.83336373  0.25022358  1
  Mn  Mn114  1  0.49978083  0.83439701  0.24881890  1
  Mn  Mn115  1  0.74988959  0.83368343  0.37468851  1
  Mn  Mn116  1  0.25022849  0.66654723  0.37495939  1
  Mn  Mn117  1  -0.00095185  0.83415281  -0.00031680  1
  Mn  Mn118  1  0.25106836  0.33372027  0.12436819  1
  Mn  Mn119  1  0.74928878  0.66701915  0.12471842  1
  Mn  Mn120  1  -0.00115328  0.50033694  0.50037078  1
  Mn  Mn121  1  0.50011487  0.33356137  0.25050686  1
  Mn  Mn122  1  0.25064096  0.16633085  0.12472027  1
  Mn  Mn123  1  0.24947421  0.16734801  0.62604140  1
  Mn  Mn124  1  0.24996025  0.49971746  0.37526526  1
  Mn  Mn125  1  0.75008884  0.33332636  0.37472567  1
  Mn  Mn126  1  -0.00033266  -0.00037942  0.74965899  1
  Mn  Mn127  1  0.25008394  0.00038660  0.12503031  1
  Mn  Mn128  1  0.50036123  0.83286197  0.74978825  1
  Mn  Mn129  1  -0.00110733  0.66613615  -0.00044386  1
  Mn  Mn130  1  0.00087435  0.16630691  0.50049666  1
  Mn  Mn131  1  0.00081170  0.16652569  0.00021586  1
  Mn  Mn132  1  0.49949169  0.66512803  0.49872056  1
  Mn  Mn133  1  0.49980858  0.66578945  0.24884017  1
  Mn  Mn134  1  0.25073455  0.83296950  0.12468602  1
  Mn  Mn135  1  0.50009322  0.33359808  0.75038139  1
  Mn  Mn136  1  0.75046233  0.00117996  0.87471878  1
  Mn  Mn137  1  0.74990923  0.49977308  0.87507710  1
  Mn  Mn138  1  0.24901279  0.66593150  0.87524599  1
  Mn  Mn139  1  -0.00054731  0.50070506  0.74951000  1
  Mn  Mn140  1  -0.00028460  0.33286935  0.49991414  1
  Mn  Mn141  1  0.74933090  0.50100900  0.37525600  1
  Mn  Mn142  1  0.00097006  0.00059350  0.25072202  1
  Mn  Mn143  1  0.74951985  0.33231351  0.62567929  1
  Fe  Fe144  1  0.25022894  0.16691028  0.87471504  1
  Fe  Fe145  1  0.00021207  0.66745041  0.75009611  1
  Fe  Fe146  1  0.50050762  0.00112664  0.25050397  1
  Fe  Fe147  1  0.50068499  0.16673029  0.25070697  1
  Fe  Fe148  1  0.49933827  0.49950035  0.75024487  1
  Fe  Fe149  1  0.24958778  0.49957501  0.12478568  1
  Fe  Fe150  1  0.25082108  0.16660784  0.37533896  1
  Fe  Fe151  1  -0.00101479  0.33360789  0.75039294  1
  Fe  Fe152  1  0.50018912  0.16598745  0.50044995  1
  Fe  Fe153  1  0.00034709  0.33348039  0.25005437  1
  Fe  Fe154  1  0.75068024  0.16705905  0.12477588  1
  Fe  Fe155  1  0.00012222  0.83308069  0.50053846  1
  Fe  Fe156  1  -0.00071911  0.16642861  0.75036216  1
  Fe  Fe157  1  0.75001099  0.16674539  0.62508898  1
  Fe  Fe158  1  0.75041260  0.00019519  0.37418192  1
  Fe  Fe159  1  0.50039409  0.49963783  0.24911671  1
  Fe  Fe160  1  0.74950782  0.83387172  0.12521194  1
  Fe  Fe161  1  0.50026722  -0.00031534  0.74980856  1
  Fe  Fe162  1  0.75039354  0.33370136  0.12460642  1
  Fe  Fe163  1  0.50079527  0.00024999  0.50016098  1
  Fe  Fe164  1  0.25084644  0.00008763  0.37551426  1
  Fe  Fe165  1  0.50020950  0.49911595  0.50020623  1
  Fe  Fe166  1  0.24911450  0.66570394  0.12510731  1
  Fe  Fe167  1  0.74984896  0.16751675  0.87618655  1
  Fe  Fe168  1  0.00012832  0.00010407  0.49990514  1
  Fe  Fe169  1  0.00026727  0.16668217  0.24971265  1
  Fe  Fe170  1  0.25021834  0.33325773  0.87528031  1
  Fe  Fe171  1  0.49960693  0.66563935  0.74933945  1
  Fe  Fe172  1  0.24970535  0.33281852  0.62575660  1
  Fe  Fe173  1  0.00016470  0.00033146  -0.00016890  1
  Fe  Fe174  1  0.75008341  0.00047902  0.12420913  1
  Fe  Fe175  1  -0.00021132  0.49999442  -0.00038791  1
  Fe  Fe176  1  0.25006760  0.83383699  0.62506599  1
  Fe  Fe177  1  0.00030981  0.49966582  0.25067917  1
  Fe  Fe178  1  0.00029629  0.66687628  0.50049431  1
  Fe  Fe179  1  0.50000306  0.33277897  0.49989870  1
  Fe  Fe180  1  0.25068470  0.00027530  0.87450282  1
  Fe  Fe181  1  0.74958446  0.66655505  0.62492130  1
  Fe  Fe182  1  0.74913951  0.66634854  0.87531022  1
  Fe  Fe183  1  0.74992638  0.33294932  0.87615308  1
  Fe  Fe184  1  0.49975047  0.66630454  -0.00095505  1
  Fe  Fe185  1  0.00023185  0.83367716  0.74960723  1
  Fe  Fe186  1  0.25010312  0.49948096  0.87511844  1
  Fe  Fe187  1  0.49982577  0.50048670  -0.00057602  1
  Fe  Fe188  1  0.74988980  0.66724240  0.37434098  1
  Fe  Fe189  1  0.50023933  0.00074889  0.00046806  1
  Fe  Fe190  1  0.50037230  0.33394779  0.00072727  1
  Fe  Fe191  1  0.75027036  0.50018131  0.12460794  1
  P  P192  1  0.04323744  0.25018597  0.10404690  1
  P  P193  1  0.04174070  0.24952880  0.35143298  1
  P  P194  1  0.04217466  0.25008866  0.60464231  1
  P  P195  1  0.04072935  0.25013583  0.85176314  1
  P  P196  1  0.04151764  0.58159874  0.10256706  1
  P  P197  1  0.04200572  0.58251578  0.35313849  1
  P  P198  1  0.04187250  0.58496840  0.60314634  1
  P  P199  1  0.04190384  0.58449067  0.85228855  1
  P  P200  1  0.04238655  0.91836788  0.10232488  1
  P  P201  1  0.04275413  0.91632271  0.35443748  1
  P  P202  1  0.04136337  0.91684435  0.60173521  1
  P  P203  1  0.04216015  0.91582794  0.85244668  1
  P  P204  1  0.54228090  0.25140078  0.10314682  1
  P  P205  1  0.54250405  0.24870995  0.35328216  1
  P  P206  1  0.54107577  0.24974784  0.60170481  1
  P  P207  1  0.54236142  0.25032126  0.85410367  1
  P  P208  1  0.54126928  0.58346929  0.10095671  1
  P  P209  1  0.54230816  0.58105822  0.35187744  1
  P  P210  1  0.54178096  0.58159809  0.60295074  1
  P  P211  1  0.54059781  0.58266580  0.85198601  1
  P  P212  1  0.54219130  0.91872323  0.10249323  1
  P  P213  1  0.54239397  0.91834752  0.35232716  1
  P  P214  1  0.54252510  0.91776019  0.60256529  1
  P  P215  1  0.54256990  0.91786072  0.85246713  1
  P  P216  1  0.45886090  0.08400853  0.14869638  1
  P  P217  1  0.45945818  0.08318117  0.39817123  1
  P  P218  1  0.45799685  0.08181087  0.64714665  1
  P  P219  1  0.45819779  0.08185596  0.89744799  1
  P  P220  1  0.45826734  0.41789665  0.14670116  1
  P  P221  1  0.45885815  0.41640923  0.39819312  1
  P  P222  1  0.45768461  0.41740931  0.64719863  1
  P  P223  1  0.45868830  0.41662692  0.89858476  1
  P  P224  1  0.45744369  0.74996697  0.14538556  1
  P  P225  1  0.45717741  0.74994309  0.39607642  1
  P  P226  1  0.45769620  0.74838119  0.64728659  1
  P  P227  1  0.45781873  0.74822584  0.89653584  1
  P  P228  1  0.95828818  0.08436606  0.14725429  1
  P  P229  1  0.95828000  0.08270974  0.39729755  1
  P  P230  1  0.95776246  0.08409053  0.64738046  1
  P  P231  1  0.95781812  0.08246632  0.89735405  1
  P  P232  1  0.95922917  0.41715315  0.14838694  1
  P  P233  1  0.95700830  0.41649091  0.39616488  1
  P  P234  1  0.95673171  0.41582987  0.64789793  1
  P  P235  1  0.95782645  0.41762495  0.89731304  1
  P  P236  1  0.95647368  0.75017832  0.14688344  1
  P  P237  1  0.95848910  0.74966433  0.39885166  1
  P  P238  1  0.95905370  0.75060854  0.64771654  1
  P  P239  1  0.95691161  0.75023776  0.89581690  1
  P  P240  1  0.20825221  0.08350552  0.22932231  1
  P  P241  1  0.20886827  0.08366311  0.47684014  1
  P  P242  1  0.20721546  0.08362287  0.72937918  1
  P  P243  1  0.20862241  0.08363071  0.97590256  1
  P  P244  1  0.20787667  0.41719038  0.22722173  1
  P  P245  1  0.20677790  0.41587104  0.47875219  1
  P  P246  1  0.20791241  0.41483401  0.72875925  1
  P  P247  1  0.20859030  0.41669368  0.97671316  1
  P  P248  1  0.20738958  0.74893441  0.22702916  1
  P  P249  1  0.20742283  0.75034609  0.47871847  1
  P  P250  1  0.20776045  0.75154224  0.72746697  1
  P  P251  1  0.20669371  0.74922406  0.97893864  1
  P  P252  1  0.70919999  0.08353688  0.22601004  1
  P  P253  1  0.70815930  0.08226645  0.47700665  1
  P  P254  1  0.70780515  0.08538860  0.72787664  1
  P  P255  1  0.70849401  0.08499919  0.97859527  1
  P  P256  1  0.70878803  0.41711092  0.22604711  1
  P  P257  1  0.70694989  0.41644797  0.47822737  1
  P  P258  1  0.70695819  0.41620951  0.72916179  1
  P  P259  1  0.70835933  0.41530403  0.97855955  1
  P  P260  1  0.70712885  0.75173315  0.22737486  1
  P  P261  1  0.70763029  0.74838281  0.47723856  1
  P  P262  1  0.70741293  0.74833967  0.72743438  1
  P  P263  1  0.70686972  0.74890249  0.97751455  1
  P  P264  1  0.29304342  0.24985976  0.02076467  1
  P  P265  1  0.29319252  0.24879359  0.27287194  1
  P  P266  1  0.29209804  0.25075146  0.52281300  1
  P  P267  1  0.29185256  0.25041293  0.77355641  1
  P  P268  1  0.29078416  0.58231627  0.02302708  1
  P  P269  1  0.29233519  0.58303263  0.27069632  1
  P  P270  1  0.29328005  0.58295808  0.52211901  1
  P  P271  1  0.29203436  0.58179061  0.77293549  1
  P  P272  1  0.29302579  0.91725409  0.02127501  1
  P  P273  1  0.29282142  0.91781482  0.27280422  1
  P  P274  1  0.29213359  0.91615830  0.52238309  1
  P  P275  1  0.29222456  0.91734911  0.77236377  1
  P  P276  1  0.79196762  0.25018124  0.02308387  1
  P  P277  1  0.79259056  0.25042742  0.27043784  1
  P  P278  1  0.79245746  0.24838271  0.52264141  1
  P  P279  1  0.79128244  0.24988203  0.77394731  1
  P  P280  1  0.79185291  0.58232275  0.02221086  1
  P  P281  1  0.79190090  0.58489383  0.27200807  1
  P  P282  1  0.79182654  0.58477449  0.52242951  1
  P  P283  1  0.79159716  0.58503107  0.77250514  1
  P  P284  1  0.79118878  0.91634437  0.02319148  1
  P  P285  1  0.79226173  0.91831366  0.27141296  1
  P  P286  1  0.79275775  0.91673650  0.52112689  1
  P  P287  1  0.79275215  0.91686332  0.77172999  1
  O  O288  1  0.03817600  0.24995162  0.18392968  1
  O  O289  1  0.03702284  0.24975096  0.43144837  1
  O  O290  1  0.03643404  0.25008140  0.68450280  1
  O  O291  1  0.03642548  0.25027995  0.93181573  1
  O  O292  1  0.03640405  0.58127216  0.18253740  1
  O  O293  1  0.03667338  0.58344572  0.43308071  1
  O  O294  1  0.03657700  0.58523447  0.68308998  1
  O  O295  1  0.03669663  0.58368516  0.93220304  1
  O  O296  1  0.03767293  0.91812662  0.18234648  1
  O  O297  1  0.03726824  0.91643258  0.43430081  1
  O  O298  1  0.03638297  0.91622462  0.68169049  1
  O  O299  1  0.03689350  0.91679703  0.93233379  1
  O  O300  1  0.53716307  0.25091466  0.18306546  1
  O  O301  1  0.53726072  0.24897872  0.43315365  1
  O  O302  1  0.53673918  0.24952032  0.68171823  1
  O  O303  1  0.53695682  0.25080521  0.93398057  1
  O  O304  1  0.53690959  0.58274291  0.18090383  1
  O  O305  1  0.53702861  0.58079204  0.43181325  1
  O  O306  1  0.53609434  0.58218507  0.68281775  1
  O  O307  1  0.53560834  0.58341445  0.93189632  1
  O  O308  1  0.53665768  0.91888287  0.18240111  1
  O  O309  1  0.53719097  0.91825176  0.43229481  1
  O  O310  1  0.53739683  0.91757758  0.68251365  1
  O  O311  1  0.53710011  0.91771921  0.93237562  1
  O  O312  1  0.46377077  0.08372645  0.06873117  1
  O  O313  1  0.46439206  0.08366598  0.31826959  1
  O  O314  1  0.46347900  0.08216163  0.56727618  1
  O  O315  1  0.46344801  0.08170323  0.81755239  1
  O  O316  1  0.46359080  0.41751046  0.06687401  1
  O  O317  1  0.46368232  0.41629812  0.31824626  1
  O  O318  1  0.46310753  0.41716067  0.56738042  1
  O  O319  1  0.46325780  0.41707510  0.81863494  1
  O  O320  1  0.46291705  0.74955436  0.06544087  1
  O  O321  1  0.46239493  0.75015608  0.31612042  1
  O  O322  1  0.46254060  0.74872346  0.56730383  1
  O  O323  1  0.46338504  0.74795565  0.81659571  1
  O  O324  1  0.96345305  0.08342734  0.06731963  1
  O  O325  1  0.96376793  0.08370542  0.31739262  1
  O  O326  1  0.96324883  0.08347947  0.56749225  1
  O  O327  1  0.96280089  0.08311713  0.81736720  1
  O  O328  1  0.96388674  0.41740961  0.06837713  1
  O  O329  1  0.96266199  0.41665756  0.31627487  1
  O  O330  1  0.96167137  0.41598033  0.56792344  1
  O  O331  1  0.96274556  0.41681100  0.81736090  1
  O  O332  1  0.96128089  0.75028173  0.06692829  1
  O  O333  1  0.96308748  0.74969122  0.31884873  1
  O  O334  1  0.96433878  0.75015591  0.56781864  1
  O  O335  1  0.96254664  0.75031753  0.81593325  1
  O  O336  1  0.21351903  0.08353097  0.05593824  1
  O  O337  1  0.21359533  0.08339841  0.30923786  1
  O  O338  1  0.21331964  0.08374943  0.55689658  1
  O  O339  1  0.21271119  0.08340896  0.80922897  1
  O  O340  1  0.21377395  0.41731471  0.05667754  1
  O  O341  1  0.21270104  0.41673643  0.30719296  1
  O  O342  1  0.21182566  0.41518985  0.55872771  1
  O  O343  1  0.21364686  0.41526279  0.80863826  1
  O  O344  1  0.21201319  0.74853505  0.05884750  1
  O  O345  1  0.21230619  0.74932454  0.30705504  1
  O  O346  1  0.21290095  0.75098053  0.55864575  1
  O  O347  1  0.21266970  0.75116664  0.80747509  1
  O  O348  1  0.71412575  0.08469820  0.05843391  1
  O  O349  1  0.71396836  0.08257589  0.30597800  1
  O  O350  1  0.71318144  0.08306847  0.55694051  1
  O  O351  1  0.71299820  0.08563287  0.80786419  1
  O  O352  1  0.71402809  0.41569166  0.05842314  1
  O  O353  1  0.71347528  0.41745098  0.30607118  1
  O  O354  1  0.71197404  0.41637849  0.55818992  1
  O  O355  1  0.71250124  0.41571012  0.80910431  1
  O  O356  1  0.71204487  0.74963035  0.05741293  1
  O  O357  1  0.71245525  0.75118200  0.30729359  1
  O  O358  1  0.71280347  0.74812617  0.55722034  1
  O  O359  1  0.71244356  0.74835498  0.80740749  1
  O  O360  1  0.28852054  0.24919802  0.19284409  1
  O  O361  1  0.28702419  0.24974962  0.44285860  1
  O  O362  1  0.28652025  0.25099109  0.69360586  1
  O  O363  1  0.28757177  0.24991884  0.94087716  1
  O  O364  1  0.28652899  0.58301497  0.19077035  1
  O  O365  1  0.28836565  0.58287876  0.44212826  1
  O  O366  1  0.28723051  0.58201005  0.69298512  1
  O  O367  1  0.28593826  0.58208123  0.94301667  1
  O  O368  1  0.28808685  0.91767312  0.19279015  1
  O  O369  1  0.28687110  0.91687589  0.44243932  1
  O  O370  1  0.28687180  0.91669307  0.69240536  1
  O  O371  1  0.28770814  0.91783727  0.94133092  1
  O  O372  1  0.78725655  0.25057796  0.19055741  1
  O  O373  1  0.78767050  0.24867142  0.44264996  1
  O  O374  1  0.78617283  0.24938358  0.69398159  1
  O  O375  1  0.78645076  0.25035294  0.94316390  1
  O  O376  1  0.78665113  0.58422294  0.19209590  1
  O  O377  1  0.78666050  0.58500165  0.44245440  1
  O  O378  1  0.78639569  0.58508628  0.69254826  1
  O  O379  1  0.78666288  0.58269359  0.94229602  1
  O  O380  1  0.78674841  0.91776965  0.19153235  1
  O  O381  1  0.78759653  0.91723636  0.44116281  1
  O  O382  1  0.78763416  0.91677731  0.69179319  1
  O  O383  1  0.78642788  0.91647395  0.94320863  1
  O  O384  1  0.22887832  0.25002674  0.05654502  1
  O  O385  1  0.22868592  0.24803675  0.30791125  1
  O  O386  1  0.22777272  0.25157463  0.55848714  1
  O  O387  1  0.22774022  0.25028030  0.80975033  1
  O  O388  1  0.22662506  0.58201014  0.05898327  1
  O  O389  1  0.22819452  0.58309370  0.30667675  1
  O  O390  1  0.22884049  0.58301500  0.55704444  1
  O  O391  1  0.22759910  0.58138224  0.80808604  1
  O  O392  1  0.22871284  0.91669608  0.05660826  1
  O  O393  1  0.22836727  0.91846619  0.30788710  1
  O  O394  1  0.22782514  0.91525190  0.55810115  1
  O  O395  1  0.22798696  0.91802195  0.80804099  1
  O  O396  1  0.72802406  0.25012150  0.05963789  1
  O  O397  1  0.72839888  0.25000353  0.30621237  1
  O  O398  1  0.72793815  0.24813991  0.55778595  1
  O  O399  1  0.72718432  0.25007554  0.81014083  1
  O  O400  1  0.72758737  0.58196748  0.05787410  1
  O  O401  1  0.72760247  0.58547214  0.30769805  1
  O  O402  1  0.72750772  0.58468939  0.55805056  1
  O  O403  1  0.72736764  0.58455808  0.80828312  1
  O  O404  1  0.72699270  0.91605128  0.05887529  1
  O  O405  1  0.72813743  0.91862942  0.30763665  1
  O  O406  1  0.72845839  0.91669868  0.55650926  1
  O  O407  1  0.72838871  0.91723737  0.80686511  1
  O  O408  1  0.27254324  0.08330516  0.19375801  1
  O  O409  1  0.27321260  0.08386669  0.44139698  1
  O  O410  1  0.27136651  0.08342567  0.69361116  1
  O  O411  1  0.27289278  0.08406922  0.94025934  1
  O  O412  1  0.27227604  0.41816254  0.19193330  1
  O  O413  1  0.27125317  0.41598703  0.44374327  1
  O  O414  1  0.27198419  0.41430604  0.69238117  1
  O  O415  1  0.27278343  0.41620405  0.94080817  1
  O  O416  1  0.27177206  0.74845169  0.19178641  1
  O  O417  1  0.27168139  0.75033855  0.44320315  1
  O  O418  1  0.27214328  0.75185969  0.69213245  1
  O  O419  1  0.27098593  0.74936188  0.94354104  1
  O  O420  1  0.77334512  0.08416306  0.19021369  1
  O  O421  1  0.77247663  0.08156007  0.44131428  1
  O  O422  1  0.77210911  0.08540602  0.69223863  1
  O  O423  1  0.77251451  0.08534834  0.94221214  1
  O  O424  1  0.77306788  0.41707105  0.19047357  1
  O  O425  1  0.77136391  0.41695263  0.44316950  1
  O  O426  1  0.77118582  0.41630786  0.69360555  1
  O  O427  1  0.77235101  0.41526720  0.94218359  1
  O  O428  1  0.77136787  0.75179041  0.19160793  1
  O  O429  1  0.77193220  0.74859953  0.44162154  1
  O  O430  1  0.77176920  0.74833815  0.69191515  1
  O  O431  1  0.77118823  0.74840066  0.94189232  1
  O  O432  1  0.02255075  0.08519816  0.18305355  1
  O  O433  1  0.02249840  0.08169887  0.43328731  1
  O  O434  1  0.02189270  0.08449850  0.68341488  1
  O  O435  1  0.02222832  0.08180560  0.93282740  1
  O  O436  1  0.02333576  0.41746075  0.18440342  1
  O  O437  1  0.02116136  0.41694591  0.43213203  1
  O  O438  1  0.02110921  0.41584246  0.68321022  1
  O  O439  1  0.02220570  0.41839254  0.93284835  1
  O  O440  1  0.02101625  0.74956031  0.18171089  1
  O  O441  1  0.02270601  0.74940954  0.43459039  1
  O  O442  1  0.02302302  0.75098024  0.68435041  1
  O  O443  1  0.02099727  0.75016390  0.93188047  1
  O  O444  1  0.52310173  0.08396255  0.18465819  1
  O  O445  1  0.52352541  0.08277905  0.43438017  1
  O  O446  1  0.52219615  0.08145566  0.68333614  1
  O  O447  1  0.52240325  0.08229321  0.93338222  1
  O  O448  1  0.52245932  0.41777280  0.18281747  1
  O  O449  1  0.52296948  0.41669990  0.43426705  1
  O  O450  1  0.52182109  0.41816136  0.68346983  1
  O  O451  1  0.52287117  0.41624938  0.93444010  1
  O  O452  1  0.52164005  0.75010092  0.18110700  1
  O  O453  1  0.52150580  0.74962738  0.43138387  1
  O  O454  1  0.52203957  0.74828225  0.68270704  1
  O  O455  1  0.52195102  0.74829186  0.93262166  1
  O  O456  1  0.47809527  0.25173882  0.06724229  1
  O  O457  1  0.47832358  0.24851024  0.31721604  1
  O  O458  1  0.47690347  0.24982272  0.56607552  1
  O  O459  1  0.47819101  0.24985899  0.81832850  1
  O  O460  1  0.47695246  0.58418453  0.06542416  1
  O  O461  1  0.47802922  0.58104879  0.31607015  1
  O  O462  1  0.47774082  0.58079687  0.56645520  1
  O  O463  1  0.47658861  0.58211484  0.81557050  1
  O  O464  1  0.47805020  0.91858395  0.06638979  1
  O  O465  1  0.47811623  0.91876279  0.31658659  1
  O  O466  1  0.47824164  0.91813425  0.56683406  1
  O  O467  1  0.47838384  0.91783216  0.81641666  1
  O  O468  1  0.97893940  0.25012500  0.06850725  1
  O  O469  1  0.97758849  0.24917739  0.31555299  1
  O  O470  1  0.97807247  0.24943600  0.56858796  1
  O  O471  1  0.97644912  0.24996156  0.81627386  1
  O  O472  1  0.97721784  0.58132144  0.06682313  1
  O  O473  1  0.97772319  0.58167809  0.31732144  1
  O  O474  1  0.97760484  0.58529355  0.56738162  1
  O  O475  1  0.97764086  0.58488655  0.81661008  1
  O  O476  1  0.97787447  0.91896643  0.06714693  1
  O  O477  1  0.97856967  0.91675162  0.31852342  1
  O  O478  1  0.97732454  0.91764124  0.56551554  1
  O  O479  1  0.97791817  0.91498494  0.81660074  1
  O  O480  1  0.07418067  0.31370809  0.07553370  1
  O  O481  1  0.07200807  0.31355540  0.32314715  1
  O  O482  1  0.07295758  0.31362451  0.57606316  1
  O  O483  1  0.07120293  0.31403728  0.82368291  1
  O  O484  1  0.07215836  0.64560770  0.07502003  1
  O  O485  1  0.07285156  0.64599702  0.32455547  1
  O  O486  1  0.07319314  0.64801468  0.57443257  1
  O  O487  1  0.07264161  0.64821178  0.82411895  1
  O  O488  1  0.07325569  0.98183415  0.07383705  1
  O  O489  1  0.07435455  0.97943989  0.32604347  1
  O  O490  1  0.07262442  0.98053095  0.57417481  1
  O  O491  1  0.07297396  0.97934504  0.82393470  1
  O  O492  1  0.57305336  0.31497921  0.07478102  1
  O  O493  1  0.57362434  0.31221870  0.32495247  1
  O  O494  1  0.57184887  0.31346738  0.57362677  1
  O  O495  1  0.57341994  0.31358887  0.82549969  1
  O  O496  1  0.57244210  0.64698186  0.07295276  1
  O  O497  1  0.57310418  0.64498754  0.32424017  1
  O  O498  1  0.57251507  0.64528366  0.57444720  1
  O  O499  1  0.57111591  0.64626774  0.82285543  1
  O  O500  1  0.57307201  0.98217389  0.07400482  1
  O  O501  1  0.57354830  0.98159897  0.32372342  1
  O  O502  1  0.57371927  0.98094643  0.57393444  1
  O  O503  1  0.57358412  0.98117457  0.82400874  1
  O  O504  1  0.42777407  0.02062368  0.17712305  1
  O  O505  1  0.42809503  0.01984179  0.42641027  1
  O  O506  1  0.42691739  0.01850309  0.67573578  1
  O  O507  1  0.42752985  0.01847905  0.92631479  1
  O  O508  1  0.42686233  0.35462471  0.17517291  1
  O  O509  1  0.42869303  0.35229697  0.42668215  1
  O  O510  1  0.42716129  0.35347681  0.67542485  1
  O  O511  1  0.42777811  0.35302071  0.92669918  1
  O  O512  1  0.42619489  0.68673338  0.17379416  1
  O  O513  1  0.42595220  0.68641512  0.42378006  1
  O  O514  1  0.42697182  0.68479633  0.67565196  1
  O  O515  1  0.42664821  0.68505513  0.92526505  1
  O  O516  1  0.92739278  0.02093083  0.17573700  1
  O  O517  1  0.92721700  0.01917526  0.42529056  1
  O  O518  1  0.92650578  0.02058277  0.67522460  1
  O  O519  1  0.92705746  0.01882948  0.92566147  1
  O  O520  1  0.92922365  0.35281438  0.17642049  1
  O  O521  1  0.92613054  0.35278333  0.42427037  1
  O  O522  1  0.92616423  0.35230996  0.67662028  1
  O  O523  1  0.92706941  0.35415076  0.92600539  1
  O  O524  1  0.92521158  0.68680071  0.17492768  1
  O  O525  1  0.92749581  0.68611396  0.42696865  1
  O  O526  1  0.92832395  0.68698088  0.67640487  1
  O  O527  1  0.92558432  0.68688991  0.92410999  1
  O  O528  1  0.17681234  0.02028935  0.20072355  1
  O  O529  1  0.17856589  0.01966189  0.44875503  1
  O  O530  1  0.17572602  0.02050955  0.70069372  1
  O  O531  1  0.17827783  0.01968663  0.94776957  1
  O  O532  1  0.17772019  0.35314105  0.19910993  1
  O  O533  1  0.17552111  0.35281338  0.44975112  1
  O  O534  1  0.17672614  0.35149516  0.70038928  1
  O  O535  1  0.17750649  0.35296123  0.94902313  1
  O  O536  1  0.17650191  0.68539531  0.19876160  1
  O  O537  1  0.17661066  0.68650638  0.45097763  1
  O  O538  1  0.17699770  0.68765643  0.69984986  1
  O  O539  1  0.17537966  0.68613431  0.95011691  1
  O  O540  1  0.67865066  0.02001253  0.19687771  1
  O  O541  1  0.67732958  0.01871960  0.44866983  1
  O  O542  1  0.67696707  0.02152304  0.70018396  1
  O  O543  1  0.67748263  0.02136746  0.95042638  1
  O  O544  1  0.67796195  0.35336611  0.19817861  1
  O  O545  1  0.67641658  0.35273810  0.44989175  1
  O  O546  1  0.67554457  0.35306778  0.70070561  1
  O  O547  1  0.67743320  0.35178546  0.95016319  1
  O  O548  1  0.67572723  0.68838613  0.19932216  1
  O  O549  1  0.67675772  0.68515521  0.44824273  1
  O  O550  1  0.67648438  0.68505087  0.69866372  1
  O  O551  1  0.67627685  0.68512063  0.94923509  1
  O  O552  1  0.32427844  0.31320639  0.04929445  1
  O  O553  1  0.32365676  0.31275544  0.30080727  1
  O  O554  1  0.32300234  0.31427337  0.55105029  1
  O  O555  1  0.32309499  0.31361293  0.80217067  1
  O  O556  1  0.32100447  0.64643073  0.05115035  1
  O  O557  1  0.32370614  0.64639892  0.29888257  1
  O  O558  1  0.32431413  0.64645670  0.55017523  1
  O  O559  1  0.32268937  0.64563585  0.80080420  1
  O  O560  1  0.32405274  0.98053984  0.04993845  1
  O  O561  1  0.32377668  0.98105546  0.30171569  1
  O  O562  1  0.32285572  0.97981829  0.55066863  1
  O  O563  1  0.32309240  0.98104347  0.80052350  1
  O  O564  1  0.82291605  0.31383128  0.05140388  1
  O  O565  1  0.82350991  0.31384850  0.29907077  1
  O  O566  1  0.82327547  0.31203598  0.55083014  1
  O  O567  1  0.82199233  0.31379557  0.80184154  1
  O  O568  1  0.82301170  0.64577905  0.05023593  1
  O  O569  1  0.82268904  0.64858232  0.30020633  1
  O  O570  1  0.82274716  0.64799483  0.55145698  1
  O  O571  1  0.82221398  0.64841442  0.80138606  1
  O  O572  1  0.82155243  0.98042082  0.05127107  1
  O  O573  1  0.82329878  0.98174688  0.29982238  1
  O  O574  1  0.82418623  0.97973916  0.54977516  1
  O  O575  1  0.82399360  0.98027127  0.79980256  1
  O  O576  1  0.42843278  0.14800978  0.17679178  1
  O  O577  1  0.42895876  0.14692785  0.42718684  1
  O  O578  1  0.42703029  0.14555372  0.67529810  1
  O  O579  1  0.42694660  0.14553239  0.92508210  1
  O  O580  1  0.42764193  0.48152887  0.17535308  1
  O  O581  1  0.42741548  0.47969171  0.42622724  1
  O  O582  1  0.42622893  0.48037543  0.67618786  1
  O  O583  1  0.42814328  0.48041104  0.92720056  1
  O  O584  1  0.42632392  0.81366536  0.17306952  1
  O  O585  1  0.42634661  0.81350907  0.42440115  1
  O  O586  1  0.42672552  0.81204566  0.67525553  1
  O  O587  1  0.42684719  0.81222302  0.92373735  1
  O  O588  1  0.92731856  0.14800479  0.17525749  1
  O  O589  1  0.92733240  0.14625396  0.42555063  1
  O  O590  1  0.92687538  0.14760035  0.67589683  1
  O  O591  1  0.92696969  0.14600753  0.92572271  1
  O  O592  1  0.92764433  0.48019889  0.17687481  1
  O  O593  1  0.92531343  0.47956964  0.42468224  1
  O  O594  1  0.92557071  0.47954094  0.67543241  1
  O  O595  1  0.92693200  0.48128943  0.92541782  1
  O  O596  1  0.92606651  0.81391129  0.17536836  1
  O  O597  1  0.92808556  0.81361011  0.42714881  1
  O  O598  1  0.92785687  0.81427901  0.67560000  1
  O  O599  1  0.92555190  0.81356979  0.92417510  1
  O  O600  1  0.07458792  0.18704574  0.07515934  1
  O  O601  1  0.07289529  0.18595819  0.32370697  1
  O  O602  1  0.07402728  0.18696061  0.57633003  1
  O  O603  1  0.07146652  0.18629059  0.82388438  1
  O  O604  1  0.07261762  0.51851728  0.07343471  1
  O  O605  1  0.07310186  0.51893455  0.32516189  1
  O  O606  1  0.07247340  0.52082783  0.57569355  1
  O  O607  1  0.07320885  0.52117075  0.82396547  1
  O  O608  1  0.07297237  0.85450040  0.07443016  1
  O  O609  1  0.07359954  0.85271073  0.32593284  1
  O  O610  1  0.07171348  0.85304043  0.57306173  1
  O  O611  1  0.07327953  0.85234269  0.82433976  1
  O  O612  1  0.57338930  0.18784870  0.07516460  1
  O  O613  1  0.57347701  0.18533552  0.32446055  1
  O  O614  1  0.57167702  0.18595317  0.57331090  1
  O  O615  1  0.57358305  0.18672670  0.82631655  1
  O  O616  1  0.57153479  0.51969598  0.07184767  1
  O  O617  1  0.57327914  0.51783587  0.32290896  1
  O  O618  1  0.57325818  0.51835178  0.57473013  1
  O  O619  1  0.57191711  0.51900024  0.82431431  1
  O  O620  1  0.57332964  0.85503618  0.07482077  1
  O  O621  1  0.57316685  0.85448487  0.32444996  1
  O  O622  1  0.57321902  0.85379809  0.57465923  1
  O  O623  1  0.57352521  0.85397594  0.82477727  1
  O  O624  1  0.32430652  0.18647957  0.04913999  1
  O  O625  1  0.32424114  0.18557168  0.30166360  1
  O  O626  1  0.32289599  0.18714690  0.55129611  1
  O  O627  1  0.32258329  0.18630637  0.80098324  1
  O  O628  1  0.32217777  0.51900793  0.05132131  1
  O  O629  1  0.32355504  0.51960648  0.29904792  1
  O  O630  1  0.32416271  0.51942608  0.55036998  1
  O  O631  1  0.32290582  0.51833515  0.80152404  1
  O  O632  1  0.32422367  0.85358760  0.04895342  1
  O  O633  1  0.32339858  0.85378909  0.30040878  1
  O  O634  1  0.32323727  0.85268192  0.55066697  1
  O  O635  1  0.32339433  0.85391281  0.80059160  1
  O  O636  1  0.82315445  0.18658525  0.05109233  1
  O  O637  1  0.82400854  0.18706627  0.29868442  1
  O  O638  1  0.82308181  0.18479445  0.55122394  1
  O  O639  1  0.82235037  0.18651771  0.80257734  1
  O  O640  1  0.82262864  0.51867504  0.05069586  1
  O  O641  1  0.82286796  0.52137673  0.30031693  1
  O  O642  1  0.82279275  0.52092840  0.55017243  1
  O  O643  1  0.82293924  0.52129846  0.79997479  1
  O  O644  1  0.82219458  0.85279883  0.05135669  1
  O  O645  1  0.82339751  0.85477320  0.29980865  1
  O  O646  1  0.82350552  0.85283409  0.54894085  1
  O  O647  1  0.82350786  0.85323363  0.79989339  1
  O  O648  1  0.17727007  0.14691358  0.20052223  1
  O  O649  1  0.17794757  0.14727961  0.44865905  1
  O  O650  1  0.17616286  0.14717976  0.70111766  1
  O  O651  1  0.17746453  0.14724774  0.94806521  1
  O  O652  1  0.17650451  0.48038685  0.19894248  1
  O  O653  1  0.17593956  0.47968696  0.45095193  1
  O  O654  1  0.17685337  0.47853870  0.70070585  1
  O  O655  1  0.17786901  0.48023068  0.94792031  1
  O  O656  1  0.17662633  0.81278617  0.19921114  1
  O  O657  1  0.17592904  0.81337437  0.45005578  1
  O  O658  1  0.17698811  0.81507687  0.69906396  1
  O  O659  1  0.17573400  0.81301604  0.95123371  1
  O  O660  1  0.67803543  0.14731600  0.19851579  1
  O  O661  1  0.67729573  0.14582429  0.44853341  1
  O  O662  1  0.67685432  0.14864337  0.69887787  1
  O  O663  1  0.67724148  0.14840403  0.95027959  1
  O  O664  1  0.67812345  0.48088212  0.19765517  1
  O  O665  1  0.67564063  0.47974254  0.44999786  1
  O  O666  1  0.67602508  0.47997473  0.70141883  1
  O  O667  1  0.67688967  0.47872115  0.95048775  1
  O  O668  1  0.67662559  0.81552347  0.19899967  1
  O  O669  1  0.67653591  0.81223100  0.44970088  1
  O  O670  1  0.67653892  0.81220041  0.69954324  1
  O  O671  1  0.67576834  0.81234729  0.94916215  1
