# generated using pymatgen
data_Na2MnFe(PO4)2
_symmetry_space_group_name_H-M   'P 1'
_cell_length_a   22.34026598
_cell_length_b   20.09569414
_cell_length_c   19.45108831
_cell_angle_alpha   89.97291661
_cell_angle_beta   90.07057634
_cell_angle_gamma   89.98296362
_symmetry_Int_Tables_number   1
_chemical_formula_structural   Na2MnFe(PO4)2
_chemical_formula_sum   'Na96 Mn48 Fe48 P96 O384'
_cell_volume   8732.42491266
_cell_formula_units_Z   48
loop_
 _symmetry_equiv_pos_site_id
 _symmetry_equiv_pos_as_xyz
  1  'x, y, z'
loop_
 _atom_site_type_symbol
 _atom_site_label
 _atom_site_symmetry_multiplicity
 _atom_site_fract_x
 _atom_site_fract_y
 _atom_site_fract_z
 _atom_site_occupancy
  Na  Na0  1  0.14038550  0.25030733  0.24322001  1
  Na  Na1  1  0.13993313  0.25060941  0.49377862  1
  Na  Na2  1  0.13995994  0.24999091  0.74379738  1
  Na  Na3  1  0.14012834  0.25001633  0.99337547  1
  Na  Na4  1  0.14056841  0.58225593  0.24427724  1
  Na  Na5  1  0.14031568  0.58212401  0.49309952  1
  Na  Na6  1  0.13992010  0.58302469  0.74479947  1
  Na  Na7  1  0.14002182  0.58238874  0.99328495  1
  Na  Na8  1  0.14007112  0.91625137  0.24381185  1
  Na  Na9  1  0.14001132  0.91461312  0.49415020  1
  Na  Na10  1  0.13977647  0.91633343  0.74353562  1
  Na  Na11  1  0.14000869  0.91503243  0.99360836  1
  Na  Na12  1  0.64017790  0.24978134  0.24389378  1
  Na  Na13  1  0.64030382  0.25102486  0.49253216  1
  Na  Na14  1  0.63976550  0.25075123  0.74334032  1
  Na  Na15  1  0.64019906  0.25099867  0.99432991  1
  Na  Na16  1  0.64073419  0.58427436  0.24437139  1
  Na  Na17  1  0.64016163  0.58423001  0.49307792  1
  Na  Na18  1  0.63999128  0.58224431  0.74409860  1
  Na  Na19  1  0.63990197  0.58425303  0.99386771  1
  Na  Na20  1  0.64032596  0.91723219  0.24226544  1
  Na  Na21  1  0.64036080  0.91843751  0.49172265  1
  Na  Na22  1  0.63943133  0.91752703  0.74382145  1
  Na  Na23  1  0.63939826  0.91722075  0.99475492  1
  Na  Na24  1  0.35885265  0.08189464  0.00647873  1
  Na  Na25  1  0.35974318  0.08389102  0.25593293  1
  Na  Na26  1  0.36046453  0.08298175  0.50591809  1
  Na  Na27  1  0.36017016  0.08251601  0.75609640  1
  Na  Na28  1  0.36016805  0.41595603  0.00718467  1
  Na  Na29  1  0.35993555  0.41613212  0.25706287  1
  Na  Na30  1  0.36054448  0.41619342  0.50593077  1
  Na  Na31  1  0.36054834  0.41656430  0.75720639  1
  Na  Na32  1  0.35977333  0.74951177  0.00630493  1
  Na  Na33  1  0.36014700  0.74967868  0.25567252  1
  Na  Na34  1  0.36032730  0.74876035  0.50547828  1
  Na  Na35  1  0.35992635  0.74973733  0.75734024  1
  Na  Na36  1  0.85941899  0.08310999  0.00647946  1
  Na  Na37  1  0.85925477  0.08294432  0.25608329  1
  Na  Na38  1  0.85942630  0.08442964  0.50540314  1
  Na  Na39  1  0.85987585  0.08385868  0.75599030  1
  Na  Na40  1  0.86035803  0.41766432  0.00662821  1
  Na  Na41  1  0.85991995  0.41657265  0.25633431  1
  Na  Na42  1  0.86025865  0.41690674  0.50639737  1
  Na  Na43  1  0.86036860  0.41650304  0.75673469  1
  Na  Na44  1  0.85907896  0.75117364  0.00692833  1
  Na  Na45  1  0.85951657  0.75071263  0.25716492  1
  Na  Na46  1  0.86043986  0.75081560  0.50634841  1
  Na  Na47  1  0.85987373  0.74936618  0.75641958  1
  Na  Na48  1  0.10934292  0.08484756  0.11834337  1
  Na  Na49  1  0.10923444  0.08221408  0.36849649  1
  Na  Na50  1  0.10896176  0.08295087  0.61968005  1
  Na  Na51  1  0.10899918  0.08279404  0.86733918  1
  Na  Na52  1  0.10990687  0.41685021  0.11894613  1
  Na  Na53  1  0.11014585  0.41491472  0.36832241  1
  Na  Na54  1  0.10954929  0.41740863  0.61953839  1
  Na  Na55  1  0.10931301  0.41695079  0.86879317  1
  Na  Na56  1  0.10954296  0.74968146  0.11929034  1
  Na  Na57  1  0.10981506  0.74808136  0.36886109  1
  Na  Na58  1  0.10948338  0.74940480  0.61973188  1
  Na  Na59  1  0.10881347  0.74920191  0.86790993  1
  Na  Na60  1  0.60963669  0.08316632  0.11837344  1
  Na  Na61  1  0.60987340  0.08372318  0.36719903  1
  Na  Na62  1  0.60881254  0.08399830  0.61759531  1
  Na  Na63  1  0.60908412  0.08393931  0.86967520  1
  Na  Na64  1  0.60903586  0.41725352  0.11868172  1
  Na  Na65  1  0.60992592  0.41727773  0.36937703  1
  Na  Na66  1  0.60943282  0.41599046  0.61807597  1
  Na  Na67  1  0.60967164  0.41731558  0.86918857  1
  Na  Na68  1  0.60978530  0.75111472  0.11747961  1
  Na  Na69  1  0.60971790  0.75106315  0.36744872  1
  Na  Na70  1  0.60918420  0.75070147  0.61791011  1
  Na  Na71  1  0.60923530  0.75123808  0.87024332  1
  Na  Na72  1  0.38979756  0.24984181  0.13204000  1
  Na  Na73  1  0.39094150  0.25044114  0.38138971  1
  Na  Na74  1  0.39108392  0.24912705  0.63017511  1
  Na  Na75  1  0.39095539  0.25036943  0.88204514  1
  Na  Na76  1  0.39067531  0.58310995  0.13109530  1
  Na  Na77  1  0.39085106  0.58256193  0.38259234  1
  Na  Na78  1  0.39068318  0.58232061  0.63060738  1
  Na  Na79  1  0.39065174  0.58338097  0.88332213  1
  Na  Na80  1  0.39014351  0.91640062  0.13092551  1
  Na  Na81  1  0.39117010  0.91653194  0.38026513  1
  Na  Na82  1  0.39094916  0.91713344  0.63054301  1
  Na  Na83  1  0.39044367  0.91673521  0.88182562  1
  Na  Na84  1  0.89053689  0.25117417  0.13129669  1
  Na  Na85  1  0.89042608  0.24919520  0.38105928  1
  Na  Na86  1  0.89077018  0.25096021  0.63175399  1
  Na  Na87  1  0.89081735  0.25109805  0.88027659  1
  Na  Na88  1  0.89021943  0.58404649  0.13145951  1
  Na  Na89  1  0.89088580  0.58248061  0.38170648  1
  Na  Na90  1  0.89122324  0.58366411  0.63192369  1
  Na  Na91  1  0.89013090  0.58266052  0.88135769  1
  Na  Na92  1  0.88963521  0.91758814  0.13290969  1
  Na  Na93  1  0.88994487  0.91498936  0.38145380  1
  Na  Na94  1  0.89072607  0.91614386  0.63113982  1
  Na  Na95  1  0.89021942  0.91688158  0.88067514  1
  Mn  Mn96  1  0.24988402  -0.00040783  0.62480779  1
  Mn  Mn97  1  0.50012384  0.16696424  0.24983936  1
  Mn  Mn98  1  0.00013222  0.66584730  0.25018200  1
  Mn  Mn99  1  0.74988635  0.83402537  0.62464141  1
  Mn  Mn100  1  0.74971015  0.83384652  0.87564136  1
  Mn  Mn101  1  0.25048697  0.49982373  0.62496746  1
  Mn  Mn102  1  0.74931166  0.00020433  0.87558481  1
  Mn  Mn103  1  0.49992072  0.16668437  0.74992176  1
  Mn  Mn104  1  0.50006637  0.66661764  0.75020441  1
  Mn  Mn105  1  0.74938970  0.33325117  0.12554649  1
  Mn  Mn106  1  0.75074433  0.49960214  0.62451870  1
  Mn  Mn107  1  0.74969311  0.66686744  0.62488660  1
  Mn  Mn108  1  0.50097222  0.66710789  0.24952259  1
  Mn  Mn109  1  0.74948961  0.50105273  0.12560243  1
  Mn  Mn110  1  0.25032961  0.66630218  0.12481167  1
  Mn  Mn111  1  0.25003005  -0.00008014  0.37421443  1
  Mn  Mn112  1  0.75050185  0.33367832  0.37449032  1
  Mn  Mn113  1  0.50049031  0.83373961  0.49949717  1
  Mn  Mn114  1  0.24949876  0.16740062  0.37523548  1
  Mn  Mn115  1  -0.00007154  0.16685064  0.50055442  1
  Mn  Mn116  1  0.25058680  0.33323680  0.87522282  1
  Mn  Mn117  1  -0.00006055  0.33319795  0.24965112  1
  Mn  Mn118  1  0.74897190  0.66656407  0.87549645  1
  Mn  Mn119  1  0.74955592  0.16703499  0.87495581  1
  Mn  Mn120  1  0.75007596  0.00085088  0.62389859  1
  Mn  Mn121  1  0.25059140  0.66555329  0.62535771  1
  Mn  Mn122  1  0.24978092  0.16639434  0.62502048  1
  Mn  Mn123  1  -0.00014327  0.00055700  -0.00004643  1
  Mn  Mn124  1  0.25094733  0.83223691  0.37477057  1
  Mn  Mn125  1  0.74931458  0.16794904  0.62466739  1
  Mn  Mn126  1  0.50046816  0.49962254  0.25058355  1
  Mn  Mn127  1  0.50028277  0.49928531  0.75074557  1
  Mn  Mn128  1  0.49955825  0.83448734  0.74920596  1
  Mn  Mn129  1  0.24926136  -0.00058850  0.12517241  1
  Mn  Mn130  1  -0.00104170  0.66595765  -0.00011936  1
  Mn  Mn131  1  0.00031416  0.49952822  0.50077719  1
  Mn  Mn132  1  0.25034555  0.33359956  0.62499988  1
  Mn  Mn133  1  -0.00052971  0.83358594  -0.00044603  1
  Mn  Mn134  1  0.75066016  0.66756540  0.37491995  1
  Mn  Mn135  1  -0.00047678  -0.00134545  0.49980113  1
  Mn  Mn136  1  0.25102335  0.49926420  0.12546281  1
  Mn  Mn137  1  0.25056705  0.83256005  0.62525983  1
  Mn  Mn138  1  0.75068740  0.33416411  0.87523216  1
  Mn  Mn139  1  0.25017590  0.16558021  0.87506518  1
  Mn  Mn140  1  0.24976149  0.83254440  0.87500546  1
  Mn  Mn141  1  0.00000241  -0.00045616  0.25030513  1
  Mn  Mn142  1  0.49966273  0.16705217  0.00009244  1
  Mn  Mn143  1  -0.00094134  0.16804958  -0.00144595  1
  Fe  Fe144  1  0.49998172  0.49984508  0.00050530  1
  Fe  Fe145  1  0.74992535  0.50029312  0.87518244  1
  Fe  Fe146  1  0.00054381  0.66657185  0.50116074  1
  Fe  Fe147  1  0.49972052  0.83373863  0.24922691  1
  Fe  Fe148  1  0.24999225  0.49965710  0.87584364  1
  Fe  Fe149  1  0.75002476  0.00060363  0.37390131  1
  Fe  Fe150  1  -0.00011197  0.49995843  0.74999128  1
  Fe  Fe151  1  0.49978345  0.83429389  -0.00014785  1
  Fe  Fe152  1  -0.00007878  0.49936499  0.25038452  1
  Fe  Fe153  1  0.75040412  0.50071094  0.37507062  1
  Fe  Fe154  1  0.50053686  0.49936148  0.50047107  1
  Fe  Fe155  1  0.50033680  0.33303578  0.49998165  1
  Fe  Fe156  1  0.25090515  0.33313616  0.37447564  1
  Fe  Fe157  1  0.49992116  0.00018010  0.24920514  1
  Fe  Fe158  1  -0.00033829  0.66654026  0.75025971  1
  Fe  Fe159  1  0.49928082  0.00004850  -0.00004276  1
  Fe  Fe160  1  0.24949349  0.16631578  0.12486562  1
  Fe  Fe161  1  0.00016822  0.16677768  0.24992281  1
  Fe  Fe162  1  0.00006419  0.83237612  0.25079192  1
  Fe  Fe163  1  0.74947785  0.83406332  0.37428391  1
  Fe  Fe164  1  0.75025268  0.16675577  0.37382900  1
  Fe  Fe165  1  0.25031876  0.66607586  0.37483311  1
  Fe  Fe166  1  0.00014207  0.33401739  -0.00028549  1
  Fe  Fe167  1  -0.00049385  -0.00036334  0.74942867  1
  Fe  Fe168  1  0.50003564  0.66742994  0.00058048  1
  Fe  Fe169  1  0.75029941  0.16658619  0.12493827  1
  Fe  Fe170  1  -0.00061382  0.83278946  0.74978496  1
  Fe  Fe171  1  0.25055176  0.49922961  0.37441794  1
  Fe  Fe172  1  0.50036082  0.16646180  0.49961747  1
  Fe  Fe173  1  0.74990037  0.83393390  0.12560910  1
  Fe  Fe174  1  -0.00014961  0.16731648  0.74972147  1
  Fe  Fe175  1  0.50010203  0.33374619  0.25073190  1
  Fe  Fe176  1  0.00014877  0.33406490  0.75033410  1
  Fe  Fe177  1  0.50000123  0.00058043  0.74988290  1
  Fe  Fe178  1  0.24951355  0.83231025  0.12463093  1
  Fe  Fe179  1  0.00018788  0.49989051  -0.00030962  1
  Fe  Fe180  1  0.75005148  0.33403564  0.62449209  1
  Fe  Fe181  1  0.24918615  -0.00098060  0.87561769  1
  Fe  Fe182  1  0.50013541  0.33312853  0.74974771  1
  Fe  Fe183  1  0.75029698  0.66727758  0.12529731  1
  Fe  Fe184  1  0.50002430  0.66672030  0.49963580  1
  Fe  Fe185  1  0.24969381  0.33305799  0.12522336  1
  Fe  Fe186  1  0.50015744  0.33354061  0.00053397  1
  Fe  Fe187  1  0.00032537  0.33327344  0.50040784  1
  Fe  Fe188  1  0.00051704  0.83205118  0.50108530  1
  Fe  Fe189  1  0.74954124  0.00035384  0.12572533  1
  Fe  Fe190  1  0.24957869  0.66605220  0.87557620  1
  Fe  Fe191  1  0.50060013  0.00012311  0.49889860  1
  P  P192  1  0.04186947  0.25151714  0.10209089  1
  P  P193  1  0.04239668  0.24865827  0.35251756  1
  P  P194  1  0.04212832  0.25163720  0.60359660  1
  P  P195  1  0.04150196  0.25075259  0.85152638  1
  P  P196  1  0.04205302  0.58182198  0.10264362  1
  P  P197  1  0.04239126  0.58126038  0.35298787  1
  P  P198  1  0.04245026  0.58445427  0.60368983  1
  P  P199  1  0.04078710  0.58275183  0.85190305  1
  P  P200  1  0.04237510  0.91654814  0.10358349  1
  P  P201  1  0.04211810  0.91418837  0.35315690  1
  P  P202  1  0.04165742  0.91489267  0.60352640  1
  P  P203  1  0.04093227  0.91625822  0.85101947  1
  P  P204  1  0.54178580  0.25141993  0.10309128  1
  P  P205  1  0.54218522  0.25142085  0.35315651  1
  P  P206  1  0.54166838  0.24998441  0.60146430  1
  P  P207  1  0.54201852  0.25170984  0.85277995  1
  P  P208  1  0.54138091  0.58345205  0.10168428  1
  P  P209  1  0.54264287  0.58352401  0.35398405  1
  P  P210  1  0.54150875  0.58333740  0.60148043  1
  P  P211  1  0.54231026  0.58349805  0.85447716  1
  P  P212  1  0.54068047  0.91713859  0.10220636  1
  P  P213  1  0.54163174  0.91708603  0.35076942  1
  P  P214  1  0.54260002  0.91871566  0.60186522  1
  P  P215  1  0.54155035  0.91829999  0.85300862  1
  P  P216  1  0.45777702  0.08220807  0.14697982  1
  P  P217  1  0.45918397  0.08315931  0.39745414  1
  P  P218  1  0.45798774  0.08226043  0.64644886  1
  P  P219  1  0.45752569  0.08229502  0.89746621  1
  P  P220  1  0.45805148  0.41543520  0.14746192  1
  P  P221  1  0.45924279  0.41616396  0.39849659  1
  P  P222  1  0.45829751  0.41510984  0.64702699  1
  P  P223  1  0.45872126  0.41632745  0.89876251  1
  P  P224  1  0.45847230  0.75158389  0.14639076  1
  P  P225  1  0.45842563  0.74933754  0.39685129  1
  P  P226  1  0.45728680  0.74969795  0.64627814  1
  P  P227  1  0.45850019  0.75073053  0.89872512  1
  P  P228  1  0.95769655  0.08500746  0.14764775  1
  P  P229  1  0.95749622  0.08307350  0.39666144  1
  P  P230  1  0.95844243  0.08373260  0.64835168  1
  P  P231  1  0.95700626  0.08358363  0.89537674  1
  P  P232  1  0.95772111  0.41844017  0.14690383  1
  P  P233  1  0.95820322  0.41501105  0.39768786  1
  P  P234  1  0.95885234  0.41655874  0.64831791  1
  P  P235  1  0.95866982  0.41679739  0.89760910  1
  P  P236  1  0.95737218  0.75081838  0.14812164  1
  P  P237  1  0.95919220  0.74918309  0.39875820  1
  P  P238  1  0.95850137  0.74958576  0.64807724  1
  P  P239  1  0.95675585  0.74966388  0.89607265  1
  P  P240  1  0.20731646  0.08464318  0.22726229  1
  P  P241  1  0.20672730  0.08292216  0.47783709  1
  P  P242  1  0.20697710  0.08254782  0.72872744  1
  P  P243  1  0.20694495  0.08166202  0.97773152  1
  P  P244  1  0.20844726  0.41524314  0.22829982  1
  P  P245  1  0.20907771  0.41619089  0.47594769  1
  P  P246  1  0.20775659  0.41713257  0.72889378  1
  P  P247  1  0.20799308  0.41689431  0.97805135  1
  P  P248  1  0.20803162  0.74999828  0.22778709  1
  P  P249  1  0.20793999  0.74793529  0.47739334  1
  P  P250  1  0.20759148  0.74893428  0.72892406  1
  P  P251  1  0.20707307  0.74831954  0.97773493  1
  P  P252  1  0.70848499  0.08377282  0.22698874  1
  P  P253  1  0.70870722  0.08430492  0.47538809  1
  P  P254  1  0.70652582  0.08379511  0.72754802  1
  P  P255  1  0.70693264  0.08378654  0.97939478  1
  P  P256  1  0.70698393  0.41735970  0.22887916  1
  P  P257  1  0.70837341  0.41813184  0.47733627  1
  P  P258  1  0.70779084  0.41589845  0.72745658  1
  P  P259  1  0.70784518  0.41838665  0.97771366  1
  P  P260  1  0.70873003  0.75058434  0.22680934  1
  P  P261  1  0.70752229  0.75198122  0.47672083  1
  P  P262  1  0.70658659  0.75014231  0.72808697  1
  P  P263  1  0.70714061  0.75057346  0.97965694  1
  P  P264  1  0.29117925  0.24943310  0.02374674  1
  P  P265  1  0.29229512  0.25101863  0.27163355  1
  P  P266  1  0.29286936  0.25022162  0.52141935  1
  P  P267  1  0.29334859  0.24955401  0.77216407  1
  P  P268  1  0.29265189  0.58273499  0.02133579  1
  P  P269  1  0.29223778  0.58309916  0.27351866  1
  P  P270  1  0.29282985  0.58262177  0.52073412  1
  P  P271  1  0.29202396  0.58286436  0.77445712  1
  P  P272  1  0.29142833  0.91486169  0.02238583  1
  P  P273  1  0.29275775  0.91602029  0.27089592  1
  P  P274  1  0.29325108  0.91588379  0.52164962  1
  P  P275  1  0.29234690  0.91751816  0.77298388  1
  P  P276  1  0.79235509  0.24935731  0.02291976  1
  P  P277  1  0.79235608  0.24858380  0.27172945  1
  P  P278  1  0.79231032  0.25181711  0.52193440  1
  P  P279  1  0.79252361  0.25076383  0.77135314  1
  P  P280  1  0.79211520  0.58490013  0.02266503  1
  P  P281  1  0.79265054  0.58306496  0.27242448  1
  P  P282  1  0.79332004  0.58375483  0.52140633  1
  P  P283  1  0.79210151  0.58217581  0.77278528  1
  P  P284  1  0.79114308  0.91743723  0.02438251  1
  P  P285  1  0.79085085  0.91694310  0.27243830  1
  P  P286  1  0.79278223  0.91721708  0.52025509  1
  P  P287  1  0.79251503  0.91704438  0.77192871  1
  O  O288  1  0.03684176  0.25069476  0.18200000  1
  O  O289  1  0.03741784  0.24927340  0.43242805  1
  O  O290  1  0.03653420  0.25148933  0.68343703  1
  O  O291  1  0.03601512  0.25122077  0.93143903  1
  O  O292  1  0.03714715  0.58165084  0.18260170  1
  O  O293  1  0.03753332  0.58177203  0.43288338  1
  O  O294  1  0.03683240  0.58435803  0.68350525  1
  O  O295  1  0.03584181  0.58209582  0.93184894  1
  O  O296  1  0.03754734  0.91604946  0.18355673  1
  O  O297  1  0.03686964  0.91397607  0.43309200  1
  O  O298  1  0.03598719  0.91522467  0.68336150  1
  O  O299  1  0.03623368  0.91682889  0.93104186  1
  O  O300  1  0.53660665  0.25134398  0.18300987  1
  O  O301  1  0.53674723  0.25099910  0.43299557  1
  O  O302  1  0.53671229  0.24966719  0.68141713  1
  O  O303  1  0.53666403  0.25170541  0.93270391  1
  O  O304  1  0.53697258  0.58347155  0.18170234  1
  O  O305  1  0.53729364  0.58365584  0.43383507  1
  O  O306  1  0.53676677  0.58295538  0.68151272  1
  O  O307  1  0.53684234  0.58340021  0.93432794  1
  O  O308  1  0.53540390  0.91720502  0.18206860  1
  O  O309  1  0.53688599  0.91733218  0.43074453  1
  O  O310  1  0.53721174  0.91888706  0.68176495  1
  O  O311  1  0.53578824  0.91767131  0.93286493  1
  O  O312  1  0.46275205  0.08224579  0.06705681  1
  O  O313  1  0.46411288  0.08331722  0.31748862  1
  O  O314  1  0.46361613  0.08252954  0.56658920  1
  O  O315  1  0.46287789  0.08234868  0.81753593  1
  O  O316  1  0.46351139  0.41577961  0.06761563  1
  O  O317  1  0.46400006  0.41624408  0.31855013  1
  O  O318  1  0.46376111  0.41538288  0.56719118  1
  O  O319  1  0.46348685  0.41620703  0.81879569  1
  O  O320  1  0.46386639  0.75150045  0.06653345  1
  O  O321  1  0.46370755  0.75007961  0.31693283  1
  O  O322  1  0.46265816  0.74922463  0.56635087  1
  O  O323  1  0.46301147  0.75041869  0.81872149  1
  O  O324  1  0.96258745  0.08486279  0.06764650  1
  O  O325  1  0.96299311  0.08364142  0.31676455  1
  O  O326  1  0.96327594  0.08340528  0.56837620  1
  O  O327  1  0.96240266  0.08343223  0.81550426  1
  O  O328  1  0.96294909  0.41851279  0.06705090  1
  O  O329  1  0.96312054  0.41540902  0.31776772  1
  O  O330  1  0.96377358  0.41637567  0.56839218  1
  O  O331  1  0.96394321  0.41652713  0.81773637  1
  O  O332  1  0.96198044  0.75058125  0.06815011  1
  O  O333  1  0.96423019  0.74956849  0.31879091  1
  O  O334  1  0.96408085  0.74946690  0.56821013  1
  O  O335  1  0.96216716  0.74962061  0.81619108  1
  O  O336  1  0.21218424  0.08247476  0.05768334  1
  O  O337  1  0.21244173  0.08461818  0.30719652  1
  O  O338  1  0.21179055  0.08284075  0.55783106  1
  O  O339  1  0.21206263  0.08180108  0.80871344  1
  O  O340  1  0.21304792  0.41621750  0.05802295  1
  O  O341  1  0.21391769  0.41534158  0.30818385  1
  O  O342  1  0.21379857  0.41654130  0.55597252  1
  O  O343  1  0.21276104  0.41759490  0.80884483  1
  O  O344  1  0.21225364  0.74904404  0.05770651  1
  O  O345  1  0.21363586  0.74915298  0.30769845  1
  O  O346  1  0.21291438  0.74828127  0.55739857  1
  O  O347  1  0.21261863  0.74854045  0.80890009  1
  O  O348  1  0.71234607  0.08387171  0.05932069  1
  O  O349  1  0.71383105  0.08379656  0.30687159  1
  O  O350  1  0.71318380  0.08415897  0.55537139  1
  O  O351  1  0.71134312  0.08374480  0.80755765  1
  O  O352  1  0.71254412  0.41804110  0.05769311  1
  O  O353  1  0.71257105  0.41776641  0.30877325  1
  O  O354  1  0.71368598  0.41709927  0.55727172  1
  O  O355  1  0.71283522  0.41666356  0.80742909  1
  O  O356  1  0.71268681  0.75043111  0.05954874  1
  O  O357  1  0.71364037  0.75124167  0.30678840  1
  O  O358  1  0.71222292  0.75163169  0.55670744  1
  O  O359  1  0.71156483  0.75001114  0.80811334  1
  O  O360  1  0.28672009  0.25091665  0.19175430  1
  O  O361  1  0.28774235  0.25079472  0.44143796  1
  O  O362  1  0.28837983  0.24966219  0.69220050  1
  O  O363  1  0.28657239  0.24928637  0.94374061  1
  O  O364  1  0.28754331  0.58287298  0.19348297  1
  O  O365  1  0.28763041  0.58266203  0.44083908  1
  O  O366  1  0.28734524  0.58280630  0.69436679  1
  O  O367  1  0.28727401  0.58272241  0.94147086  1
  O  O368  1  0.28707924  0.91542753  0.19099717  1
  O  O369  1  0.28835259  0.91586288  0.44164151  1
  O  O370  1  0.28751334  0.91709946  0.69297483  1
  O  O371  1  0.28601675  0.91565234  0.94246536  1
  O  O372  1  0.78681926  0.24849473  0.19184078  1
  O  O373  1  0.78737429  0.25122088  0.44198565  1
  O  O374  1  0.78733375  0.25148177  0.69140210  1
  O  O375  1  0.78732386  0.24981903  0.94293703  1
  O  O376  1  0.78699270  0.58399509  0.19253170  1
  O  O377  1  0.78835204  0.58339229  0.44143486  1
  O  O378  1  0.78738703  0.58245632  0.69278783  1
  O  O379  1  0.78665198  0.58407016  0.94276058  1
  O  O380  1  0.78578655  0.91722308  0.19253229  1
  O  O381  1  0.78747964  0.91696312  0.44030371  1
  O  O382  1  0.78781848  0.91710241  0.69190843  1
  O  O383  1  0.78652219  0.91709382  0.94438693  1
  O  O384  1  0.22689748  0.24948920  0.05922312  1
  O  O385  1  0.22813553  0.25163926  0.30767486  1
  O  O386  1  0.22846402  0.25015262  0.55655391  1
  O  O387  1  0.22885126  0.24960315  0.80694477  1
  O  O388  1  0.22847859  0.58250466  0.05700890  1
  O  O389  1  0.22797004  0.58326088  0.30898340  1
  O  O390  1  0.22853223  0.58265551  0.55627179  1
  O  O391  1  0.22763091  0.58294688  0.80983737  1
  O  O392  1  0.22726072  0.91462803  0.05825858  1
  O  O393  1  0.22853161  0.91575406  0.30644193  1
  O  O394  1  0.22871229  0.91568866  0.55638881  1
  O  O395  1  0.22786150  0.91746121  0.80808939  1
  O  O396  1  0.72794506  0.24887334  0.05814385  1
  O  O397  1  0.72818615  0.24899843  0.30755633  1
  O  O398  1  0.72789191  0.25244091  0.55733970  1
  O  O399  1  0.72821257  0.25100815  0.80666316  1
  O  O400  1  0.72787783  0.58596106  0.05845828  1
  O  O401  1  0.72849824  0.58275259  0.30842255  1
  O  O402  1  0.72882904  0.58340473  0.55629928  1
  O  O403  1  0.72766052  0.58180806  0.80795989  1
  O  O404  1  0.72686462  0.91785372  0.05980023  1
  O  O405  1  0.72679816  0.91666171  0.30858278  1
  O  O406  1  0.72841732  0.91744699  0.55567020  1
  O  O407  1  0.72794798  0.91700101  0.80661301  1
  O  O408  1  0.27159692  0.08436768  0.19178709  1
  O  O409  1  0.27127219  0.08321685  0.44309977  1
  O  O410  1  0.27139343  0.08291950  0.69360314  1
  O  O411  1  0.27133516  0.08088307  0.94228107  1
  O  O412  1  0.27256843  0.41451975  0.19223621  1
  O  O413  1  0.27334788  0.41601751  0.44040838  1
  O  O414  1  0.27219095  0.41685123  0.69385341  1
  O  O415  1  0.27234672  0.41743712  0.94268267  1
  O  O416  1  0.27219215  0.75082629  0.19183672  1
  O  O417  1  0.27236393  0.74740141  0.44213841  1
  O  O418  1  0.27203155  0.74917289  0.69385795  1
  O  O419  1  0.27141865  0.74793220  0.94227660  1
  O  O420  1  0.77251967  0.08345527  0.19065831  1
  O  O421  1  0.77298973  0.08428074  0.44000538  1
  O  O422  1  0.77106758  0.08427722  0.69283213  1
  O  O423  1  0.77118034  0.08370757  0.94373683  1
  O  O424  1  0.77125106  0.41708724  0.19351301  1
  O  O425  1  0.77258194  0.41858405  0.44153000  1
  O  O426  1  0.77220825  0.41513600  0.69207878  1
  O  O427  1  0.77227894  0.41874897  0.94254785  1
  O  O428  1  0.77290272  0.74963382  0.19105968  1
  O  O429  1  0.77201070  0.75244188  0.44171500  1
  O  O430  1  0.77114108  0.75023413  0.69332693  1
  O  O431  1  0.77126469  0.75021081  0.94374863  1
  O  O432  1  0.02203381  0.08469416  0.18320903  1
  O  O433  1  0.02166495  0.08286825  0.43248832  1
  O  O434  1  0.02253994  0.08429494  0.68435472  1
  O  O435  1  0.02124968  0.08388012  0.93123473  1
  O  O436  1  0.02193256  0.41817717  0.18303603  1
  O  O437  1  0.02250602  0.41490426  0.43344431  1
  O  O438  1  0.02297598  0.41638735  0.68436743  1
  O  O439  1  0.02269267  0.41656943  0.93426132  1
  O  O440  1  0.02185273  0.75084334  0.18334141  1
  O  O441  1  0.02329492  0.74890887  0.43501987  1
  O  O442  1  0.02242945  0.74971668  0.68489420  1
  O  O443  1  0.02102007  0.74952407  0.93183516  1
  O  O444  1  0.52206102  0.08240362  0.18277182  1
  O  O445  1  0.52332643  0.08275803  0.43354568  1
  O  O446  1  0.52204661  0.08203565  0.68301966  1
  O  O447  1  0.52169947  0.08245634  0.93344824  1
  O  O448  1  0.52224351  0.41509558  0.18366386  1
  O  O449  1  0.52337085  0.41579520  0.43453224  1
  O  O450  1  0.52243963  0.41502951  0.68335306  1
  O  O451  1  0.52289980  0.41617811  0.93479969  1
  O  O452  1  0.52260539  0.75197142  0.18264415  1
  O  O453  1  0.52258942  0.74908390  0.43289164  1
  O  O454  1  0.52158426  0.75029970  0.68180704  1
  O  O455  1  0.52267991  0.75145658  0.93453207  1
  O  O456  1  0.47754944  0.25161973  0.06717249  1
  O  O457  1  0.47808449  0.25157553  0.31678073  1
  O  O458  1  0.47759222  0.25013804  0.56526858  1
  O  O459  1  0.47783909  0.25146951  0.81669730  1
  O  O460  1  0.47716063  0.58296041  0.06610894  1
  O  O461  1  0.47851392  0.58366862  0.31794942  1
  O  O462  1  0.47735691  0.58350242  0.56564250  1
  O  O463  1  0.47812440  0.58310170  0.81846215  1
  O  O464  1  0.47672630  0.91657683  0.06550794  1
  O  O465  1  0.47740122  0.91683325  0.31486454  1
  O  O466  1  0.47837369  0.91865815  0.56590879  1
  O  O467  1  0.47752294  0.91894481  0.81636540  1
  O  O468  1  0.97757411  0.25238617  0.06630562  1
  O  O469  1  0.97806400  0.24841406  0.31680584  1
  O  O470  1  0.97799494  0.25181687  0.56722022  1
  O  O471  1  0.97748321  0.25046112  0.81502380  1
  O  O472  1  0.97768518  0.58148038  0.06705916  1
  O  O473  1  0.97807518  0.58129813  0.31722044  1
  O  O474  1  0.97838440  0.58447067  0.56721916  1
  O  O475  1  0.97675485  0.58351910  0.81565320  1
  O  O476  1  0.97788274  0.91693527  0.06845924  1
  O  O477  1  0.97788369  0.91451120  0.31716643  1
  O  O478  1  0.97765871  0.91429324  0.56695865  1
  O  O479  1  0.97670980  0.91559214  0.81533056  1
  O  O480  1  0.07274297  0.31514299  0.07396467  1
  O  O481  1  0.07348340  0.31207841  0.32420590  1
  O  O482  1  0.07297796  0.31506467  0.57472112  1
  O  O483  1  0.07259854  0.31429581  0.82351315  1
  O  O484  1  0.07249803  0.64594845  0.07487311  1
  O  O485  1  0.07359322  0.64459561  0.32457844  1
  O  O486  1  0.07335954  0.64777862  0.57485248  1
  O  O487  1  0.07215839  0.64627895  0.82425037  1
  O  O488  1  0.07330673  0.98022504  0.07554751  1
  O  O489  1  0.07328712  0.97795810  0.32566318  1
  O  O490  1  0.07256065  0.97861700  0.57542537  1
  O  O491  1  0.07108636  0.98022375  0.82243559  1
  O  O492  1  0.57304235  0.31454980  0.07445606  1
  O  O493  1  0.57314721  0.31486564  0.32472197  1
  O  O494  1  0.57297429  0.31339365  0.57351757  1
  O  O495  1  0.57277252  0.31508110  0.82396050  1
  O  O496  1  0.57152787  0.64760799  0.07363311  1
  O  O497  1  0.57411940  0.64667325  0.32535021  1
  O  O498  1  0.57251438  0.64695520  0.57353414  1
  O  O499  1  0.57332908  0.64701360  0.82614873  1
  O  O500  1  0.57117070  0.98101293  0.07379674  1
  O  O501  1  0.57239423  0.98069054  0.32230396  1
  O  O502  1  0.57371490  0.98176887  0.57281768  1
  O  O503  1  0.57291514  0.98160540  0.82485027  1
  O  O504  1  0.42695118  0.01884220  0.17568663  1
  O  O505  1  0.42772626  0.01981108  0.42535632  1
  O  O506  1  0.42686732  0.01901495  0.67514679  1
  O  O507  1  0.42658041  0.01902428  0.92622632  1
  O  O508  1  0.42698695  0.35220847  0.17625944  1
  O  O509  1  0.42775515  0.35291617  0.42647568  1
  O  O510  1  0.42750656  0.35162560  0.67574917  1
  O  O511  1  0.42742409  0.35300760  0.92709616  1
  O  O512  1  0.42750682  0.68779884  0.17428100  1
  O  O513  1  0.42773039  0.68562232  0.42500972  1
  O  O514  1  0.42623974  0.68643720  0.67499003  1
  O  O515  1  0.42850021  0.68667097  0.92734143  1
  O  O516  1  0.92647746  0.02145039  0.17541448  1
  O  O517  1  0.92650533  0.01926646  0.42418560  1
  O  O518  1  0.92817174  0.01959366  0.67635344  1
  O  O519  1  0.92598893  0.02027403  0.92430874  1
  O  O520  1  0.92638225  0.35488900  0.17482045  1
  O  O521  1  0.92766787  0.35129296  0.42612745  1
  O  O522  1  0.92742265  0.35347500  0.67680137  1
  O  O523  1  0.92758538  0.35334262  0.92618226  1
  O  O524  1  0.92665137  0.68706473  0.17614924  1
  O  O525  1  0.92843057  0.68529689  0.42660712  1
  O  O526  1  0.92760756  0.68594347  0.67646349  1
  O  O527  1  0.92555946  0.68635396  0.92463224  1
  O  O528  1  0.17591674  0.02105999  0.19991727  1
  O  O529  1  0.17593565  0.01936806  0.44949208  1
  O  O530  1  0.17576059  0.01945789  0.69993144  1
  O  O531  1  0.17610127  0.01801589  0.94956058  1
  O  O532  1  0.17697358  0.35228083  0.19934409  1
  O  O533  1  0.17817180  0.35251566  0.44809048  1
  O  O534  1  0.17681437  0.35353226  0.70076683  1
  O  O535  1  0.17694794  0.35344161  0.94975200  1
  O  O536  1  0.17701671  0.68636663  0.19977172  1
  O  O537  1  0.17706616  0.68454819  0.44884459  1
  O  O538  1  0.17651908  0.68566561  0.70041406  1
  O  O539  1  0.17639714  0.68462974  0.94946890  1
  O  O540  1  0.67731588  0.02019265  0.19879354  1
  O  O541  1  0.67821022  0.02057935  0.44671697  1
  O  O542  1  0.67594463  0.02026658  0.69900966  1
  O  O543  1  0.67581085  0.02030598  0.95110581  1
  O  O544  1  0.67594332  0.35372150  0.20097205  1
  O  O545  1  0.67709114  0.35484290  0.44906031  1
  O  O546  1  0.67695559  0.35243501  0.69886618  1
  O  O547  1  0.67702891  0.35465338  0.94985463  1
  O  O548  1  0.67732233  0.68707914  0.19910705  1
  O  O549  1  0.67688690  0.68816464  0.44875507  1
  O  O550  1  0.67588361  0.68646024  0.69982300  1
  O  O551  1  0.67556185  0.68749896  0.95119155  1
  O  O552  1  0.32191661  0.31317860  0.05176993  1
  O  O553  1  0.32362216  0.31409114  0.30059900  1
  O  O554  1  0.32412612  0.31335698  0.55005731  1
  O  O555  1  0.32432148  0.31298680  0.80053640  1
  O  O556  1  0.32372729  0.64618681  0.04978029  1
  O  O557  1  0.32313538  0.64677977  0.30136247  1
  O  O558  1  0.32405879  0.64579328  0.54956850  1
  O  O559  1  0.32270086  0.64662825  0.80256520  1
  O  O560  1  0.32284024  0.97816140  0.05049403  1
  O  O561  1  0.32331584  0.98011756  0.29843187  1
  O  O562  1  0.32408676  0.97944039  0.54979136  1
  O  O563  1  0.32278520  0.98106287  0.80166321  1
  O  O564  1  0.82301551  0.31321057  0.05082900  1
  O  O565  1  0.82373296  0.31220684  0.29924380  1
  O  O566  1  0.82305046  0.31533562  0.55049041  1
  O  O567  1  0.82415381  0.31365271  0.80017893  1
  O  O568  1  0.82335623  0.64828480  0.05087510  1
  O  O569  1  0.82398081  0.64647041  0.30048329  1
  O  O570  1  0.82367067  0.64767023  0.54963326  1
  O  O571  1  0.82291023  0.64580036  0.80080550  1
  O  O572  1  0.82236284  0.98088574  0.05236449  1
  O  O573  1  0.82141133  0.98077171  0.30097190  1
  O  O574  1  0.82395493  0.98070072  0.54854853  1
  O  O575  1  0.82327567  0.98057161  0.80031716  1
  O  O576  1  0.42676849  0.14589804  0.17485193  1
  O  O577  1  0.42899673  0.14721010  0.42591553  1
  O  O578  1  0.42692761  0.14591517  0.67459247  1
  O  O579  1  0.42642303  0.14607491  0.92510465  1
  O  O580  1  0.42710217  0.47917022  0.17559124  1
  O  O581  1  0.42913248  0.48025110  0.42697068  1
  O  O582  1  0.42706499  0.47862787  0.67523863  1
  O  O583  1  0.42839325  0.48031453  0.92711021  1
  O  O584  1  0.42728723  0.81475978  0.17521030  1
  O  O585  1  0.42713675  0.81275927  0.42491080  1
  O  O586  1  0.42616312  0.81336580  0.67410100  1
  O  O587  1  0.42704671  0.81412845  0.92645697  1
  O  O588  1  0.92732235  0.14874259  0.17600430  1
  O  O589  1  0.92612088  0.14616207  0.42524735  1
  O  O590  1  0.92715031  0.14726391  0.67599274  1
  O  O591  1  0.92565937  0.14702747  0.92344064  1
  O  O592  1  0.92701862  0.48172744  0.17622376  1
  O  O593  1  0.92699256  0.47839677  0.42584376  1
  O  O594  1  0.92856640  0.48072761  0.67638405  1
  O  O595  1  0.92785011  0.48052681  0.92571745  1
  O  O596  1  0.92674295  0.81429155  0.17679740  1
  O  O597  1  0.92822566  0.81266621  0.42715612  1
  O  O598  1  0.92714482  0.81307687  0.67601480  1
  O  O599  1  0.92561959  0.81312733  0.92440669  1
  O  O600  1  0.07269548  0.18802502  0.07363141  1
  O  O601  1  0.07298269  0.18499706  0.32399415  1
  O  O602  1  0.07337729  0.18806289  0.57570764  1
  O  O603  1  0.07236513  0.18691949  0.82379851  1
  O  O604  1  0.07334722  0.51887274  0.07361643  1
  O  O605  1  0.07276188  0.51748724  0.32452269  1
  O  O606  1  0.07374027  0.52088411  0.57574386  1
  O  O607  1  0.07122916  0.51897211  0.82325067  1
  O  O608  1  0.07336337  0.85330167  0.07473442  1
  O  O609  1  0.07291318  0.85082575  0.32439035  1
  O  O610  1  0.07304448  0.85157324  0.57523472  1
  O  O611  1  0.07231132  0.85272706  0.82352242  1
  O  O612  1  0.57249831  0.18750269  0.07534608  1
  O  O613  1  0.57332666  0.18789345  0.32490071  1
  O  O614  1  0.57204613  0.18610963  0.57282160  1
  O  O615  1  0.57318027  0.18798365  0.82515836  1
  O  O616  1  0.57258906  0.51997958  0.07371393  1
  O  O617  1  0.57372842  0.52003865  0.32569140  1
  O  O618  1  0.57203017  0.51936426  0.57338978  1
  O  O619  1  0.57372023  0.52028205  0.82588770  1
  O  O620  1  0.57219054  0.85387140  0.07396772  1
  O  O621  1  0.57233406  0.85330121  0.32261330  1
  O  O622  1  0.57349048  0.85478614  0.57431174  1
  O  O623  1  0.57239488  0.85458397  0.82470371  1
  O  O624  1  0.32182956  0.18557248  0.05193790  1
  O  O625  1  0.32321585  0.18721149  0.29964669  1
  O  O626  1  0.32368087  0.18641044  0.54929571  1
  O  O627  1  0.32433314  0.18608563  0.80045871  1
  O  O628  1  0.32413709  0.51958294  0.04999813  1
  O  O629  1  0.32276939  0.51914488  0.30165902  1
  O  O630  1  0.32388982  0.51916818  0.54939715  1
  O  O631  1  0.32261703  0.51901566  0.80261039  1
  O  O632  1  0.32197427  0.85096569  0.05042224  1
  O  O633  1  0.32462542  0.85319052  0.29943399  1
  O  O634  1  0.32423593  0.85238200  0.54997223  1
  O  O635  1  0.32348444  0.85386644  0.80084337  1
  O  O636  1  0.82334013  0.18588511  0.05122919  1
  O  O637  1  0.82308182  0.18517541  0.30057254  1
  O  O638  1  0.82315948  0.18816395  0.55022551  1
  O  O639  1  0.82314462  0.18686643  0.79922634  1
  O  O640  1  0.82291249  0.52121835  0.05088275  1
  O  O641  1  0.82334923  0.51928524  0.30044817  1
  O  O642  1  0.82497671  0.52078999  0.55005420  1
  O  O643  1  0.82270407  0.51849573  0.80129501  1
  O  O644  1  0.82155621  0.85353553  0.05294345  1
  O  O645  1  0.82213822  0.85348835  0.30074187  1
  O  O646  1  0.82384529  0.85392823  0.54916683  1
  O  O647  1  0.82336455  0.85351221  0.80029844  1
  O  O648  1  0.17683229  0.14827284  0.19855849  1
  O  O649  1  0.17552460  0.14639783  0.44987000  1
  O  O650  1  0.17608737  0.14635831  0.70090790  1
  O  O651  1  0.17609189  0.14527315  0.94935786  1
  O  O652  1  0.17774783  0.47920643  0.20039251  1
  O  O653  1  0.17844593  0.47995830  0.44751079  1
  O  O654  1  0.17665674  0.48035991  0.70004615  1
  O  O655  1  0.17721404  0.48052247  0.94957858  1
  O  O656  1  0.17693897  0.81348246  0.19955623  1
  O  O657  1  0.17723738  0.81174811  0.44944490  1
  O  O658  1  0.17673802  0.81265837  0.70086390  1
  O  O659  1  0.17581599  0.81168385  0.94943487  1
  O  O660  1  0.67761635  0.14742689  0.19856557  1
  O  O661  1  0.67789188  0.14806403  0.44738966  1
  O  O662  1  0.67531415  0.14722526  0.69930564  1
  O  O663  1  0.67570745  0.14710315  0.95072538  1
  O  O664  1  0.67560626  0.48057184  0.20044451  1
  O  O665  1  0.67770496  0.48201695  0.44947390  1
  O  O666  1  0.67680706  0.47940629  0.69900322  1
  O  O667  1  0.67721216  0.48197819  0.94917337  1
  O  O668  1  0.67852140  0.81451320  0.19800116  1
  O  O669  1  0.67654148  0.81530819  0.44799683  1
  O  O670  1  0.67550408  0.81357261  0.69989869  1
  O  O671  1  0.67620720  0.81424017  0.95139999  1
