# generated using pymatgen
data_Na2MnFe(PO4)2
_symmetry_space_group_name_H-M   'P 1'
_cell_length_a   22.34585057
_cell_length_b   20.09737880
_cell_length_c   19.44678626
_cell_angle_alpha   90.06401832
_cell_angle_beta   89.97048280
_cell_angle_gamma   89.98045648
_symmetry_Int_Tables_number   1
_chemical_formula_structural   Na2MnFe(PO4)2
_chemical_formula_sum   'Na96 Mn48 Fe48 P96 O384'
_cell_volume   8733.40892070
_cell_formula_units_Z   48
loop_
 _symmetry_equiv_pos_site_id
 _symmetry_equiv_pos_as_xyz
  1  'x, y, z'
loop_
 _atom_site_type_symbol
 _atom_site_label
 _atom_site_symmetry_multiplicity
 _atom_site_fract_x
 _atom_site_fract_y
 _atom_site_fract_z
 _atom_site_occupancy
  Na  Na0  1  0.14034936  0.25117284  0.24346582  1
  Na  Na1  1  0.13976984  0.24925700  0.49322802  1
  Na  Na2  1  0.14048287  0.25082401  0.74234081  1
  Na  Na3  1  0.14081641  0.24957743  0.99342259  1
  Na  Na4  1  0.14041906  0.58283339  0.24286394  1
  Na  Na5  1  0.14038304  0.58220990  0.49423843  1
  Na  Na6  1  0.14047099  0.58329303  0.74275128  1
  Na  Na7  1  0.14015500  0.58267798  0.99244590  1
  Na  Na8  1  0.13983390  0.91722660  0.24335128  1
  Na  Na9  1  0.14014517  0.91632615  0.49453707  1
  Na  Na10  1  0.13986889  0.91662162  0.74292954  1
  Na  Na11  1  0.14053099  0.91630627  0.99324790  1
  Na  Na12  1  0.64070652  0.24829777  0.24366799  1
  Na  Na13  1  0.64069933  0.24965293  0.49312201  1
  Na  Na14  1  0.64074090  0.24981500  0.74489457  1
  Na  Na15  1  0.64073972  0.25006012  0.99328978  1
  Na  Na16  1  0.64074838  0.58355511  0.24469127  1
  Na  Na17  1  0.63968478  0.58366262  0.49374422  1
  Na  Na18  1  0.64021212  0.58413166  0.74498238  1
  Na  Na19  1  0.64097309  0.58373126  0.99285985  1
  Na  Na20  1  0.64069005  0.91579804  0.24365402  1
  Na  Na21  1  0.64035563  0.91747360  0.49420066  1
  Na  Na22  1  0.64022824  0.91608055  0.74443847  1
  Na  Na23  1  0.64082005  0.91573942  0.99466808  1
  Na  Na24  1  0.35905446  0.08371927  0.00595819  1
  Na  Na25  1  0.35937291  0.08400397  0.25634045  1
  Na  Na26  1  0.35896103  0.08289099  0.50586824  1
  Na  Na27  1  0.35871988  0.08424532  0.75613724  1
  Na  Na28  1  0.35983570  0.41658946  0.00593337  1
  Na  Na29  1  0.35970305  0.41679493  0.25495402  1
  Na  Na30  1  0.35899342  0.41634211  0.50712109  1
  Na  Na31  1  0.35911215  0.41770336  0.75554803  1
  Na  Na32  1  0.35903795  0.75058927  0.00539604  1
  Na  Na33  1  0.35943613  0.75102048  0.25704230  1
  Na  Na34  1  0.35949110  0.74931119  0.50792920  1
  Na  Na35  1  0.35908816  0.75104963  0.75656903  1
  Na  Na36  1  0.85972839  0.08155818  0.00561765  1
  Na  Na37  1  0.85967789  0.08229324  0.25682815  1
  Na  Na38  1  0.86007445  0.08397289  0.50601803  1
  Na  Na39  1  0.85986555  0.08258722  0.75704599  1
  Na  Na40  1  0.85992350  0.41743696  0.00578459  1
  Na  Na41  1  0.86005877  0.41550832  0.25664458  1
  Na  Na42  1  0.86015725  0.41750515  0.50620424  1
  Na  Na43  1  0.85967759  0.41791918  0.75691360  1
  Na  Na44  1  0.85982669  0.75013959  0.00673200  1
  Na  Na45  1  0.86017709  0.74989985  0.25606695  1
  Na  Na46  1  0.85965022  0.75113583  0.50576672  1
  Na  Na47  1  0.85933344  0.75057975  0.75828691  1
  Na  Na48  1  0.11005784  0.08201297  0.11881286  1
  Na  Na49  1  0.10960726  0.08367282  0.36806903  1
  Na  Na50  1  0.10941052  0.08448617  0.61885093  1
  Na  Na51  1  0.10961013  0.08203842  0.86720747  1
  Na  Na52  1  0.11009097  0.41661850  0.11801114  1
  Na  Na53  1  0.11014824  0.41706303  0.36854473  1
  Na  Na54  1  0.10946729  0.41603650  0.61756341  1
  Na  Na55  1  0.11007152  0.41590947  0.86806474  1
  Na  Na56  1  0.10937548  0.74897402  0.11846762  1
  Na  Na57  1  0.10928580  0.75064648  0.36894205  1
  Na  Na58  1  0.10975185  0.74959692  0.61892238  1
  Na  Na59  1  0.10995890  0.74879581  0.86700823  1
  Na  Na60  1  0.60975516  0.08397328  0.11950658  1
  Na  Na61  1  0.61014410  0.08212278  0.36845832  1
  Na  Na62  1  0.60986089  0.08151461  0.61855756  1
  Na  Na63  1  0.60958592  0.08203568  0.86879731  1
  Na  Na64  1  0.61007647  0.41677307  0.11827801  1
  Na  Na65  1  0.60947923  0.41715633  0.36918730  1
  Na  Na66  1  0.60978034  0.41785520  0.61934554  1
  Na  Na67  1  0.61021139  0.41741439  0.86894220  1
  Na  Na68  1  0.61036932  0.75014019  0.11887718  1
  Na  Na69  1  0.60912311  0.75004151  0.36989532  1
  Na  Na70  1  0.60924065  0.74923445  0.62030298  1
  Na  Na71  1  0.61020960  0.74984561  0.86874618  1
  Na  Na72  1  0.39058951  0.25140609  0.13075602  1
  Na  Na73  1  0.39010700  0.25073231  0.38117419  1
  Na  Na74  1  0.38967096  0.25023820  0.63106847  1
  Na  Na75  1  0.39012308  0.25152651  0.88127050  1
  Na  Na76  1  0.39038989  0.58329074  0.13032058  1
  Na  Na77  1  0.39047103  0.58433684  0.38197563  1
  Na  Na78  1  0.38997388  0.58425699  0.63144310  1
  Na  Na79  1  0.38988257  0.58364681  0.88094154  1
  Na  Na80  1  0.38971960  0.91821245  0.13144396  1
  Na  Na81  1  0.39006073  0.91596883  0.38145904  1
  Na  Na82  1  0.38997730  0.91486011  0.63177682  1
  Na  Na83  1  0.38916005  0.91613236  0.88129205  1
  Na  Na84  1  0.89070052  0.24911200  0.13097344  1
  Na  Na85  1  0.89131135  0.25086680  0.38184509  1
  Na  Na86  1  0.89050659  0.25037962  0.63104258  1
  Na  Na87  1  0.89058440  0.24992747  0.88091813  1
  Na  Na88  1  0.89063649  0.58327275  0.13091287  1
  Na  Na89  1  0.89066074  0.58298895  0.38071007  1
  Na  Na90  1  0.89040415  0.58322774  0.63138037  1
  Na  Na91  1  0.89041181  0.58299213  0.88233498  1
  Na  Na92  1  0.89010021  0.91541747  0.13299121  1
  Na  Na93  1  0.89032739  0.91816113  0.38060781  1
  Na  Na94  1  0.89022390  0.91792793  0.63293905  1
  Na  Na95  1  0.88979036  0.91564452  0.88171457  1
  Mn  Mn96  1  -0.00041611  0.33352516  0.74974156  1
  Mn  Mn97  1  0.00054365  0.16712913  0.24995682  1
  Mn  Mn98  1  0.24971727  0.66612558  0.37540912  1
  Mn  Mn99  1  0.24989183  0.16668998  0.12472121  1
  Mn  Mn100  1  -0.00008424  0.66567458  0.74943765  1
  Mn  Mn101  1  0.49993719  0.33396839  0.74993620  1
  Mn  Mn102  1  0.24915057  0.83389093  0.37556350  1
  Mn  Mn103  1  0.74954257  0.33387493  0.62458714  1
  Mn  Mn104  1  0.00096071  0.33325229  -0.00061878  1
  Mn  Mn105  1  0.49874722  -0.00153729  0.74921685  1
  Mn  Mn106  1  0.50005056  0.00014921  0.25041745  1
  Mn  Mn107  1  0.75094250  0.16494604  0.12390470  1
  Mn  Mn108  1  0.00010290  0.16568102  0.00040477  1
  Mn  Mn109  1  0.25091141  0.49885650  0.37462562  1
  Mn  Mn110  1  0.74986944  0.66638751  0.37531375  1
  Mn  Mn111  1  0.24975407  -0.00007644  0.62551980  1
  Mn  Mn112  1  0.49917338  -0.00157935  0.49920344  1
  Mn  Mn113  1  0.74995314  0.16580227  0.87494795  1
  Mn  Mn114  1  0.25008254  0.16754516  0.87518289  1
  Mn  Mn115  1  0.49940062  0.50099497  0.74976986  1
  Mn  Mn116  1  0.24983641  0.16671411  0.37459503  1
  Mn  Mn117  1  0.00094954  0.83179795  0.00050857  1
  Mn  Mn118  1  0.50050090  0.66770091  0.25066634  1
  Mn  Mn119  1  0.75035937  0.16603245  0.62509060  1
  Mn  Mn120  1  0.74989798  0.83454287  0.62615941  1
  Mn  Mn121  1  0.49991242  0.33347612  0.24997550  1
  Mn  Mn122  1  0.49996976  0.16628841  0.50008437  1
  Mn  Mn123  1  0.50074112  0.33388720  0.49999927  1
  Mn  Mn124  1  0.49965694  0.16765180  -0.00057348  1
  Mn  Mn125  1  -0.00094615  0.66647245  0.49989555  1
  Mn  Mn126  1  0.75002393  0.33307713  0.37483953  1
  Mn  Mn127  1  0.24963668  0.66629952  0.12468824  1
  Mn  Mn128  1  -0.00018277  -0.00133245  -0.00061566  1
  Mn  Mn129  1  0.24959299  0.49989471  0.87401791  1
  Mn  Mn130  1  0.75058981  0.33261446  0.12532982  1
  Mn  Mn131  1  0.49932934  0.66679321  0.00019807  1
  Mn  Mn132  1  0.74998151  0.50079258  0.62600833  1
  Mn  Mn133  1  0.00083306  0.00108521  0.50078896  1
  Mn  Mn134  1  0.49981855  0.83327025  0.00002839  1
  Mn  Mn135  1  0.49990312  0.00021697  0.00050089  1
  Mn  Mn136  1  0.50003660  0.16637376  0.75019322  1
  Mn  Mn137  1  0.24966553  0.83428937  0.12505355  1
  Mn  Mn138  1  0.50029201  0.50059596  0.25022824  1
  Mn  Mn139  1  -0.00043364  0.83398653  0.49951278  1
  Mn  Mn140  1  0.74961974  0.50033554  0.12484309  1
  Mn  Mn141  1  0.00018012  0.49981222  0.24987847  1
  Mn  Mn142  1  0.75044769  0.66708245  0.62582523  1
  Mn  Mn143  1  0.74988136  0.83421238  0.37547906  1
  Fe  Fe144  1  0.00034401  0.33367311  0.25022651  1
  Fe  Fe145  1  0.24998848  0.66692925  0.87432515  1
  Fe  Fe146  1  -0.00063149  0.83253748  0.75008538  1
  Fe  Fe147  1  0.75053913  0.49992847  0.37475934  1
  Fe  Fe148  1  0.00064825  0.66614602  0.24990484  1
  Fe  Fe149  1  0.49980267  0.83226454  0.50090481  1
  Fe  Fe150  1  -0.00033024  -0.00014439  0.74970634  1
  Fe  Fe151  1  0.00001614  0.83296751  0.24982821  1
  Fe  Fe152  1  0.49982346  0.66652642  0.74997409  1
  Fe  Fe153  1  0.25001278  0.33385538  0.87390036  1
  Fe  Fe154  1  0.00036909  0.50008442  0.49955739  1
  Fe  Fe155  1  0.75079744  0.66656604  0.12486741  1
  Fe  Fe156  1  0.24972935  0.49997391  0.62516369  1
  Fe  Fe157  1  0.24977820  -0.00011292  0.37561818  1
  Fe  Fe158  1  0.25022433  0.49966393  0.12384834  1
  Fe  Fe159  1  0.24983140  0.33306915  0.37481523  1
  Fe  Fe160  1  0.24981016  0.83317404  0.62540703  1
  Fe  Fe161  1  0.74980367  -0.00094278  0.12545310  1
  Fe  Fe162  1  0.24922572  0.00045169  0.87446139  1
  Fe  Fe163  1  0.75058362  0.33340092  0.87483349  1
  Fe  Fe164  1  0.24928126  0.83362540  0.87476983  1
  Fe  Fe165  1  -0.00000018  0.00021338  0.25009534  1
  Fe  Fe166  1  0.00030727  0.66579331  -0.00049612  1
  Fe  Fe167  1  0.24939614  0.16693953  0.62486128  1
  Fe  Fe168  1  0.50076497  0.50066144  0.00007131  1
  Fe  Fe169  1  0.50097919  0.33414993  0.00037444  1
  Fe  Fe170  1  0.24990497  0.00017694  0.12466521  1
  Fe  Fe171  1  0.75018860  0.50063202  0.87568039  1
  Fe  Fe172  1  0.00035456  0.16687847  0.74958282  1
  Fe  Fe173  1  0.49923891  0.50084359  0.50020708  1
  Fe  Fe174  1  0.49955382  0.66716373  0.50062326  1
  Fe  Fe175  1  0.49952451  0.83316419  0.25063061  1
  Fe  Fe176  1  0.25046553  0.33359365  0.12436796  1
  Fe  Fe177  1  0.75033336  0.83285324  0.12467034  1
  Fe  Fe178  1  0.24969946  0.66683470  0.62539686  1
  Fe  Fe179  1  0.74963149  -0.00089484  0.87602230  1
  Fe  Fe180  1  0.49997692  0.16731038  0.24959920  1
  Fe  Fe181  1  -0.00005075  0.33395011  0.50036883  1
  Fe  Fe182  1  0.00010351  0.49959479  0.00017972  1
  Fe  Fe183  1  0.75045505  0.00004575  0.37485523  1
  Fe  Fe184  1  0.49992643  0.83233616  0.75029883  1
  Fe  Fe185  1  0.00019229  0.49974673  0.74989884  1
  Fe  Fe186  1  -0.00033550  0.16719284  0.49973577  1
  Fe  Fe187  1  0.75010346  0.83368270  0.87623964  1
  Fe  Fe188  1  0.24971177  0.33324963  0.62435256  1
  Fe  Fe189  1  0.75016382  0.66730102  0.87590598  1
  Fe  Fe190  1  0.75023070  0.00033720  0.62529428  1
  Fe  Fe191  1  0.75050959  0.16591353  0.37468268  1
  P  P192  1  0.04322600  0.24997111  0.10342472  1
  P  P193  1  0.04232380  0.25199239  0.35326215  1
  P  P194  1  0.04095593  0.24984913  0.60165381  1
  P  P195  1  0.04265005  0.24886227  0.85180894  1
  P  P196  1  0.04168655  0.58323804  0.10151662  1
  P  P197  1  0.04277207  0.58410316  0.35252001  1
  P  P198  1  0.04203328  0.58185178  0.60244519  1
  P  P199  1  0.04221319  0.58153743  0.85277401  1
  P  P200  1  0.04239427  0.91597171  0.10396890  1
  P  P201  1  0.04133746  0.91692441  0.35135925  1
  P  P202  1  0.04217426  0.91663987  0.60423051  1
  P  P203  1  0.04095195  0.91571399  0.85101967  1
  P  P204  1  0.54268259  0.25118455  0.10258527  1
  P  P205  1  0.54252618  0.24897571  0.35230054  1
  P  P206  1  0.54329465  0.24990993  0.60319888  1
  P  P207  1  0.54284315  0.25089838  0.85362243  1
  P  P208  1  0.54298720  0.58298226  0.10245992  1
  P  P209  1  0.54255200  0.58409035  0.35452597  1
  P  P210  1  0.54121442  0.58414261  0.60198548  1
  P  P211  1  0.54193108  0.58446999  0.85286823  1
  P  P212  1  0.54260818  0.91659834  0.10400624  1
  P  P213  1  0.54200997  0.91456628  0.35301170  1
  P  P214  1  0.54179247  0.91426373  0.60285497  1
  P  P215  1  0.54185416  0.91513831  0.85232079  1
  P  P216  1  0.45753274  0.08511793  0.14768093  1
  P  P217  1  0.45709022  0.08335849  0.39618316  1
  P  P218  1  0.45653904  0.08275180  0.64659877  1
  P  P219  1  0.45661615  0.08302072  0.89670316  1
  P  P220  1  0.45805080  0.41724999  0.14591910  1
  P  P221  1  0.45741776  0.41815426  0.39792673  1
  P  P222  1  0.45699135  0.41763872  0.64625052  1
  P  P223  1  0.45889143  0.41749936  0.89870030  1
  P  P224  1  0.45722867  0.75135050  0.14797195  1
  P  P225  1  0.45773693  0.75036756  0.39879642  1
  P  P226  1  0.45831999  0.74944196  0.64826987  1
  P  P227  1  0.45708560  0.74983223  0.89601856  1
  P  P228  1  0.95773926  0.08188958  0.14787792  1
  P  P229  1  0.95851213  0.08455646  0.39724162  1
  P  P230  1  0.95859532  0.08419256  0.64823398  1
  P  P231  1  0.95772915  0.08278557  0.89576992  1
  P  P232  1  0.95799427  0.41550816  0.14726201  1
  P  P233  1  0.95899314  0.41688801  0.39812141  1
  P  P234  1  0.95790073  0.41807814  0.64683507  1
  P  P235  1  0.95823700  0.41797977  0.89718872  1
  P  P236  1  0.95896331  0.74868782  0.14814126  1
  P  P237  1  0.95725183  0.75016939  0.39568905  1
  P  P238  1  0.95699905  0.75074915  0.64781549  1
  P  P239  1  0.95834428  0.74836152  0.89730281  1
  P  P240  1  0.20798799  0.08216966  0.22765527  1
  P  P241  1  0.20738242  0.08239263  0.47768330  1
  P  P242  1  0.20755399  0.08479540  0.72768330  1
  P  P243  1  0.20740459  0.08226366  0.97730505  1
  P  P244  1  0.20864413  0.41673013  0.22602786  1
  P  P245  1  0.20810933  0.41477455  0.47795291  1
  P  P246  1  0.20833494  0.41646629  0.72609425  1
  P  P247  1  0.20823293  0.41525984  0.97720965  1
  P  P248  1  0.20699631  0.75027263  0.22791273  1
  P  P249  1  0.20712944  0.74964667  0.47931021  1
  P  P250  1  0.20843581  0.75013724  0.72733964  1
  P  P251  1  0.20822007  0.74983942  0.97603139  1
  P  P252  1  0.70823008  0.08171254  0.22806685  1
  P  P253  1  0.70882335  0.08289275  0.47672319  1
  P  P254  1  0.70784146  0.08158030  0.72810142  1
  P  P255  1  0.70753433  0.08111204  0.97794670  1
  P  P256  1  0.70754554  0.41655556  0.22845787  1
  P  P257  1  0.70771083  0.41823217  0.47726012  1
  P  P258  1  0.70749976  0.41701439  0.72954234  1
  P  P259  1  0.70912794  0.41659725  0.97655702  1
  P  P260  1  0.70921842  0.74960549  0.22646950  1
  P  P261  1  0.70718885  0.75078483  0.47857210  1
  P  P262  1  0.70772922  0.75049233  0.72991076  1
  P  P263  1  0.70904248  0.75020452  0.97783146  1
  P  P264  1  0.29230813  0.25117824  0.02201241  1
  P  P265  1  0.29211648  0.25171151  0.27192616  1
  P  P266  1  0.29100076  0.24974324  0.52288158  1
  P  P267  1  0.29195462  0.25172970  0.77140768  1
  P  P268  1  0.29188474  0.58234668  0.02143258  1
  P  P269  1  0.29289001  0.58283932  0.27137005  1
  P  P270  1  0.29112771  0.58306337  0.52386645  1
  P  P271  1  0.29156824  0.58512002  0.77141841  1
  P  P272  1  0.29172251  0.91811363  0.02146892  1
  P  P273  1  0.29177713  0.91849027  0.27257093  1
  P  P274  1  0.29191508  0.91559828  0.52288611  1
  P  P275  1  0.29041836  0.91679548  0.77307436  1
  P  P276  1  0.79326185  0.24979432  0.02096775  1
  P  P277  1  0.79282885  0.24795871  0.27254481  1
  P  P278  1  0.79260635  0.24966751  0.52119645  1
  P  P279  1  0.79244119  0.25075197  0.77259646  1
  P  P280  1  0.79217417  0.58478242  0.02176569  1
  P  P281  1  0.79261524  0.58238835  0.27215918  1
  P  P282  1  0.79280439  0.58339161  0.52177574  1
  P  P283  1  0.79160907  0.58418659  0.77448835  1
  P  P284  1  0.79176035  0.91638291  0.02335735  1
  P  P285  1  0.79199558  0.91754355  0.27190937  1
  P  P286  1  0.79263478  0.91874882  0.52287274  1
  P  P287  1  0.79120965  0.91703598  0.77401991  1
  O  O288  1  0.03798459  0.25072668  0.18339453  1
  O  O289  1  0.03657120  0.25174811  0.43311802  1
  O  O290  1  0.03619091  0.24971691  0.68163465  1
  O  O291  1  0.03786264  0.24909957  0.93179624  1
  O  O292  1  0.03675835  0.58372828  0.18151299  1
  O  O293  1  0.03721300  0.58344695  0.43242377  1
  O  O294  1  0.03681808  0.58159342  0.68241598  1
  O  O295  1  0.03680501  0.58190158  0.93267736  1
  O  O296  1  0.03698967  0.91616986  0.18386448  1
  O  O297  1  0.03660716  0.91734686  0.43141419  1
  O  O298  1  0.03662574  0.91632835  0.68410023  1
  O  O299  1  0.03669199  0.91559450  0.93109769  1
  O  O300  1  0.53740018  0.25040240  0.18256700  1
  O  O301  1  0.53757121  0.24940803  0.43229169  1
  O  O302  1  0.53815286  0.24998242  0.68319471  1
  O  O303  1  0.53770574  0.25155416  0.93362363  1
  O  O304  1  0.53813953  0.58342485  0.18246843  1
  O  O305  1  0.53676192  0.58412240  0.43440581  1
  O  O306  1  0.53604944  0.58452584  0.68197995  1
  O  O307  1  0.53695942  0.58373096  0.93282385  1
  O  O308  1  0.53737056  0.91617215  0.18396698  1
  O  O309  1  0.53659717  0.91424816  0.43297621  1
  O  O310  1  0.53637927  0.91426825  0.68279219  1
  O  O311  1  0.53716495  0.91582677  0.93233106  1
  O  O312  1  0.46266576  0.08473267  0.06768608  1
  O  O313  1  0.46252761  0.08399443  0.31623074  1
  O  O314  1  0.46154057  0.08250187  0.56659350  1
  O  O315  1  0.46152555  0.08274820  0.81669450  1
  O  O316  1  0.46373785  0.41716652  0.06602493  1
  O  O317  1  0.46262975  0.41768037  0.31793424  1
  O  O318  1  0.46209194  0.41814006  0.56632103  1
  O  O319  1  0.46367169  0.41752794  0.81864386  1
  O  O320  1  0.46207944  0.75084148  0.06797203  1
  O  O321  1  0.46291833  0.75089384  0.31880453  1
  O  O322  1  0.46348945  0.74951366  0.56834562  1
  O  O323  1  0.46232244  0.74965702  0.81610271  1
  O  O324  1  0.96248835  0.08173413  0.06786505  1
  O  O325  1  0.96392440  0.08372129  0.31734313  1
  O  O326  1  0.96351450  0.08434134  0.56821951  1
  O  O327  1  0.96311757  0.08309198  0.81587172  1
  O  O328  1  0.96343462  0.41615321  0.06733566  1
  O  O329  1  0.96379989  0.41611955  0.31812225  1
  O  O330  1  0.96348323  0.41815339  0.56696617  1
  O  O331  1  0.96316995  0.41817602  0.81720675  1
  O  O332  1  0.96423539  0.74823640  0.06814666  1
  O  O333  1  0.96309441  0.74999033  0.31581355  1
  O  O334  1  0.96176318  0.75074920  0.56781443  1
  O  O335  1  0.96321384  0.74904083  0.81733634  1
  O  O336  1  0.21282493  0.08217270  0.05726652  1
  O  O337  1  0.21340205  0.08208849  0.30759786  1
  O  O338  1  0.21266405  0.08324122  0.55763218  1
  O  O339  1  0.21298514  0.08456322  0.80759115  1
  O  O340  1  0.21370488  0.41559015  0.05704704  1
  O  O341  1  0.21360886  0.41637582  0.30601283  1
  O  O342  1  0.21324360  0.41491587  0.55781278  1
  O  O343  1  0.21310613  0.41663295  0.80607153  1
  O  O344  1  0.21293256  0.75014436  0.05601919  1
  O  O345  1  0.21185279  0.75021936  0.30787781  1
  O  O346  1  0.21260522  0.74962454  0.55925100  1
  O  O347  1  0.21375582  0.75011921  0.80725784  1
  O  O348  1  0.71305952  0.08101454  0.05785148  1
  O  O349  1  0.71383472  0.08246679  0.30795663  1
  O  O350  1  0.71372372  0.08291505  0.55673351  1
  O  O351  1  0.71284003  0.08150545  0.80805649  1
  O  O352  1  0.71369559  0.41682476  0.05658201  1
  O  O353  1  0.71285578  0.41709339  0.30839117  1
  O  O354  1  0.71269922  0.41813627  0.55729291  1
  O  O355  1  0.71304284  0.41684387  0.80944445  1
  O  O356  1  0.71408600  0.75018559  0.05772951  1
  O  O357  1  0.71380187  0.75004670  0.30644371  1
  O  O358  1  0.71236066  0.75093542  0.55851182  1
  O  O359  1  0.71310843  0.75044245  0.80982266  1
  O  O360  1  0.28695571  0.25180975  0.19198255  1
  O  O361  1  0.28603589  0.24976366  0.44289028  1
  O  O362  1  0.28625561  0.25110478  0.69155438  1
  O  O363  1  0.28725289  0.25110034  0.94204678  1
  O  O364  1  0.28772031  0.58254470  0.19139989  1
  O  O365  1  0.28659615  0.58268735  0.44384209  1
  O  O366  1  0.28606039  0.58494938  0.69156396  1
  O  O367  1  0.28641679  0.58301795  0.94150151  1
  O  O368  1  0.28680114  0.91855169  0.19256464  1
  O  O369  1  0.28669283  0.91618527  0.44296066  1
  O  O370  1  0.28553250  0.91575559  0.69311757  1
  O  O371  1  0.28608002  0.91795829  0.94160639  1
  O  O372  1  0.78803542  0.24806316  0.19249680  1
  O  O373  1  0.78734617  0.24892973  0.44122102  1
  O  O374  1  0.78706026  0.25054555  0.69260973  1
  O  O375  1  0.78777882  0.25034744  0.94103291  1
  O  O376  1  0.78724041  0.58308732  0.19221123  1
  O  O377  1  0.78783063  0.58260893  0.44180524  1
  O  O378  1  0.78710504  0.58392724  0.69444544  1
  O  O379  1  0.78668544  0.58458061  0.94189149  1
  O  O380  1  0.78678727  0.91718857  0.19205224  1
  O  O381  1  0.78757431  0.91872263  0.44290877  1
  O  O382  1  0.78668470  0.91720024  0.69405488  1
  O  O383  1  0.78671631  0.91613196  0.94343718  1
  O  O384  1  0.22809297  0.25112916  0.05779865  1
  O  O385  1  0.22784925  0.25155227  0.30773650  1
  O  O386  1  0.22681463  0.25003138  0.55887418  1
  O  O387  1  0.22786634  0.25198174  0.80775738  1
  O  O388  1  0.22772409  0.58171074  0.05750514  1
  O  O389  1  0.22854127  0.58246479  0.30674380  1
  O  O390  1  0.22690661  0.58369195  0.55948456  1
  O  O391  1  0.22751524  0.58501665  0.80775549  1
  O  O392  1  0.22762663  0.91864487  0.05786700  1
  O  O393  1  0.22742476  0.91859254  0.30817073  1
  O  O394  1  0.22768744  0.91542893  0.55867416  1
  O  O395  1  0.22631296  0.91767849  0.80908608  1
  O  O396  1  0.72899543  0.24925240  0.05652527  1
  O  O397  1  0.72842505  0.24817905  0.30776211  1
  O  O398  1  0.72831825  0.24955457  0.55669780  1
  O  O399  1  0.72826000  0.25097656  0.80845821  1
  O  O400  1  0.72805039  0.58535453  0.05797038  1
  O  O401  1  0.72838706  0.58153117  0.30811845  1
  O  O402  1  0.72838532  0.58391540  0.55696159  1
  O  O403  1  0.72733297  0.58480126  0.80994035  1
  O  O404  1  0.72766829  0.91677422  0.05958777  1
  O  O405  1  0.72787905  0.91829280  0.30814906  1
  O  O406  1  0.72824468  0.91887212  0.55841212  1
  O  O407  1  0.72702241  0.91720614  0.80988138  1
  O  O408  1  0.27211434  0.08215564  0.19152356  1
  O  O409  1  0.27161836  0.08203371  0.44179500  1
  O  O410  1  0.27168808  0.08489150  0.69167884  1
  O  O411  1  0.27160359  0.08204159  0.94138076  1
  O  O412  1  0.27277474  0.41731228  0.18988369  1
  O  O413  1  0.27231399  0.41432799  0.44185399  1
  O  O414  1  0.27249523  0.41594741  0.69027522  1
  O  O415  1  0.27231206  0.41528734  0.94084396  1
  O  O416  1  0.27140694  0.75023739  0.19283576  1
  O  O417  1  0.27133519  0.75004350  0.44352065  1
  O  O418  1  0.27241074  0.74989486  0.69073172  1
  O  O419  1  0.27239080  0.74964479  0.94024682  1
  O  O420  1  0.77232698  0.08072184  0.19170042  1
  O  O421  1  0.77301458  0.08270838  0.44073274  1
  O  O422  1  0.77221467  0.08159593  0.69250783  1
  O  O423  1  0.77178424  0.08111150  0.94210980  1
  O  O424  1  0.77189093  0.41672108  0.19309938  1
  O  O425  1  0.77209219  0.41806710  0.44181852  1
  O  O426  1  0.77169839  0.41696578  0.69367605  1
  O  O427  1  0.77334039  0.41634401  0.94094895  1
  O  O428  1  0.77339649  0.74894422  0.19061679  1
  O  O429  1  0.77152775  0.75053312  0.44330069  1
  O  O430  1  0.77194273  0.75071355  0.69408459  1
  O  O431  1  0.77306792  0.74973977  0.94147769  1
  O  O432  1  0.02217665  0.08219063  0.18297436  1
  O  O433  1  0.02264797  0.08537035  0.43326222  1
  O  O434  1  0.02274813  0.08421988  0.68413616  1
  O  O435  1  0.02195314  0.08260000  0.93150737  1
  O  O436  1  0.02222982  0.41519558  0.18313853  1
  O  O437  1  0.02310647  0.41748978  0.43406231  1
  O  O438  1  0.02202757  0.41812810  0.68308169  1
  O  O439  1  0.02255964  0.41817312  0.93269609  1
  O  O440  1  0.02298394  0.74886257  0.18442117  1
  O  O441  1  0.02130694  0.74992864  0.43181595  1
  O  O442  1  0.02147810  0.75066273  0.68286048  1
  O  O443  1  0.02270346  0.74775648  0.93273905  1
  O  O444  1  0.52184868  0.08510113  0.18315585  1
  O  O445  1  0.52138804  0.08258634  0.43156353  1
  O  O446  1  0.52101979  0.08224879  0.68143762  1
  O  O447  1  0.52113126  0.08344557  0.93149198  1
  O  O448  1  0.52215687  0.41685871  0.18189038  1
  O  O449  1  0.52178124  0.41888965  0.43329236  1
  O  O450  1  0.52134139  0.41769531  0.68146111  1
  O  O451  1  0.52315354  0.41773944  0.93440541  1
  O  O452  1  0.52175005  0.75197828  0.18307152  1
  O  O453  1  0.52191817  0.74992475  0.43483002  1
  O  O454  1  0.52235337  0.74939921  0.68470877  1
  O  O455  1  0.52139186  0.74970713  0.93151862  1
  O  O456  1  0.47842232  0.25218355  0.06694538  1
  O  O457  1  0.47810338  0.24879370  0.31704173  1
  O  O458  1  0.47880754  0.25032595  0.56835346  1
  O  O459  1  0.47843635  0.25044373  0.81847911  1
  O  O460  1  0.47850872  0.58203318  0.06732413  1
  O  O461  1  0.47845970  0.58446539  0.31849019  1
  O  O462  1  0.47705747  0.58403625  0.56591629  1
  O  O463  1  0.47763083  0.58530970  0.81728925  1
  O  O464  1  0.47821858  0.91672294  0.06880597  1
  O  O465  1  0.47778978  0.91501939  0.31719618  1
  O  O466  1  0.47751789  0.91421373  0.56712685  1
  O  O467  1  0.47739955  0.91442944  0.81720392  1
  O  O468  1  0.97891095  0.24995866  0.06808560  1
  O  O469  1  0.97829702  0.25190926  0.31678959  1
  O  O470  1  0.97689109  0.24952008  0.56565649  1
  O  O471  1  0.97822043  0.24865445  0.81661540  1
  O  O472  1  0.97754142  0.58335854  0.06553127  1
  O  O473  1  0.97858075  0.58456161  0.31657378  1
  O  O474  1  0.97778805  0.58145152  0.56670844  1
  O  O475  1  0.97801145  0.58121854  0.81674053  1
  O  O476  1  0.97819882  0.91530321  0.06822825  1
  O  O477  1  0.97720420  0.91655796  0.31558856  1
  O  O478  1  0.97804695  0.91738907  0.56836243  1
  O  O479  1  0.97663137  0.91585761  0.81577468  1
  O  O480  1  0.07466935  0.31287202  0.07457655  1
  O  O481  1  0.07308000  0.31542417  0.32447497  1
  O  O482  1  0.07114920  0.31399780  0.57354293  1
  O  O483  1  0.07329910  0.31267313  0.82384919  1
  O  O484  1  0.07291409  0.64640218  0.07275774  1
  O  O485  1  0.07374431  0.64755942  0.32431918  1
  O  O486  1  0.07245878  0.64605390  0.57513826  1
  O  O487  1  0.07314073  0.64512669  0.82439168  1
  O  O488  1  0.07323024  0.97933478  0.07513344  1
  O  O489  1  0.07184968  0.98081101  0.32327082  1
  O  O490  1  0.07383982  0.97993066  0.57619196  1
  O  O491  1  0.07152272  0.97945753  0.82269934  1
  O  O492  1  0.57384343  0.31463591  0.07443244  1
  O  O493  1  0.57348556  0.31269061  0.32462641  1
  O  O494  1  0.57454188  0.31325598  0.57506562  1
  O  O495  1  0.57387590  0.31410185  0.82495863  1
  O  O496  1  0.57321388  0.64698262  0.07447648  1
  O  O497  1  0.57402094  0.64737595  0.32621824  1
  O  O498  1  0.57223503  0.64762751  0.57380140  1
  O  O499  1  0.57289493  0.64787647  0.82447565  1
  O  O500  1  0.57339729  0.98032618  0.07600391  1
  O  O501  1  0.57326172  0.97824531  0.32563057  1
  O  O502  1  0.57265586  0.97800640  0.57487317  1
  O  O503  1  0.57253454  0.97875485  0.82403430  1
  O  O504  1  0.42635336  0.02164938  0.17555210  1
  O  O505  1  0.42582965  0.01976484  0.42383666  1
  O  O506  1  0.42509338  0.01945429  0.67453188  1
  O  O507  1  0.42598950  0.01947987  0.92514581  1
  O  O508  1  0.42649945  0.35409059  0.17432862  1
  O  O509  1  0.42685051  0.35424322  0.42569923  1
  O  O510  1  0.42623903  0.35393905  0.67428274  1
  O  O511  1  0.42841022  0.35362715  0.92667362  1
  O  O512  1  0.42673817  0.68749643  0.17599663  1
  O  O513  1  0.42685720  0.68662848  0.42674835  1
  O  O514  1  0.42742198  0.68583904  0.67650145  1
  O  O515  1  0.42582213  0.68665035  0.92471817  1
  O  O516  1  0.92732883  0.01833322  0.17668524  1
  O  O517  1  0.92755566  0.02113005  0.42562495  1
  O  O518  1  0.92832262  0.02014128  0.67651951  1
  O  O519  1  0.92654737  0.01929157  0.92395457  1
  O  O520  1  0.92718496  0.35199381  0.17560432  1
  O  O521  1  0.92844424  0.35338318  0.42722424  1
  O  O522  1  0.92688787  0.35427552  0.67459413  1
  O  O523  1  0.92753755  0.35396440  0.92458102  1
  O  O524  1  0.92786166  0.68535333  0.17649491  1
  O  O525  1  0.92577854  0.68701202  0.42416447  1
  O  O526  1  0.92606666  0.68702203  0.67548481  1
  O  O527  1  0.92758989  0.68483873  0.92569542  1
  O  O528  1  0.17687024  0.01906617  0.19880242  1
  O  O529  1  0.17668077  0.01855802  0.44978235  1
  O  O530  1  0.17621989  0.02129047  0.70000924  1
  O  O531  1  0.17617947  0.01917119  0.94840285  1
  O  O532  1  0.17799989  0.35304372  0.19764795  1
  O  O533  1  0.17711740  0.35153535  0.44890237  1
  O  O534  1  0.17670027  0.35340240  0.69779526  1
  O  O535  1  0.17739767  0.35181294  0.94839564  1
  O  O536  1  0.17602032  0.68681722  0.19958014  1
  O  O537  1  0.17615540  0.68613851  0.45084939  1
  O  O538  1  0.17713053  0.68669306  0.69908880  1
  O  O539  1  0.17731733  0.68619151  0.94799707  1
  O  O540  1  0.67671258  0.01846014  0.19992883  1
  O  O541  1  0.67774290  0.01936675  0.44853571  1
  O  O542  1  0.67704941  0.01829185  0.69904160  1
  O  O543  1  0.67646148  0.01782205  0.94940743  1
  O  O544  1  0.67693497  0.35262731  0.20055263  1
  O  O545  1  0.67657991  0.35448771  0.44975284  1
  O  O546  1  0.67617881  0.35386984  0.70070656  1
  O  O547  1  0.67807697  0.35309580  0.94848761  1
  O  O548  1  0.67795324  0.68610467  0.19861673  1
  O  O549  1  0.67605797  0.68740682  0.45040506  1
  O  O550  1  0.67674213  0.68700838  0.70139211  1
  O  O551  1  0.67750546  0.68702003  0.94935411  1
  O  O552  1  0.32324803  0.31448716  0.05069923  1
  O  O553  1  0.32291644  0.31501490  0.30090371  1
  O  O554  1  0.32237493  0.31303771  0.55108258  1
  O  O555  1  0.32282953  0.31534898  0.79978711  1
  O  O556  1  0.32296553  0.64590860  0.04950390  1
  O  O557  1  0.32344506  0.64665353  0.29969507  1
  O  O558  1  0.32241263  0.64648469  0.55179895  1
  O  O559  1  0.32245658  0.64846516  0.80028132  1
  O  O560  1  0.32307697  0.98119298  0.05032116  1
  O  O561  1  0.32272253  0.98167320  0.30156810  1
  O  O562  1  0.32325791  0.97898034  0.55093957  1
  O  O563  1  0.32170240  0.98052595  0.80039557  1
  O  O564  1  0.82434004  0.31302214  0.04975979  1
  O  O565  1  0.82397794  0.31160003  0.30027383  1
  O  O566  1  0.82325534  0.31363460  0.54885153  1
  O  O567  1  0.82341705  0.31428170  0.80071960  1
  O  O568  1  0.82335461  0.64801187  0.05053731  1
  O  O569  1  0.82334968  0.64606607  0.30035448  1
  O  O570  1  0.82382346  0.64711428  0.54964182  1
  O  O571  1  0.82300095  0.64750720  0.80248305  1
  O  O572  1  0.82312959  0.97964617  0.05170609  1
  O  O573  1  0.82331167  0.98066215  0.30073882  1
  O  O574  1  0.82354964  0.98202178  0.55182257  1
  O  O575  1  0.82245146  0.98029888  0.80248463  1
  O  O576  1  0.42697575  0.14893615  0.17580217  1
  O  O577  1  0.42596993  0.14665662  0.42478177  1
  O  O578  1  0.42600903  0.14653599  0.67478262  1
  O  O579  1  0.42540838  0.14652496  0.92464781  1
  O  O580  1  0.42700843  0.48076875  0.17426063  1
  O  O581  1  0.42627740  0.48156323  0.42618658  1
  O  O582  1  0.42565412  0.48076976  0.67502845  1
  O  O583  1  0.42800155  0.48125744  0.92663487  1
  O  O584  1  0.42622465  0.81476407  0.17636357  1
  O  O585  1  0.42687960  0.81383819  0.42746239  1
  O  O586  1  0.42740906  0.81306690  0.67681829  1
  O  O587  1  0.42603185  0.81329359  0.92454014  1
  O  O588  1  0.92659500  0.14554105  0.17559870  1
  O  O589  1  0.92753701  0.14820391  0.42528951  1
  O  O590  1  0.92734154  0.14753135  0.67658599  1
  O  O591  1  0.92656530  0.14605571  0.92462270  1
  O  O592  1  0.92684675  0.47907161  0.17539180  1
  O  O593  1  0.92784962  0.48067275  0.42566585  1
  O  O594  1  0.92674540  0.48120657  0.67590466  1
  O  O595  1  0.92721281  0.48106951  0.92644321  1
  O  O596  1  0.92832581  0.81274937  0.17597230  1
  O  O597  1  0.92610574  0.81375779  0.42387738  1
  O  O598  1  0.92636889  0.81423121  0.67673835  1
  O  O599  1  0.92741947  0.81187101  0.92586921  1
  O  O600  1  0.07389189  0.18595106  0.07578491  1
  O  O601  1  0.07378771  0.18847692  0.32534467  1
  O  O602  1  0.07232206  0.18661766  0.57313940  1
  O  O603  1  0.07349497  0.18547155  0.82316673  1
  O  O604  1  0.07212992  0.51907876  0.07370649  1
  O  O605  1  0.07380844  0.52054492  0.32418799  1
  O  O606  1  0.07341564  0.51889097  0.57348313  1
  O  O607  1  0.07344846  0.51830009  0.82406315  1
  O  O608  1  0.07402588  0.85269447  0.07562742  1
  O  O609  1  0.07234102  0.85321436  0.32349703  1
  O  O610  1  0.07306520  0.85322933  0.57538379  1
  O  O611  1  0.07164675  0.85190020  0.82289551  1
  O  O612  1  0.57353571  0.18755267  0.07428622  1
  O  O613  1  0.57315339  0.18534704  0.32383881  1
  O  O614  1  0.57407887  0.18621494  0.57510573  1
  O  O615  1  0.57385145  0.18707464  0.82592831  1
  O  O616  1  0.57422529  0.51975432  0.07391659  1
  O  O617  1  0.57370680  0.52070290  0.32609015  1
  O  O618  1  0.57189758  0.52022006  0.57402180  1
  O  O619  1  0.57276405  0.52089141  0.82440929  1
  O  O620  1  0.57390087  0.85344002  0.07528840  1
  O  O621  1  0.57273518  0.85114305  0.32413065  1
  O  O622  1  0.57287657  0.85089989  0.57445672  1
  O  O623  1  0.57273770  0.85156102  0.82408262  1
  O  O624  1  0.32321946  0.18737325  0.04981241  1
  O  O625  1  0.32311093  0.18798164  0.29967123  1
  O  O626  1  0.32134195  0.18573129  0.55110124  1
  O  O627  1  0.32327883  0.18841083  0.79976169  1
  O  O628  1  0.32276938  0.51875257  0.04950011  1
  O  O629  1  0.32446746  0.51982637  0.29984783  1
  O  O630  1  0.32116560  0.51896274  0.55219942  1
  O  O631  1  0.32286249  0.52150230  0.79923090  1
  O  O632  1  0.32253678  0.85424869  0.04943906  1
  O  O633  1  0.32258146  0.85460066  0.30027941  1
  O  O634  1  0.32252858  0.85194252  0.55134288  1
  O  O635  1  0.32071267  0.85307363  0.80203611  1
  O  O636  1  0.82452303  0.18613661  0.04850586  1
  O  O637  1  0.82333437  0.18436770  0.30104234  1
  O  O638  1  0.82411007  0.18672451  0.54992464  1
  O  O639  1  0.82339044  0.18697501  0.80008862  1
  O  O640  1  0.82306779  0.52105055  0.04972851  1
  O  O641  1  0.82367159  0.51885070  0.30020539  1
  O  O642  1  0.82384974  0.52027349  0.55076783  1
  O  O643  1  0.82169074  0.52007909  0.80279649  1
  O  O644  1  0.82213413  0.85242566  0.05200585  1
  O  O645  1  0.82269572  0.85373845  0.30003241  1
  O  O646  1  0.82347233  0.85497894  0.55081496  1
  O  O647  1  0.82146317  0.85304006  0.80253489  1
  O  O648  1  0.17711427  0.14616688  0.20027146  1
  O  O649  1  0.17623549  0.14566521  0.44917736  1
  O  O650  1  0.17694458  0.14837626  0.69909099  1
  O  O651  1  0.17662795  0.14626578  0.94992039  1
  O  O652  1  0.17771631  0.48043300  0.19795089  1
  O  O653  1  0.17740509  0.47856130  0.44977275  1
  O  O654  1  0.17835386  0.48073505  0.69785165  1
  O  O655  1  0.17692870  0.47870640  0.94907274  1
  O  O656  1  0.17611959  0.81379206  0.19978485  1
  O  O657  1  0.17558323  0.81288694  0.45107200  1
  O  O658  1  0.17772244  0.81389755  0.69904862  1
  O  O659  1  0.17767273  0.81367395  0.94768193  1
  O  O660  1  0.67756791  0.14537935  0.19951333  1
  O  O661  1  0.67822961  0.14668351  0.44834436  1
  O  O662  1  0.67695212  0.14537325  0.70031958  1
  O  O663  1  0.67655503  0.14486293  0.95025297  1
  O  O664  1  0.67598376  0.47953988  0.19987622  1
  O  O665  1  0.67716274  0.48175386  0.44877968  1
  O  O666  1  0.67635739  0.48062824  0.70149662  1
  O  O667  1  0.67879917  0.48068551  0.94848276  1
  O  O668  1  0.67907747  0.81357933  0.19796418  1
  O  O669  1  0.67638480  0.81434920  0.45036767  1
  O  O670  1  0.67640494  0.81373220  0.70151296  1
  O  O671  1  0.67866006  0.81417343  0.94937353  1
