# generated using pymatgen
data_Na2MnFe(PO4)2
_symmetry_space_group_name_H-M   'P 1'
_cell_length_a   22.34235714
_cell_length_b   20.09360569
_cell_length_c   19.44998714
_cell_angle_alpha   89.99865223
_cell_angle_beta   90.04417583
_cell_angle_gamma   89.98562579
_symmetry_Int_Tables_number   1
_chemical_formula_structural   Na2MnFe(PO4)2
_chemical_formula_sum   'Na96 Mn48 Fe48 P96 O384'
_cell_volume   8731.84546573
_cell_formula_units_Z   48
loop_
 _symmetry_equiv_pos_site_id
 _symmetry_equiv_pos_as_xyz
  1  'x, y, z'
loop_
 _atom_site_type_symbol
 _atom_site_label
 _atom_site_symmetry_multiplicity
 _atom_site_fract_x
 _atom_site_fract_y
 _atom_site_fract_z
 _atom_site_occupancy
  Na  Na0  1  0.14000137  0.25137243  0.24258472  1
  Na  Na1  1  0.14072269  0.25097156  0.49301311  1
  Na  Na2  1  0.14019727  0.24969244  0.74442533  1
  Na  Na3  1  0.13964656  0.25069044  0.99390177  1
  Na  Na4  1  0.14095320  0.58317125  0.24341734  1
  Na  Na5  1  0.14074449  0.58342126  0.49256762  1
  Na  Na6  1  0.13964735  0.58255741  0.74442264  1
  Na  Na7  1  0.13968471  0.58265395  0.99357343  1
  Na  Na8  1  0.14054374  0.91546672  0.24431956  1
  Na  Na9  1  0.13972978  0.91575506  0.49287840  1
  Na  Na10  1  0.13955472  0.91525806  0.74243037  1
  Na  Na11  1  0.14069033  0.91497785  0.99382365  1
  Na  Na12  1  0.64018331  0.24959914  0.24439543  1
  Na  Na13  1  0.64048320  0.24961256  0.49527333  1
  Na  Na14  1  0.64033268  0.25057784  0.74349253  1
  Na  Na15  1  0.64015414  0.25128615  0.99232144  1
  Na  Na16  1  0.64034326  0.58417377  0.24287566  1
  Na  Na17  1  0.64010594  0.58263123  0.49484475  1
  Na  Na18  1  0.63977062  0.58341297  0.74358107  1
  Na  Na19  1  0.63998384  0.58389025  0.99285734  1
  Na  Na20  1  0.64048544  0.91662499  0.24424496  1
  Na  Na21  1  0.63991124  0.91770734  0.49432804  1
  Na  Na22  1  0.63995022  0.91789957  0.74329279  1
  Na  Na23  1  0.64015727  0.91682343  0.99392149  1
  Na  Na24  1  0.35978081  0.08254312  0.00632711  1
  Na  Na25  1  0.35947828  0.08339857  0.25675902  1
  Na  Na26  1  0.36011302  0.08320314  0.50731893  1
  Na  Na27  1  0.36041628  0.08262570  0.75636066  1
  Na  Na28  1  0.35970110  0.41761160  0.00646574  1
  Na  Na29  1  0.35916359  0.41796044  0.25597983  1
  Na  Na30  1  0.35979063  0.41811377  0.50607852  1
  Na  Na31  1  0.36013459  0.41741520  0.75722402  1
  Na  Na32  1  0.35906220  0.74772913  0.00658356  1
  Na  Na33  1  0.35977066  0.74860208  0.25594562  1
  Na  Na34  1  0.35984476  0.74966734  0.50553812  1
  Na  Na35  1  0.35946900  0.74752202  0.75634628  1
  Na  Na36  1  0.85970755  0.08353597  0.00644628  1
  Na  Na37  1  0.86032599  0.08323847  0.25678121  1
  Na  Na38  1  0.86027258  0.08264611  0.50709974  1
  Na  Na39  1  0.86058383  0.08375232  0.75745509  1
  Na  Na40  1  0.85987840  0.41738842  0.00637592  1
  Na  Na41  1  0.85986049  0.41505728  0.25563961  1
  Na  Na42  1  0.86026990  0.41692406  0.50589647  1
  Na  Na43  1  0.86003644  0.41784165  0.75703246  1
  Na  Na44  1  0.85954704  0.74990540  0.00567498  1
  Na  Na45  1  0.85969156  0.75008531  0.25459279  1
  Na  Na46  1  0.85973240  0.75079098  0.50734019  1
  Na  Na47  1  0.85967510  0.75145519  0.75593762  1
  Na  Na48  1  0.10924284  0.08398853  0.11945008  1
  Na  Na49  1  0.10902230  0.08388827  0.36817569  1
  Na  Na50  1  0.10936856  0.08243831  0.61934907  1
  Na  Na51  1  0.10910950  0.08250763  0.86871292  1
  Na  Na52  1  0.10941251  0.41605023  0.11742346  1
  Na  Na53  1  0.11024353  0.41656786  0.36751670  1
  Na  Na54  1  0.10983745  0.41715142  0.61898902  1
  Na  Na55  1  0.10965872  0.41604693  0.86958708  1
  Na  Na56  1  0.11026248  0.74890330  0.11783439  1
  Na  Na57  1  0.11002973  0.75130752  0.36820493  1
  Na  Na58  1  0.10949130  0.74989505  0.61757945  1
  Na  Na59  1  0.10927452  0.74838598  0.86828081  1
  Na  Na60  1  0.60932419  0.08440705  0.11875906  1
  Na  Na61  1  0.60966807  0.08413927  0.37064810  1
  Na  Na62  1  0.60969850  0.08236599  0.61907271  1
  Na  Na63  1  0.60919672  0.08289403  0.86823555  1
  Na  Na64  1  0.60958166  0.41723287  0.11735189  1
  Na  Na65  1  0.60940205  0.41821949  0.36917190  1
  Na  Na66  1  0.60966725  0.41645781  0.62029211  1
  Na  Na67  1  0.60955542  0.41622740  0.86705276  1
  Na  Na68  1  0.61001149  0.75068455  0.11787958  1
  Na  Na69  1  0.60999011  0.75121660  0.36932139  1
  Na  Na70  1  0.60905768  0.74985414  0.61881329  1
  Na  Na71  1  0.60881729  0.74948917  0.86901068  1
  Na  Na72  1  0.39022151  0.25147090  0.13100243  1
  Na  Na73  1  0.39030538  0.25108803  0.38210163  1
  Na  Na74  1  0.39113042  0.24917072  0.63153030  1
  Na  Na75  1  0.39090445  0.24900439  0.88095679  1
  Na  Na76  1  0.38966723  0.58402003  0.13142738  1
  Na  Na77  1  0.39020868  0.58498237  0.38141343  1
  Na  Na78  1  0.39002229  0.58251435  0.63183772  1
  Na  Na79  1  0.38961039  0.58210194  0.88172750  1
  Na  Na80  1  0.39038710  0.91593303  0.13131108  1
  Na  Na81  1  0.39061985  0.91707170  0.38206063  1
  Na  Na82  1  0.39079197  0.91613617  0.63055972  1
  Na  Na83  1  0.39039585  0.91558190  0.88113594  1
  Na  Na84  1  0.89019535  0.24938718  0.13135037  1
  Na  Na85  1  0.89074869  0.24947530  0.38079321  1
  Na  Na86  1  0.89139287  0.25010676  0.63186898  1
  Na  Na87  1  0.89090364  0.25043174  0.88230176  1
  Na  Na88  1  0.89004513  0.58270554  0.13031961  1
  Na  Na89  1  0.89044848  0.58412509  0.38098682  1
  Na  Na90  1  0.89078867  0.58321152  0.63121582  1
  Na  Na91  1  0.89024120  0.58204558  0.88193168  1
  Na  Na92  1  0.89067163  0.91701338  0.13096360  1
  Na  Na93  1  0.89069181  0.91763329  0.38169219  1
  Na  Na94  1  0.89047959  0.91784700  0.63195531  1
  Na  Na95  1  0.89032104  0.91731189  0.88036819  1
  Mn  Mn96  1  0.49974486  0.16676409  -0.00056147  1
  Mn  Mn97  1  0.00004099  0.33316607  0.75062115  1
  Mn  Mn98  1  0.74936071  0.66713424  0.87464184  1
  Mn  Mn99  1  0.00087495  0.33432156  0.50062300  1
  Mn  Mn100  1  0.24969551  0.16747707  0.12553093  1
  Mn  Mn101  1  0.25061141  0.33435818  0.87497014  1
  Mn  Mn102  1  0.50025826  0.33381285  0.50113195  1
  Mn  Mn103  1  0.49948077  0.16753115  0.25022107  1
  Mn  Mn104  1  0.24981498  -0.00106753  0.37501308  1
  Mn  Mn105  1  0.50033648  0.66657895  0.50047999  1
  Mn  Mn106  1  0.24987908  -0.00146895  0.87552134  1
  Mn  Mn107  1  0.74947164  0.49990598  0.12462991  1
  Mn  Mn108  1  0.25000043  0.16665119  0.87556647  1
  Mn  Mn109  1  0.50099161  0.83353416  0.25007928  1
  Mn  Mn110  1  0.25031269  0.16673419  0.62466912  1
  Mn  Mn111  1  0.74941460  0.33218187  0.37585067  1
  Mn  Mn112  1  0.75138080  0.16677443  0.62594622  1
  Mn  Mn113  1  0.75029138  0.83335799  0.37531304  1
  Mn  Mn114  1  0.49940649  0.83314271  -0.00015136  1
  Mn  Mn115  1  0.24943085  0.50101584  0.62508184  1
  Mn  Mn116  1  0.74986046  0.16707372  0.87501331  1
  Mn  Mn117  1  -0.00052437  0.83417336  0.24913362  1
  Mn  Mn118  1  0.00045149  0.00061642  -0.00001405  1
  Mn  Mn119  1  0.49998885  0.49998119  -0.00039831  1
  Mn  Mn120  1  0.49980002  0.83279010  0.75022545  1
  Mn  Mn121  1  0.75111285  0.33436304  0.62466593  1
  Mn  Mn122  1  0.75073220  0.00059830  0.37480813  1
  Mn  Mn123  1  -0.00027484  0.66616275  0.74906692  1
  Mn  Mn124  1  0.75019754  0.49937315  0.37403861  1
  Mn  Mn125  1  0.74915960  0.83466925  0.87538824  1
  Mn  Mn126  1  0.25037337  0.83148598  0.62454180  1
  Mn  Mn127  1  0.00011931  0.66726712  0.50009517  1
  Mn  Mn128  1  0.00013415  0.66686001  0.25001222  1
  Mn  Mn129  1  0.00054939  0.49932675  0.24932634  1
  Mn  Mn130  1  0.75026569  0.66662330  0.62567162  1
  Mn  Mn131  1  0.24967703  0.83089952  0.87414431  1
  Mn  Mn132  1  0.74940923  0.16721704  0.12452768  1
  Mn  Mn133  1  0.74974493  -0.00049048  0.12583896  1
  Mn  Mn134  1  0.24964859  -0.00156308  0.12575639  1
  Mn  Mn135  1  0.25006280  0.16770512  0.37501451  1
  Mn  Mn136  1  0.00094912  0.16631826  0.50013390  1
  Mn  Mn137  1  0.50033768  0.33465463  0.25091082  1
  Mn  Mn138  1  0.24999267  -0.00082006  0.62446068  1
  Mn  Mn139  1  0.25036612  0.33418951  0.62487145  1
  Mn  Mn140  1  0.00058768  0.83281667  -0.00042982  1
  Mn  Mn141  1  0.49989271  0.00086377  0.25096835  1
  Mn  Mn142  1  0.74981341  0.66664723  0.37527631  1
  Mn  Mn143  1  0.49985449  0.50205884  0.24913103  1
  Fe  Fe144  1  -0.00027138  0.83436125  0.49938445  1
  Fe  Fe145  1  0.49989492  0.33312917  -0.00117681  1
  Fe  Fe146  1  -0.00023868  0.33235149  -0.00009086  1
  Fe  Fe147  1  0.25000138  0.33448574  0.12467157  1
  Fe  Fe148  1  0.74927433  0.83415802  0.62566676  1
  Fe  Fe149  1  0.50040135  0.16657110  0.50131918  1
  Fe  Fe150  1  0.24938508  0.66573609  0.12542997  1
  Fe  Fe151  1  0.25021154  0.50036930  0.37443860  1
  Fe  Fe152  1  0.49967534  0.66633006  -0.00039270  1
  Fe  Fe153  1  0.25045532  0.33448739  0.37405581  1
  Fe  Fe154  1  0.00051740  0.00045919  0.25024110  1
  Fe  Fe155  1  -0.00008974  0.16688991  0.25000509  1
  Fe  Fe156  1  0.75009520  0.00023738  0.87524646  1
  Fe  Fe157  1  0.24975450  0.50042373  0.12565655  1
  Fe  Fe158  1  0.75047170  0.83332808  0.12447124  1
  Fe  Fe159  1  -0.00019693  0.49897291  0.00020506  1
  Fe  Fe160  1  0.49963170  0.00013629  -0.00015943  1
  Fe  Fe161  1  0.49999973  0.16550565  0.75019570  1
  Fe  Fe162  1  0.75037713  0.33441907  0.87439381  1
  Fe  Fe163  1  0.24969854  0.66623605  0.62420305  1
  Fe  Fe164  1  0.49949798  0.49939843  0.75067336  1
  Fe  Fe165  1  0.25018198  0.83168428  0.12489070  1
  Fe  Fe166  1  0.75011574  0.50066425  0.87528421  1
  Fe  Fe167  1  -0.00072284  0.66583448  -0.00134262  1
  Fe  Fe168  1  0.25003040  0.66648818  0.37431576  1
  Fe  Fe169  1  0.00063459  0.16645020  0.75059621  1
  Fe  Fe170  1  0.49997986  0.00025279  0.50069464  1
  Fe  Fe171  1  0.49995777  0.33234924  0.74925827  1
  Fe  Fe172  1  0.49938940  0.66566638  0.74955730  1
  Fe  Fe173  1  0.74961798  0.33369174  0.12433909  1
  Fe  Fe174  1  0.75010993  0.66687834  0.12439152  1
  Fe  Fe175  1  -0.00006566  0.83328198  0.74934817  1
  Fe  Fe176  1  0.75008956  0.50021908  0.62524141  1
  Fe  Fe177  1  0.24924812  0.50054145  0.87601337  1
  Fe  Fe178  1  0.50051744  0.66757698  0.25044497  1
  Fe  Fe179  1  0.25066748  0.83196568  0.37432425  1
  Fe  Fe180  1  -0.00042714  0.16632931  0.00056009  1
  Fe  Fe181  1  0.74978538  0.00059687  0.62539753  1
  Fe  Fe182  1  0.00029140  0.50013810  0.49957448  1
  Fe  Fe183  1  0.00005870  0.49948748  0.75076885  1
  Fe  Fe184  1  -0.00029939  0.00014315  0.50033965  1
  Fe  Fe185  1  0.50008149  0.50019510  0.50090241  1
  Fe  Fe186  1  0.49997317  0.83348001  0.50039704  1
  Fe  Fe187  1  0.50000131  -0.00054288  0.74966408  1
  Fe  Fe188  1  0.75057783  0.16656009  0.37533530  1
  Fe  Fe189  1  0.00014715  -0.00030302  0.74980486  1
  Fe  Fe190  1  -0.00032083  0.33318789  0.24928909  1
  Fe  Fe191  1  0.24909171  0.66535811  0.87599777  1
  P  P192  1  0.04092850  0.24947273  0.10228579  1
  P  P193  1  0.04158234  0.25058291  0.35114277  1
  P  P194  1  0.04343255  0.24976435  0.60366495  1
  P  P195  1  0.04215602  0.24841245  0.85355263  1
  P  P196  1  0.04089356  0.58299039  0.10094868  1
  P  P197  1  0.04288395  0.58316665  0.35316296  1
  P  P198  1  0.04245401  0.58205983  0.60233541  1
  P  P199  1  0.04129432  0.58186528  0.85314536  1
  P  P200  1  0.04298639  0.91716320  0.10316296  1
  P  P201  1  0.04195839  0.91810904  0.35293185  1
  P  P202  1  0.04125982  0.91676600  0.60200644  1
  P  P203  1  0.04156735  0.91603826  0.85113792  1
  P  P204  1  0.54225804  0.25176947  0.10178658  1
  P  P205  1  0.54256014  0.25027743  0.35440870  1
  P  P206  1  0.54228083  0.24852890  0.60401898  1
  P  P207  1  0.54121541  0.24946384  0.85126385  1
  P  P208  1  0.54224681  0.58517714  0.10225843  1
  P  P209  1  0.54268362  0.58540388  0.35279673  1
  P  P210  1  0.54180515  0.58166572  0.60384084  1
  P  P211  1  0.54089581  0.58319386  0.85174282  1
  P  P212  1  0.54217537  0.91813517  0.10220097  1
  P  P213  1  0.54288807  0.91736281  0.35451394  1
  P  P214  1  0.54124118  0.91670380  0.60228167  1
  P  P215  1  0.54187762  0.91762035  0.85261827  1
  P  P216  1  0.45690588  0.08365388  0.14667988  1
  P  P217  1  0.45828217  0.08403119  0.39942174  1
  P  P218  1  0.45881639  0.08279270  0.64777803  1
  P  P219  1  0.45766042  0.08164645  0.89667269  1
  P  P220  1  0.45727519  0.41728799  0.14645967  1
  P  P221  1  0.45804427  0.41884778  0.39812184  1
  P  P222  1  0.45845917  0.41674866  0.64855018  1
  P  P223  1  0.45815567  0.41527738  0.89633136  1
  P  P224  1  0.45826115  0.74877356  0.14724904  1
  P  P225  1  0.45834049  0.75132610  0.39762831  1
  P  P226  1  0.45771184  0.74864582  0.64743748  1
  P  P227  1  0.45729325  0.74792458  0.89709246  1
  P  P228  1  0.95854084  0.08355216  0.14847750  1
  P  P229  1  0.95810744  0.08240542  0.39723205  1
  P  P230  1  0.95894102  0.08336974  0.64868681  1
  P  P231  1  0.95789093  0.08457255  0.89709915  1
  P  P232  1  0.95797489  0.41489615  0.14628691  1
  P  P233  1  0.95809073  0.41754795  0.39700414  1
  P  P234  1  0.95820260  0.41824623  0.64774315  1
  P  P235  1  0.95882070  0.41618151  0.89851284  1
  P  P236  1  0.95774645  0.74927217  0.14559462  1
  P  P237  1  0.95754202  0.75176997  0.39748681  1
  P  P238  1  0.95783068  0.75177925  0.64664846  1
  P  P239  1  0.95777707  0.74900079  0.89641599  1
  P  P240  1  0.20715127  0.08319289  0.22840591  1
  P  P241  1  0.20718785  0.08322816  0.47780481  1
  P  P242  1  0.20740706  0.08274672  0.72811532  1
  P  P243  1  0.20697094  0.08278009  0.97862966  1
  P  P244  1  0.20828233  0.41725502  0.22689458  1
  P  P245  1  0.20869555  0.41720460  0.47584844  1
  P  P246  1  0.20720736  0.41750391  0.72869728  1
  P  P247  1  0.20795064  0.41819370  0.97856832  1
  P  P248  1  0.20872729  0.74931660  0.22715066  1
  P  P249  1  0.20848910  0.74906253  0.47620903  1
  P  P250  1  0.20741208  0.74693406  0.72734720  1
  P  P251  1  0.20715617  0.74766462  0.97824109  1
  P  P252  1  0.70711855  0.08387009  0.22867582  1
  P  P253  1  0.70848765  0.08439711  0.47825294  1
  P  P254  1  0.70825705  0.08259849  0.72820188  1
  P  P255  1  0.70748095  0.08234143  0.97734529  1
  P  P256  1  0.70718154  0.41509600  0.22700076  1
  P  P257  1  0.70711267  0.41704065  0.47864747  1
  P  P258  1  0.70837138  0.41822285  0.72828578  1
  P  P259  1  0.70836078  0.41705645  0.97628347  1
  P  P260  1  0.70846709  0.75031174  0.22613261  1
  P  P261  1  0.70752016  0.75045344  0.47919333  1
  P  P262  1  0.70733330  0.75163800  0.72751002  1
  P  P263  1  0.70702386  0.75042050  0.97878776  1
  P  P264  1  0.29214325  0.25167741  0.02276375  1
  P  P265  1  0.29216012  0.25236893  0.27192178  1
  P  P266  1  0.29318845  0.25116903  0.52123039  1
  P  P267  1  0.29317693  0.25011824  0.77200966  1
  P  P268  1  0.29070581  0.58282287  0.02334895  1
  P  P269  1  0.29130608  0.58333845  0.27265740  1
  P  P270  1  0.29216272  0.58475519  0.52156537  1
  P  P271  1  0.29093261  0.58321514  0.77379225  1
  P  P272  1  0.29222769  0.91394448  0.02275282  1
  P  P273  1  0.29254618  0.91410190  0.27217473  1
  P  P274  1  0.29266449  0.91506769  0.52100769  1
  P  P275  1  0.29270421  0.91505410  0.77167148  1
  P  P276  1  0.79183590  0.25206339  0.02174580  1
  P  P277  1  0.79216544  0.24883052  0.27232359  1
  P  P278  1  0.79388706  0.24962793  0.52193840  1
  P  P279  1  0.79282084  0.25172121  0.77296343  1
  P  P280  1  0.79168429  0.58417692  0.02195114  1
  P  P281  1  0.79271398  0.58377164  0.27095274  1
  P  P282  1  0.79255053  0.58213026  0.52278185  1
  P  P283  1  0.79204454  0.58245795  0.77239743  1
  P  P284  1  0.79248568  0.91620757  0.02232849  1
  P  P285  1  0.79326882  0.91605913  0.27164090  1
  P  P286  1  0.79124681  0.91721488  0.52410586  1
  P  P287  1  0.79162163  0.91853665  0.77187642  1
  O  O288  1  0.03605697  0.25009753  0.18218744  1
  O  O289  1  0.03731524  0.25056632  0.43115493  1
  O  O290  1  0.03815245  0.24944403  0.68358781  1
  O  O291  1  0.03651150  0.24847663  0.93338377  1
  O  O292  1  0.03652684  0.58300334  0.18095516  1
  O  O293  1  0.03772645  0.58280849  0.43308337  1
  O  O294  1  0.03700388  0.58216099  0.68227961  1
  O  O295  1  0.03554118  0.58251570  0.93296269  1
  O  O296  1  0.03765064  0.91768738  0.18307337  1
  O  O297  1  0.03636784  0.91773597  0.43281385  1
  O  O298  1  0.03613611  0.91617538  0.68193092  1
  O  O299  1  0.03705752  0.91630840  0.93111993  1
  O  O300  1  0.53735233  0.25176208  0.18175927  1
  O  O301  1  0.53738167  0.24974198  0.43436195  1
  O  O302  1  0.53659287  0.24832630  0.68385815  1
  O  O303  1  0.53620650  0.25024607  0.93122476  1
  O  O304  1  0.53735500  0.58554779  0.18222693  1
  O  O305  1  0.53759569  0.58451188  0.43270207  1
  O  O306  1  0.53608268  0.58172672  0.68367566  1
  O  O307  1  0.53595415  0.58368907  0.93172934  1
  O  O308  1  0.53721825  0.91776916  0.18218653  1
  O  O309  1  0.53754247  0.91714036  0.43443116  1
  O  O310  1  0.53603073  0.91687000  0.68225128  1
  O  O311  1  0.53651454  0.91767670  0.93251471  1
  O  O312  1  0.46196872  0.08314026  0.06671051  1
  O  O313  1  0.46306704  0.08425737  0.31938736  1
  O  O314  1  0.46424459  0.08299610  0.56788003  1
  O  O315  1  0.46321085  0.08190838  0.81678461  1
  O  O316  1  0.46220526  0.41684287  0.06648856  1
  O  O317  1  0.46317825  0.41891769  0.31817842  1
  O  O318  1  0.46355500  0.41720675  0.56860774  1
  O  O319  1  0.46353413  0.41555470  0.81646000  1
  O  O320  1  0.46320266  0.74854568  0.06726352  1
  O  O321  1  0.46379290  0.75077147  0.31772034  1
  O  O322  1  0.46324483  0.74941063  0.56757243  1
  O  O323  1  0.46269153  0.74780816  0.81717378  1
  O  O324  1  0.96331312  0.08424696  0.06851323  1
  O  O325  1  0.96337610  0.08251770  0.31738871  1
  O  O326  1  0.96374897  0.08271313  0.56874253  1
  O  O327  1  0.96337853  0.08439350  0.81729527  1
  O  O328  1  0.96332535  0.41499730  0.06643085  1
  O  O329  1  0.96320034  0.41653180  0.31704850  1
  O  O330  1  0.96364124  0.41851158  0.56782943  1
  O  O331  1  0.96334364  0.41638415  0.81854831  1
  O  O332  1  0.96314511  0.74848917  0.06566441  1
  O  O333  1  0.96253882  0.75143742  0.31749643  1
  O  O334  1  0.96323504  0.75214614  0.56672595  1
  O  O335  1  0.96303218  0.74959266  0.81643628  1
  O  O336  1  0.21207742  0.08278635  0.05861679  1
  O  O337  1  0.21238554  0.08339394  0.30834780  1
  O  O338  1  0.21240515  0.08326842  0.55779293  1
  O  O339  1  0.21236827  0.08253488  0.80813057  1
  O  O340  1  0.21332330  0.41792139  0.05844795  1
  O  O341  1  0.21358318  0.41705518  0.30678263  1
  O  O342  1  0.21319652  0.41753074  0.55586817  1
  O  O343  1  0.21224137  0.41799850  0.80864433  1
  O  O344  1  0.21239076  0.74834602  0.05810847  1
  O  O345  1  0.21388922  0.74935861  0.30704280  1
  O  O346  1  0.21352964  0.74851486  0.55618628  1
  O  O347  1  0.21229312  0.74671018  0.80732070  1
  O  O348  1  0.71249978  0.08271702  0.05731533  1
  O  O349  1  0.71263528  0.08436334  0.30860956  1
  O  O350  1  0.71384689  0.08366028  0.55821449  1
  O  O351  1  0.71323803  0.08234162  0.80816059  1
  O  O352  1  0.71298375  0.41637014  0.05630996  1
  O  O353  1  0.71214219  0.41529448  0.30697212  1
  O  O354  1  0.71250085  0.41782389  0.55858242  1
  O  O355  1  0.71393899  0.41798332  0.80818201  1
  O  O356  1  0.71257812  0.75009616  0.05866302  1
  O  O357  1  0.71345845  0.75009961  0.30619102  1
  O  O358  1  0.71270043  0.75099187  0.55913612  1
  O  O359  1  0.71199208  0.75152896  0.80750610  1
  O  O360  1  0.28668262  0.25248964  0.19198414  1
  O  O361  1  0.28796597  0.25177239  0.44123939  1
  O  O362  1  0.28825577  0.25011276  0.69201730  1
  O  O363  1  0.28721985  0.25123794  0.94276991  1
  O  O364  1  0.28616265  0.58276801  0.19281201  1
  O  O365  1  0.28701559  0.58457122  0.44172215  1
  O  O366  1  0.28614401  0.58352143  0.69381351  1
  O  O367  1  0.28559720  0.58303693  0.94347536  1
  O  O368  1  0.28710180  0.91404268  0.19222673  1
  O  O369  1  0.28759171  0.91464789  0.44104992  1
  O  O370  1  0.28783078  0.91514463  0.69165706  1
  O  O371  1  0.28683628  0.91407523  0.94278501  1
  O  O372  1  0.78687552  0.24957526  0.19239073  1
  O  O373  1  0.78855878  0.24886411  0.44201203  1
  O  O374  1  0.78812717  0.25142549  0.69297843  1
  O  O375  1  0.78652732  0.25221028  0.94180413  1
  O  O376  1  0.78738119  0.58434229  0.19096616  1
  O  O377  1  0.78747720  0.58254242  0.44277531  1
  O  O378  1  0.78692439  0.58217293  0.69243798  1
  O  O379  1  0.78647622  0.58363424  0.94200332  1
  O  O380  1  0.78810017  0.91545536  0.19171116  1
  O  O381  1  0.78684991  0.91709652  0.44406202  1
  O  O382  1  0.78594066  0.91830853  0.69201238  1
  O  O383  1  0.78708986  0.91724311  0.94238438  1
  O  O384  1  0.22777005  0.25179648  0.05804028  1
  O  O385  1  0.22792240  0.25245851  0.30770171  1
  O  O386  1  0.22877249  0.25080658  0.55635921  1
  O  O387  1  0.22871185  0.25044463  0.80689249  1
  O  O388  1  0.22668381  0.58216707  0.05966240  1
  O  O389  1  0.22732462  0.58385875  0.30899772  1
  O  O390  1  0.22785913  0.58502080  0.55740935  1
  O  O391  1  0.22670722  0.58296566  0.80974190  1
  O  O392  1  0.22795796  0.91358309  0.05837725  1
  O  O393  1  0.22829920  0.91401904  0.30794281  1
  O  O394  1  0.22831294  0.91509491  0.55624451  1
  O  O395  1  0.22817790  0.91499944  0.80642965  1
  O  O396  1  0.72756964  0.25198091  0.05746803  1
  O  O397  1  0.72795154  0.24784328  0.30824049  1
  O  O398  1  0.72956008  0.25004597  0.55721251  1
  O  O399  1  0.72835375  0.25175040  0.80797187  1
  O  O400  1  0.72751296  0.58449127  0.05771230  1
  O  O401  1  0.72836613  0.58348529  0.30628530  1
  O  O402  1  0.72822194  0.58213780  0.55825645  1
  O  O403  1  0.72770950  0.58232606  0.80789622  1
  O  O404  1  0.72826525  0.91522398  0.05815778  1
  O  O405  1  0.72888816  0.91673585  0.30679613  1
  O  O406  1  0.72689913  0.91760648  0.55940817  1
  O  O407  1  0.72749629  0.91926418  0.80808988  1
  O  O408  1  0.27148426  0.08316048  0.19324478  1
  O  O409  1  0.27162258  0.08326701  0.44286668  1
  O  O410  1  0.27188899  0.08266182  0.69316458  1
  O  O411  1  0.27147031  0.08254130  0.94377682  1
  O  O412  1  0.27237343  0.41750343  0.19063560  1
  O  O413  1  0.27299132  0.41658311  0.44040319  1
  O  O414  1  0.27158991  0.41772781  0.69351941  1
  O  O415  1  0.27206736  0.41891892  0.94241437  1
  O  O416  1  0.27271230  0.74932450  0.19075752  1
  O  O417  1  0.27268094  0.74896073  0.44021322  1
  O  O418  1  0.27184249  0.74694157  0.69200896  1
  O  O419  1  0.27137401  0.74715043  0.94231466  1
  O  O420  1  0.77141276  0.08374731  0.19327135  1
  O  O421  1  0.77268744  0.08496649  0.44232397  1
  O  O422  1  0.77264167  0.08208354  0.69285451  1
  O  O423  1  0.77187088  0.08242853  0.94204099  1
  O  O424  1  0.77156950  0.41527104  0.19166434  1
  O  O425  1  0.77143561  0.41631837  0.44329273  1
  O  O426  1  0.77249095  0.41889426  0.69204503  1
  O  O427  1  0.77270228  0.41746266  0.94079424  1
  O  O428  1  0.77263729  0.75068143  0.19020250  1
  O  O429  1  0.77187235  0.74997825  0.44391372  1
  O  O430  1  0.77174149  0.75158275  0.69246189  1
  O  O431  1  0.77118892  0.75059561  0.94301590  1
  O  O432  1  0.02268439  0.08304664  0.18452305  1
  O  O433  1  0.02228305  0.08143750  0.43341238  1
  O  O434  1  0.02305905  0.08370710  0.68474942  1
  O  O435  1  0.02202865  0.08529921  0.93336982  1
  O  O436  1  0.02217781  0.41454534  0.18239073  1
  O  O437  1  0.02246503  0.41851822  0.43271059  1
  O  O438  1  0.02239223  0.41778380  0.68372116  1
  O  O439  1  0.02293366  0.41617065  0.93431323  1
  O  O440  1  0.02197925  0.75000778  0.18126643  1
  O  O441  1  0.02193152  0.75179295  0.43284038  1
  O  O442  1  0.02200957  0.75126588  0.68261032  1
  O  O443  1  0.02200379  0.74827866  0.93221650  1
  O  O444  1  0.52132420  0.08406046  0.18190616  1
  O  O445  1  0.52251709  0.08372044  0.43526354  1
  O  O446  1  0.52278304  0.08285125  0.68444679  1
  O  O447  1  0.52178026  0.08162840  0.93298364  1
  O  O448  1  0.52169943  0.41784420  0.18162672  1
  O  O449  1  0.52232778  0.41866051  0.43380311  1
  O  O450  1  0.52250820  0.41716843  0.68473940  1
  O  O451  1  0.52226934  0.41519681  0.93259858  1
  O  O452  1  0.52261751  0.74860098  0.18290194  1
  O  O453  1  0.52242752  0.75157824  0.43382798  1
  O  O454  1  0.52187036  0.74832604  0.68348520  1
  O  O455  1  0.52153071  0.74839360  0.93298511  1
  O  O456  1  0.47786765  0.25166233  0.06630226  1
  O  O457  1  0.47820049  0.25090033  0.31894926  1
  O  O458  1  0.47830149  0.24857916  0.56747279  1
  O  O459  1  0.47714521  0.24861279  0.81519988  1
  O  O460  1  0.47784551  0.58468289  0.06679953  1
  O  O461  1  0.47827351  0.58607447  0.31718385  1
  O  O462  1  0.47776264  0.58196862  0.56740729  1
  O  O463  1  0.47668037  0.58299412  0.81578891  1
  O  O464  1  0.47781092  0.91827267  0.06664195  1
  O  O465  1  0.47866737  0.91684783  0.31871124  1
  O  O466  1  0.47724357  0.91668731  0.56588196  1
  O  O467  1  0.47766791  0.91731442  0.81669503  1
  O  O468  1  0.97685915  0.24893078  0.06595929  1
  O  O469  1  0.97727475  0.25098304  0.31559074  1
  O  O470  1  0.97915281  0.25016463  0.56816277  1
  O  O471  1  0.97810638  0.24829025  0.81705832  1
  O  O472  1  0.97665699  0.58308735  0.06534982  1
  O  O473  1  0.97854621  0.58298982  0.31777819  1
  O  O474  1  0.97823137  0.58192228  0.56636664  1
  O  O475  1  0.97733369  0.58175446  0.81649858  1
  O  O476  1  0.97869719  0.91673582  0.06766381  1
  O  O477  1  0.97788680  0.91882255  0.31651517  1
  O  O478  1  0.97714239  0.91709479  0.56563833  1
  O  O479  1  0.97730357  0.91575664  0.81549627  1
  O  O480  1  0.07139277  0.31314911  0.07314296  1
  O  O481  1  0.07264279  0.31397289  0.32279659  1
  O  O482  1  0.07457692  0.31336162  0.57567807  1
  O  O483  1  0.07328583  0.31217313  0.82584342  1
  O  O484  1  0.07184573  0.64642008  0.07258517  1
  O  O485  1  0.07358077  0.64704707  0.32530178  1
  O  O486  1  0.07317652  0.64606921  0.57473653  1
  O  O487  1  0.07269738  0.64508170  0.82460329  1
  O  O488  1  0.07399820  0.98048873  0.07460756  1
  O  O489  1  0.07335613  0.98126888  0.32441568  1
  O  O490  1  0.07224203  0.98047299  0.57402808  1
  O  O491  1  0.07185678  0.98000211  0.82278572  1
  O  O492  1  0.57277516  0.31524657  0.07288537  1
  O  O493  1  0.57375304  0.31389916  0.32664400  1
  O  O494  1  0.57353944  0.31225866  0.57650233  1
  O  O495  1  0.57161049  0.31319371  0.82238389  1
  O  O496  1  0.57295997  0.64836425  0.07308053  1
  O  O497  1  0.57349931  0.64907909  0.32465334  1
  O  O498  1  0.57342820  0.64504347  0.57604081  1
  O  O499  1  0.57190156  0.64660352  0.82319529  1
  O  O500  1  0.57292374  0.98167881  0.07393670  1
  O  O501  1  0.57366548  0.98106069  0.32629380  1
  O  O502  1  0.57237014  0.98018267  0.57416291  1
  O  O503  1  0.57274893  0.98085334  0.82364952  1
  O  O504  1  0.42584844  0.02044420  0.17552774  1
  O  O505  1  0.42742067  0.02019756  0.42711220  1
  O  O506  1  0.42788661  0.01899513  0.67572656  1
  O  O507  1  0.42666501  0.01831717  0.92537777  1
  O  O508  1  0.42635773  0.35410844  0.17540256  1
  O  O509  1  0.42690485  0.35528700  0.42586245  1
  O  O510  1  0.42841785  0.35232595  0.67625345  1
  O  O511  1  0.42724658  0.35183774  0.92491969  1
  O  O512  1  0.42725239  0.68563386  0.17629072  1
  O  O513  1  0.42701074  0.68791074  0.42558696  1
  O  O514  1  0.42699853  0.68485410  0.67547253  1
  O  O515  1  0.42655658  0.68454401  0.92589246  1
  O  O516  1  0.92748951  0.01984797  0.17612176  1
  O  O517  1  0.92651229  0.01952312  0.42624616  1
  O  O518  1  0.92838788  0.01968071  0.67746254  1
  O  O519  1  0.92733303  0.02056594  0.92513457  1
  O  O520  1  0.92692978  0.35164590  0.17516102  1
  O  O521  1  0.92746962  0.35393819  0.42564285  1
  O  O522  1  0.92693116  0.35451838  0.67523683  1
  O  O523  1  0.92838377  0.35222708  0.92676212  1
  O  O524  1  0.92673999  0.68606132  0.17440679  1
  O  O525  1  0.92646357  0.68818802  0.42544574  1
  O  O526  1  0.92656398  0.68793763  0.67380182  1
  O  O527  1  0.92677248  0.68540092  0.92452266  1
  O  O528  1  0.17613103  0.01956839  0.20068843  1
  O  O529  1  0.17618620  0.01965676  0.44993738  1
  O  O530  1  0.17636421  0.01929627  0.69979460  1
  O  O531  1  0.17588117  0.01928301  0.95047424  1
  O  O532  1  0.17752499  0.35369935  0.19802917  1
  O  O533  1  0.17742979  0.35379670  0.44778695  1
  O  O534  1  0.17652986  0.35371790  0.70059181  1
  O  O535  1  0.17712368  0.35447768  0.95036967  1
  O  O536  1  0.17798343  0.68550374  0.19869988  1
  O  O537  1  0.17721842  0.68588031  0.44760413  1
  O  O538  1  0.17648178  0.68382709  0.69822428  1
  O  O539  1  0.17617897  0.68419806  0.94975317  1
  O  O540  1  0.67611194  0.02010539  0.20096504  1
  O  O541  1  0.67743600  0.02087984  0.45008516  1
  O  O542  1  0.67690039  0.01973912  0.69894927  1
  O  O543  1  0.67693903  0.01871966  0.94897911  1
  O  O544  1  0.67669823  0.35146951  0.19846776  1
  O  O545  1  0.67586851  0.35331027  0.45123871  1
  O  O546  1  0.67765839  0.35433010  0.70029433  1
  O  O547  1  0.67766556  0.35363823  0.94720695  1
  O  O548  1  0.67808406  0.68635618  0.19799244  1
  O  O549  1  0.67645719  0.68679610  0.45126464  1
  O  O550  1  0.67630820  0.68795800  0.69981338  1
  O  O551  1  0.67581437  0.68717589  0.94998682  1
  O  O552  1  0.32272973  0.31543466  0.05090396  1
  O  O553  1  0.32326896  0.31560932  0.30057579  1
  O  O554  1  0.32426269  0.31443756  0.54995278  1
  O  O555  1  0.32430316  0.31356378  0.80007690  1
  O  O556  1  0.32095794  0.64674023  0.05216991  1
  O  O557  1  0.32271875  0.64674059  0.30069203  1
  O  O558  1  0.32311060  0.64799995  0.55062159  1
  O  O559  1  0.32180567  0.64660176  0.80250264  1
  O  O560  1  0.32307637  0.97774183  0.05047728  1
  O  O561  1  0.32345105  0.97802571  0.29979381  1
  O  O562  1  0.32355147  0.97880905  0.54892800  1
  O  O563  1  0.32371379  0.97840579  0.80010754  1
  O  O564  1  0.82260393  0.31535175  0.05074599  1
  O  O565  1  0.82290261  0.31249635  0.30064598  1
  O  O566  1  0.82496347  0.31336494  0.54959975  1
  O  O567  1  0.82347235  0.31536641  0.80124404  1
  O  O568  1  0.82252008  0.64779439  0.05017831  1
  O  O569  1  0.82393204  0.64689287  0.29978803  1
  O  O570  1  0.82363886  0.64573953  0.55075104  1
  O  O571  1  0.82278866  0.64656134  0.79970319  1
  O  O572  1  0.82338108  0.97975891  0.05069131  1
  O  O573  1  0.82439958  0.97965102  0.29960462  1
  O  O574  1  0.82228251  0.98082742  0.55209592  1
  O  O575  1  0.82303385  0.98158367  0.80075413  1
  O  O576  1  0.42593358  0.14736946  0.17467220  1
  O  O577  1  0.42765762  0.14776164  0.42764278  1
  O  O578  1  0.42761867  0.14621531  0.67620641  1
  O  O579  1  0.42646597  0.14527286  0.92467578  1
  O  O580  1  0.42615077  0.48093678  0.17438057  1
  O  O581  1  0.42748952  0.48253716  0.42651962  1
  O  O582  1  0.42667165  0.47971587  0.67702921  1
  O  O583  1  0.42699393  0.47885260  0.92446644  1
  O  O584  1  0.42760558  0.81277145  0.17484046  1
  O  O585  1  0.42759248  0.81495924  0.42593543  1
  O  O586  1  0.42633763  0.81197414  0.67552033  1
  O  O587  1  0.42609012  0.81163258  0.92472322  1
  O  O588  1  0.92806682  0.14727904  0.17730753  1
  O  O589  1  0.92778851  0.14645826  0.42541497  1
  O  O590  1  0.92797307  0.14710564  0.67650971  1
  O  O591  1  0.92633117  0.14746826  0.92605250  1
  O  O592  1  0.92701026  0.47863008  0.17425356  1
  O  O593  1  0.92699984  0.48109450  0.42498718  1
  O  O594  1  0.92745310  0.48156196  0.67671211  1
  O  O595  1  0.92767838  0.47957352  0.92699829  1
  O  O596  1  0.92646241  0.81293858  0.17306203  1
  O  O597  1  0.92682231  0.81537591  0.42578765  1
  O  O598  1  0.92700871  0.81502808  0.67566343  1
  O  O599  1  0.92684529  0.81260631  0.92456515  1
  O  O600  1  0.07222060  0.18596205  0.07432266  1
  O  O601  1  0.07164944  0.18645934  0.32283019  1
  O  O602  1  0.07445841  0.18648168  0.57500115  1
  O  O603  1  0.07328283  0.18519980  0.82473921  1
  O  O604  1  0.07126765  0.51884795  0.07306858  1
  O  O605  1  0.07427847  0.52015891  0.32435370  1
  O  O606  1  0.07362923  0.51890092  0.57369625  1
  O  O607  1  0.07218700  0.51811280  0.82520405  1
  O  O608  1  0.07416822  0.85362571  0.07521954  1
  O  O609  1  0.07276798  0.85429604  0.32482268  1
  O  O610  1  0.07216129  0.85326872  0.57312539  1
  O  O611  1  0.07261665  0.85245773  0.82311768  1
  O  O612  1  0.57334538  0.18810202  0.07399089  1
  O  O613  1  0.57336503  0.18693867  0.32553612  1
  O  O614  1  0.57336774  0.18522556  0.57529004  1
  O  O615  1  0.57264579  0.18582645  0.82388042  1
  O  O616  1  0.57330023  0.52134645  0.07460445  1
  O  O617  1  0.57361110  0.52201012  0.32410611  1
  O  O618  1  0.57247161  0.51813634  0.57501709  1
  O  O619  1  0.57171275  0.51926277  0.82413723  1
  O  O620  1  0.57299537  0.85436798  0.07433861  1
  O  O621  1  0.57451753  0.85433295  0.32573626  1
  O  O622  1  0.57178606  0.85266765  0.57449752  1
  O  O623  1  0.57307053  0.85382326  0.82509674  1
  O  O624  1  0.32329467  0.18807385  0.05059997  1
  O  O625  1  0.32314614  0.18846950  0.29952336  1
  O  O626  1  0.32420266  0.18748266  0.54913284  1
  O  O627  1  0.32390074  0.18651025  0.80033908  1
  O  O628  1  0.32243674  0.51973131  0.05172699  1
  O  O629  1  0.32178482  0.51959100  0.30162504  1
  O  O630  1  0.32298283  0.52109965  0.55008347  1
  O  O631  1  0.32162229  0.51942721  0.80211539  1
  O  O632  1  0.32321211  0.85042727  0.05092236  1
  O  O633  1  0.32355753  0.85076944  0.30074628  1
  O  O634  1  0.32395731  0.85191208  0.54964382  1
  O  O635  1  0.32355835  0.85135210  0.79963801  1
  O  O636  1  0.82283187  0.18814868  0.04922962  1
  O  O637  1  0.82333747  0.18538853  0.30055653  1
  O  O638  1  0.82515577  0.18656652  0.55088496  1
  O  O639  1  0.82374740  0.18805775  0.80089941  1
  O  O640  1  0.82288404  0.52066805  0.05000825  1
  O  O641  1  0.82365909  0.51989918  0.29856713  1
  O  O642  1  0.82320666  0.51853343  0.55112652  1
  O  O643  1  0.82312361  0.51940825  0.80160889  1
  O  O644  1  0.82355344  0.85254046  0.05006889  1
  O  O645  1  0.82426603  0.85280256  0.30045226  1
  O  O646  1  0.82150422  0.85330803  0.55266360  1
  O  O647  1  0.82242526  0.85469044  0.79986103  1
  O  O648  1  0.17607700  0.14673755  0.20042638  1
  O  O649  1  0.17608725  0.14676915  0.44978105  1
  O  O650  1  0.17656535  0.14640451  0.70012004  1
  O  O651  1  0.17623223  0.14648822  0.95058844  1
  O  O652  1  0.17711339  0.48084734  0.19876018  1
  O  O653  1  0.17866895  0.48127311  0.44729894  1
  O  O654  1  0.17577517  0.48051004  0.69986531  1
  O  O655  1  0.17665363  0.48140346  0.94988115  1
  O  O656  1  0.17752412  0.81269579  0.19865473  1
  O  O657  1  0.17803503  0.81313430  0.44831190  1
  O  O658  1  0.17669618  0.81087376  0.69944951  1
  O  O659  1  0.17610292  0.81106956  0.94944810  1
  O  O660  1  0.67568040  0.14687051  0.19985296  1
  O  O661  1  0.67766050  0.14805303  0.45012589  1
  O  O662  1  0.67779800  0.14679195  0.70072797  1
  O  O663  1  0.67636862  0.14600835  0.94952980  1
  O  O664  1  0.67601156  0.47870495  0.19908871  1
  O  O665  1  0.67614406  0.48022543  0.44964376  1
  O  O666  1  0.67698047  0.48139041  0.69970452  1
  O  O667  1  0.67757335  0.48102438  0.94856730  1
  O  O668  1  0.67744878  0.81399857  0.19828670  1
  O  O669  1  0.67649675  0.81373160  0.45041133  1
  O  O670  1  0.67672990  0.81529752  0.69905208  1
  O  O671  1  0.67567085  0.81383584  0.95063926  1
