# generated using pymatgen
data_Na2MnFe(PO4)2
_symmetry_space_group_name_H-M   'P 1'
_cell_length_a   22.34816287
_cell_length_b   20.09497069
_cell_length_c   19.44642638
_cell_angle_alpha   90.02726678
_cell_angle_beta   90.01874211
_cell_angle_gamma   89.95619892
_symmetry_Int_Tables_number   1
_chemical_formula_structural   Na2MnFe(PO4)2
_chemical_formula_sum   'Na96 Mn48 Fe48 P96 O384'
_cell_volume   8733.10756241
_cell_formula_units_Z   48
loop_
 _symmetry_equiv_pos_site_id
 _symmetry_equiv_pos_as_xyz
  1  'x, y, z'
loop_
 _atom_site_type_symbol
 _atom_site_label
 _atom_site_symmetry_multiplicity
 _atom_site_fract_x
 _atom_site_fract_y
 _atom_site_fract_z
 _atom_site_occupancy
  Na  Na0  1  0.14127615  0.24988895  0.24357766  1
  Na  Na1  1  0.14106524  0.25105751  0.49426095  1
  Na  Na2  1  0.14085754  0.25021490  0.74494669  1
  Na  Na3  1  0.14141359  0.24806720  0.99424624  1
  Na  Na4  1  0.14003028  0.58311149  0.24460170  1
  Na  Na5  1  0.13991412  0.58375656  0.49378964  1
  Na  Na6  1  0.13985156  0.58329450  0.74434866  1
  Na  Na7  1  0.13963480  0.58199357  0.99340887  1
  Na  Na8  1  0.14064576  0.91698216  0.24317174  1
  Na  Na9  1  0.14105669  0.91608763  0.49425671  1
  Na  Na10  1  0.14115706  0.91644475  0.74564435  1
  Na  Na11  1  0.14083440  0.91641333  0.99476519  1
  Na  Na12  1  0.64055977  0.24916124  0.24363866  1
  Na  Na13  1  0.64067322  0.24921677  0.49381615  1
  Na  Na14  1  0.64046550  0.25106318  0.74332573  1
  Na  Na15  1  0.64061149  0.24931518  0.99364756  1
  Na  Na16  1  0.63926921  0.58306560  0.24268150  1
  Na  Na17  1  0.63908644  0.58431182  0.49231144  1
  Na  Na18  1  0.63927927  0.58492360  0.74150606  1
  Na  Na19  1  0.63877097  0.58275677  0.99298574  1
  Na  Na20  1  0.64014007  0.91587740  0.24396810  1
  Na  Na21  1  0.64003585  0.91653497  0.49354847  1
  Na  Na22  1  0.64035968  0.91819180  0.74310266  1
  Na  Na23  1  0.63952387  0.91707958  0.99320525  1
  Na  Na24  1  0.36082498  0.08239207  0.00716896  1
  Na  Na25  1  0.36087510  0.08306915  0.25637778  1
  Na  Na26  1  0.36054100  0.08398290  0.50705605  1
  Na  Na27  1  0.36073392  0.08396659  0.75753537  1
  Na  Na28  1  0.35963921  0.41685559  0.00662192  1
  Na  Na29  1  0.35974591  0.41871953  0.25627683  1
  Na  Na30  1  0.35990472  0.41910980  0.50623141  1
  Na  Na31  1  0.35967624  0.41807984  0.75629108  1
  Na  Na32  1  0.36000477  0.74881487  0.00739124  1
  Na  Na33  1  0.35952828  0.74834832  0.25618144  1
  Na  Na34  1  0.36020599  0.74934106  0.50628874  1
  Na  Na35  1  0.36013869  0.74988500  0.75666230  1
  Na  Na36  1  0.86019053  0.08273766  0.00649141  1
  Na  Na37  1  0.86022323  0.08098550  0.25614867  1
  Na  Na38  1  0.85988751  0.08245070  0.50593126  1
  Na  Na39  1  0.85956977  0.08471513  0.75666588  1
  Na  Na40  1  0.85910774  0.41715599  0.00597425  1
  Na  Na41  1  0.85938062  0.41701514  0.25533242  1
  Na  Na42  1  0.85872447  0.41742863  0.50601524  1
  Na  Na43  1  0.85894838  0.41762460  0.75487472  1
  Na  Na44  1  0.85894786  0.74924256  0.00663902  1
  Na  Na45  1  0.85862499  0.74892271  0.25610952  1
  Na  Na46  1  0.85894040  0.74914197  0.50664292  1
  Na  Na47  1  0.85927801  0.75011675  0.75500939  1
  Na  Na48  1  0.11069727  0.08249108  0.11862169  1
  Na  Na49  1  0.11018365  0.08377085  0.36922873  1
  Na  Na50  1  0.11014764  0.08307678  0.61995780  1
  Na  Na51  1  0.11053589  0.08263813  0.87082014  1
  Na  Na52  1  0.10974942  0.41705218  0.11813135  1
  Na  Na53  1  0.10963990  0.41769539  0.36991248  1
  Na  Na54  1  0.10962917  0.41624132  0.61848835  1
  Na  Na55  1  0.10954282  0.41698817  0.86916603  1
  Na  Na56  1  0.10919088  0.74915671  0.11872884  1
  Na  Na57  1  0.10956696  0.74935837  0.36931448  1
  Na  Na58  1  0.10974346  0.74790057  0.61949594  1
  Na  Na59  1  0.10970927  0.74884800  0.87002642  1
  Na  Na60  1  0.61008039  0.08193294  0.11881679  1
  Na  Na61  1  0.60968661  0.08221178  0.36845991  1
  Na  Na62  1  0.60975673  0.08307180  0.61905068  1
  Na  Na63  1  0.60982903  0.08286172  0.86814769  1
  Na  Na64  1  0.60936248  0.41834578  0.11827381  1
  Na  Na65  1  0.60927292  0.41830636  0.36786811  1
  Na  Na66  1  0.60926225  0.41869818  0.61801406  1
  Na  Na67  1  0.60928170  0.41772518  0.86796863  1
  Na  Na68  1  0.60858461  0.74919215  0.11792322  1
  Na  Na69  1  0.60948331  0.75022116  0.36863735  1
  Na  Na70  1  0.60904753  0.75015247  0.61686918  1
  Na  Na71  1  0.60902707  0.75026376  0.86841670  1
  Na  Na72  1  0.39118266  0.24954791  0.13215345  1
  Na  Na73  1  0.39117912  0.25015614  0.38136910  1
  Na  Na74  1  0.39089166  0.25107363  0.63227548  1
  Na  Na75  1  0.39108687  0.25002586  0.88153507  1
  Na  Na76  1  0.38941319  0.58367488  0.13168515  1
  Na  Na77  1  0.38989420  0.58458011  0.38138250  1
  Na  Na78  1  0.39015838  0.58457410  0.63086117  1
  Na  Na79  1  0.39049700  0.58470963  0.88139850  1
  Na  Na80  1  0.39096016  0.91686136  0.13128130  1
  Na  Na81  1  0.39108171  0.91646543  0.38123717  1
  Na  Na82  1  0.39121517  0.91691605  0.63161745  1
  Na  Na83  1  0.39126533  0.91669122  0.88238689  1
  Na  Na84  1  0.89110245  0.24853251  0.12989054  1
  Na  Na85  1  0.89088033  0.25022887  0.38119507  1
  Na  Na86  1  0.89023053  0.24936580  0.63055636  1
  Na  Na87  1  0.89022939  0.25022686  0.88167713  1
  Na  Na88  1  0.88890884  0.58289019  0.13045167  1
  Na  Na89  1  0.88921892  0.58295002  0.38141970  1
  Na  Na90  1  0.88943354  0.58304137  0.63020022  1
  Na  Na91  1  0.88973500  0.58355267  0.88050265  1
  Na  Na92  1  0.89008141  0.91729388  0.13131663  1
  Na  Na93  1  0.89018001  0.91699232  0.38157527  1
  Na  Na94  1  0.89039311  0.91554995  0.63054544  1
  Na  Na95  1  0.89022119  0.91665190  0.88165685  1
  Mn  Mn96  1  -0.00088239  0.83397530  0.24963421  1
  Mn  Mn97  1  0.24999818  0.83249945  0.12511118  1
  Mn  Mn98  1  0.74989365  0.50000977  0.87416878  1
  Mn  Mn99  1  0.50063931  0.16594579  0.50096869  1
  Mn  Mn100  1  0.25105330  0.16738684  0.37541244  1
  Mn  Mn101  1  -0.00015337  0.33308010  0.75012725  1
  Mn  Mn102  1  0.49985143  0.33449718  0.75029499  1
  Mn  Mn103  1  0.74926152  0.66627171  0.37506430  1
  Mn  Mn104  1  0.25103257  0.33514752  0.37396823  1
  Mn  Mn105  1  -0.00048536  0.50076895  0.74925447  1
  Mn  Mn106  1  -0.00052380  0.83313432  0.00019960  1
  Mn  Mn107  1  0.00033918  0.33332455  0.24970204  1
  Mn  Mn108  1  0.25024890  0.16834950  0.62629748  1
  Mn  Mn109  1  0.74953821  0.83302606  0.12481791  1
  Mn  Mn110  1  0.50071980  0.16597393  0.00075283  1
  Mn  Mn111  1  0.50035194  0.83314786  0.75000740  1
  Mn  Mn112  1  0.00082240  0.83238249  0.50031101  1
  Mn  Mn113  1  0.00111303  0.16577348  0.25023762  1
  Mn  Mn114  1  0.75049384  0.00021798  0.62460344  1
  Mn  Mn115  1  0.74908896  0.66696804  0.87415129  1
  Mn  Mn116  1  0.25038809  0.33340209  0.12547875  1
  Mn  Mn117  1  0.75062288  0.16511989  0.12400867  1
  Mn  Mn118  1  0.25081226  0.83254279  0.62557891  1
  Mn  Mn119  1  0.25067645  0.83202956  0.37436317  1
  Mn  Mn120  1  0.75000509  0.33371733  0.37421943  1
  Mn  Mn121  1  0.50060501  0.33441294  0.50032301  1
  Mn  Mn122  1  0.00027400  0.33333734  -0.00025546  1
  Mn  Mn123  1  0.25044505  0.00012454  0.37496940  1
  Mn  Mn124  1  0.49967389  0.83314959  0.24983789  1
  Mn  Mn125  1  0.50032851  0.33401625  0.25010905  1
  Mn  Mn126  1  -0.00032537  0.50028300  0.24965030  1
  Mn  Mn127  1  -0.00056802  0.66634494  0.24985213  1
  Mn  Mn128  1  -0.00001093  0.33313305  0.49987518  1
  Mn  Mn129  1  0.50077702  0.33450649  0.00047409  1
  Mn  Mn130  1  0.75066178  0.16505668  0.37376094  1
  Mn  Mn131  1  0.25127726  0.16656745  0.87527212  1
  Mn  Mn132  1  0.24962403  0.50078022  0.62590596  1
  Mn  Mn133  1  0.24998044  0.49956080  0.87498919  1
  Mn  Mn134  1  0.25088886  0.00017654  0.62540808  1
  Mn  Mn135  1  0.00093421  0.00024953  0.50090184  1
  Mn  Mn136  1  0.00057390  0.83155367  0.75121918  1
  Mn  Mn137  1  0.25048614  0.83266047  0.87596547  1
  Mn  Mn138  1  0.74926376  0.83427836  0.87528920  1
  Mn  Mn139  1  0.75020436  0.16712951  0.87494799  1
  Mn  Mn140  1  -0.00024542  -0.00065864  0.75040145  1
  Mn  Mn141  1  0.75014383  0.33344205  0.12473375  1
  Mn  Mn142  1  0.00032936  0.16600097  0.75083002  1
  Mn  Mn143  1  0.74963417  0.33394969  0.62396804  1
  Fe  Fe144  1  0.74996200  -0.00123411  0.12521567  1
  Fe  Fe145  1  0.74973475  -0.00146617  0.37557365  1
  Fe  Fe146  1  0.49934163  0.50105818  0.24956554  1
  Fe  Fe147  1  0.49898742  0.50117230  -0.00050357  1
  Fe  Fe148  1  0.25103763  -0.00005462  0.87571557  1
  Fe  Fe149  1  0.24987220  0.66596915  0.87601440  1
  Fe  Fe150  1  0.74853288  0.50076179  0.62465557  1
  Fe  Fe151  1  0.24945805  0.66631647  0.37527770  1
  Fe  Fe152  1  -0.00068423  0.50000980  0.50006950  1
  Fe  Fe153  1  0.24916206  0.66553678  0.12588660  1
  Fe  Fe154  1  -0.00034053  0.66584343  0.74992630  1
  Fe  Fe155  1  0.74980976  0.83396606  0.62448021  1
  Fe  Fe156  1  0.00052940  0.00020971  0.25056210  1
  Fe  Fe157  1  0.00061759  -0.00023471  0.00075157  1
  Fe  Fe158  1  0.74863684  0.66597304  0.12543589  1
  Fe  Fe159  1  0.49962725  0.50115069  0.49916511  1
  Fe  Fe160  1  -0.00086664  0.66618939  0.49973236  1
  Fe  Fe161  1  0.25143884  0.16625407  0.12460619  1
  Fe  Fe162  1  0.74937675  0.83276268  0.37486894  1
  Fe  Fe163  1  0.50033900  -0.00036564  0.75015575  1
  Fe  Fe164  1  -0.00091885  0.50037389  -0.00093896  1
  Fe  Fe165  1  0.00059073  0.16598630  0.00076310  1
  Fe  Fe166  1  0.74854199  0.49970002  0.12443628  1
  Fe  Fe167  1  0.50067790  0.16659035  0.75056319  1
  Fe  Fe168  1  0.74928561  0.50045365  0.37476999  1
  Fe  Fe169  1  0.49979019  0.00006468  0.50005457  1
  Fe  Fe170  1  0.75040863  0.00050117  0.87415855  1
  Fe  Fe171  1  0.49955216  0.66654431  -0.00069990  1
  Fe  Fe172  1  0.25131834  -0.00017705  0.12505547  1
  Fe  Fe173  1  -0.00103117  0.66633778  -0.00033549  1
  Fe  Fe174  1  0.74905750  0.66752515  0.62400178  1
  Fe  Fe175  1  0.49975616  0.83336119  -0.00010850  1
  Fe  Fe176  1  0.75009938  0.16699174  0.62481571  1
  Fe  Fe177  1  0.49948324  0.66693489  0.24938911  1
  Fe  Fe178  1  0.74979425  0.33388951  0.87417558  1
  Fe  Fe179  1  0.50077916  0.16620658  0.25073498  1
  Fe  Fe180  1  0.49999036  0.83349239  0.49978978  1
  Fe  Fe181  1  0.49979077  0.66651633  0.49923017  1
  Fe  Fe182  1  0.24976366  0.50112908  0.37579295  1
  Fe  Fe183  1  0.25039635  0.33465650  0.62498634  1
  Fe  Fe184  1  0.25038611  0.33317185  0.87591593  1
  Fe  Fe185  1  0.24976059  0.66679696  0.62523502  1
  Fe  Fe186  1  0.50057991  -0.00048332  0.25027230  1
  Fe  Fe187  1  0.50022151  -0.00000963  0.00002535  1
  Fe  Fe188  1  0.49960378  0.66687030  0.74921300  1
  Fe  Fe189  1  0.00028351  0.16660495  0.49998292  1
  Fe  Fe190  1  0.24935661  0.50025812  0.12519786  1
  Fe  Fe191  1  0.49967638  0.50138113  0.74927936  1
  P  P192  1  0.04314068  0.24859675  0.10246015  1
  P  P193  1  0.04340227  0.24999333  0.35347264  1
  P  P194  1  0.04270537  0.24856542  0.60248206  1
  P  P195  1  0.04285256  0.24958940  0.85425467  1
  P  P196  1  0.04072735  0.58315988  0.10097803  1
  P  P197  1  0.04191485  0.58334169  0.35414205  1
  P  P198  1  0.04108048  0.58334867  0.60161620  1
  P  P199  1  0.04162965  0.58427074  0.85317396  1
  P  P200  1  0.04228682  0.91767493  0.10320501  1
  P  P201  1  0.04279481  0.91758595  0.35254654  1
  P  P202  1  0.04361854  0.91560414  0.60384830  1
  P  P203  1  0.04288384  0.91630772  0.85441749  1
  P  P204  1  0.54313024  0.25002503  0.10398156  1
  P  P205  1  0.54259128  0.24909930  0.35262312  1
  P  P206  1  0.54282386  0.25027648  0.60402968  1
  P  P207  1  0.54258259  0.24933649  0.85257552  1
  P  P208  1  0.54039346  0.58378744  0.10164565  1
  P  P209  1  0.54066132  0.58432012  0.35148892  1
  P  P210  1  0.54094311  0.58386896  0.60130491  1
  P  P211  1  0.54094714  0.58414363  0.85140982  1
  P  P212  1  0.54099886  0.91670194  0.10173747  1
  P  P213  1  0.54193493  0.91731926  0.35311313  1
  P  P214  1  0.54123112  0.91703282  0.60166210  1
  P  P215  1  0.54232914  0.91772857  0.85288581  1
  P  P216  1  0.45964109  0.08259402  0.14869949  1
  P  P217  1  0.45824521  0.08221176  0.39719092  1
  P  P218  1  0.45896606  0.08302336  0.64885915  1
  P  P219  1  0.45863395  0.08211249  0.89718168  1
  P  P220  1  0.45790429  0.41878100  0.14713228  1
  P  P221  1  0.45797005  0.41869885  0.39697284  1
  P  P222  1  0.45778026  0.41925524  0.64701340  1
  P  P223  1  0.45781748  0.41878016  0.89713911  1
  P  P224  1  0.45754960  0.74891910  0.14659891  1
  P  P225  1  0.45881352  0.74991082  0.39796536  1
  P  P226  1  0.45816500  0.74915977  0.64660665  1
  P  P227  1  0.45859034  0.75007446  0.89817547  1
  P  P228  1  0.95857646  0.08169990  0.14711998  1
  P  P229  1  0.95818691  0.08408288  0.39754556  1
  P  P230  1  0.95717048  0.08332920  0.64678373  1
  P  P231  1  0.95872479  0.08289094  0.89912554  1
  P  P232  1  0.95729194  0.41676825  0.14581111  1
  P  P233  1  0.95710919  0.41785169  0.39758442  1
  P  P234  1  0.95711105  0.41665972  0.64617566  1
  P  P235  1  0.95714420  0.41795907  0.89710758  1
  P  P236  1  0.95649587  0.74959114  0.14628436  1
  P  P237  1  0.95703545  0.74901600  0.39759699  1
  P  P238  1  0.95790412  0.74780926  0.64713562  1
  P  P239  1  0.95708389  0.74817223  0.89734895  1
  P  P240  1  0.20961929  0.08351739  0.22641129  1
  P  P241  1  0.20785087  0.08400776  0.47857334  1
  P  P242  1  0.20824325  0.08337606  0.72934197  1
  P  P243  1  0.20943866  0.08183646  0.97861813  1
  P  P244  1  0.20779233  0.41876567  0.22786326  1
  P  P245  1  0.20808748  0.41831439  0.47791893  1
  P  P246  1  0.20757059  0.41547497  0.72823309  1
  P  P247  1  0.20787934  0.41526103  0.97808545  1
  P  P248  1  0.20728327  0.74787716  0.22789067  1
  P  P249  1  0.20798884  0.74849852  0.47791166  1
  P  P250  1  0.20804448  0.74829632  0.72856394  1
  P  P251  1  0.20799134  0.74783359  0.97860282  1
  P  P252  1  0.70826469  0.08081280  0.22752524  1
  P  P253  1  0.70796124  0.08184511  0.47737966  1
  P  P254  1  0.70823323  0.08499385  0.72734850  1
  P  P255  1  0.70805699  0.08150977  0.97725391  1
  P  P256  1  0.70729508  0.41793477  0.22745015  1
  P  P257  1  0.70712705  0.41835179  0.47717400  1
  P  P258  1  0.70702134  0.41802926  0.72694878  1
  P  P259  1  0.70732691  0.41577095  0.97698767  1
  P  P260  1  0.70697417  0.74874842  0.22754995  1
  P  P261  1  0.70756222  0.75133732  0.47796197  1
  P  P262  1  0.70787545  0.75120334  0.72575245  1
  P  P263  1  0.70661241  0.74969920  0.97838031  1
  P  P264  1  0.29336046  0.24900275  0.02263481  1
  P  P265  1  0.29365819  0.25017530  0.27129275  1
  P  P266  1  0.29314521  0.25246488  0.52296131  1
  P  P267  1  0.29296057  0.25237362  0.77276251  1
  P  P268  1  0.29073618  0.58310014  0.02352148  1
  P  P269  1  0.29101616  0.58350028  0.27321909  1
  P  P270  1  0.29171194  0.58485007  0.52235084  1
  P  P271  1  0.29195691  0.58488035  0.77276929  1
  P  P272  1  0.29254569  0.91720594  0.02256543  1
  P  P273  1  0.29311303  0.91635346  0.27127471  1
  P  P274  1  0.29355178  0.91607892  0.52208250  1
  P  P275  1  0.29308191  0.91724754  0.77349790  1
  P  P276  1  0.79294747  0.25000113  0.02103898  1
  P  P277  1  0.79331121  0.24946944  0.27125403  1
  P  P278  1  0.79219223  0.24867011  0.52198507  1
  P  P279  1  0.79222960  0.25183636  0.77185651  1
  P  P280  1  0.78989382  0.58307811  0.02321847  1
  P  P281  1  0.79106854  0.58195128  0.27168049  1
  P  P282  1  0.78998259  0.58325497  0.52284777  1
  P  P283  1  0.79156652  0.58395715  0.77017186  1
  P  P284  1  0.79201608  0.91775165  0.02212487  1
  P  P285  1  0.79116039  0.91563413  0.27324571  1
  P  P286  1  0.79202831  0.91510985  0.52156071  1
  P  P287  1  0.79233604  0.91781415  0.77200357  1
  O  O288  1  0.03822311  0.24893323  0.18246743  1
  O  O289  1  0.03799436  0.24956805  0.43341273  1
  O  O290  1  0.03763202  0.24905462  0.68249966  1
  O  O291  1  0.03759880  0.24913167  0.93421659  1
  O  O292  1  0.03614069  0.58316278  0.18101554  1
  O  O293  1  0.03660021  0.58332049  0.43405209  1
  O  O294  1  0.03611395  0.58398965  0.68163534  1
  O  O295  1  0.03595209  0.58387149  0.93303014  1
  O  O296  1  0.03699654  0.91793595  0.18317032  1
  O  O297  1  0.03796476  0.91715698  0.43257151  1
  O  O298  1  0.03842174  0.91536358  0.68383129  1
  O  O299  1  0.03750984  0.91675245  0.93440048  1
  O  O300  1  0.53781284  0.24968067  0.18394730  1
  O  O301  1  0.53760094  0.24933919  0.43264139  1
  O  O302  1  0.53734159  0.25006600  0.68397217  1
  O  O303  1  0.53762804  0.24949358  0.93260263  1
  O  O304  1  0.53553658  0.58416680  0.18152770  1
  O  O305  1  0.53564397  0.58390267  0.43138884  1
  O  O306  1  0.53603930  0.58386386  0.68117950  1
  O  O307  1  0.53553790  0.58413339  0.93126821  1
  O  O308  1  0.53596259  0.91654167  0.18169019  1
  O  O309  1  0.53647471  0.91726584  0.43293665  1
  O  O310  1  0.53642479  0.91681393  0.68165671  1
  O  O311  1  0.53692984  0.91763974  0.93272962  1
  O  O312  1  0.46458164  0.08236694  0.06871262  1
  O  O313  1  0.46394803  0.08269683  0.31732890  1
  O  O314  1  0.46391507  0.08255728  0.56886454  1
  O  O315  1  0.46400366  0.08248040  0.81731195  1
  O  O316  1  0.46316299  0.41890784  0.06716611  1
  O  O317  1  0.46321999  0.41857087  0.31701474  1
  O  O318  1  0.46333409  0.41914735  0.56707439  1
  O  O319  1  0.46315227  0.41875060  0.81717059  1
  O  O320  1  0.46277288  0.74911726  0.06674662  1
  O  O321  1  0.46348769  0.74973571  0.31797540  1
  O  O322  1  0.46340664  0.74933193  0.56676006  1
  O  O323  1  0.46302949  0.75023158  0.81819869  1
  O  O324  1  0.96401785  0.08194993  0.06720970  1
  O  O325  1  0.96365543  0.08311001  0.31758894  1
  O  O326  1  0.96229931  0.08400035  0.56681917  1
  O  O327  1  0.96342096  0.08279391  0.81909606  1
  O  O328  1  0.96253378  0.41727661  0.06583734  1
  O  O329  1  0.96225383  0.41749921  0.31757966  1
  O  O330  1  0.96236379  0.41687557  0.56623801  1
  O  O331  1  0.96229844  0.41775273  0.81711363  1
  O  O332  1  0.96166573  0.74923986  0.06631077  1
  O  O333  1  0.96173848  0.74956283  0.31757441  1
  O  O334  1  0.96342412  0.74784077  0.56717695  1
  O  O335  1  0.96247554  0.74784121  0.81738542  1
  O  O336  1  0.21501270  0.08200957  0.05851787  1
  O  O337  1  0.21450417  0.08370083  0.30643249  1
  O  O338  1  0.21285870  0.08430168  0.55856278  1
  O  O339  1  0.21375665  0.08283630  0.80932041  1
  O  O340  1  0.21302594  0.41613676  0.05801118  1
  O  O341  1  0.21327900  0.41933779  0.30778703  1
  O  O342  1  0.21322510  0.41750601  0.55789973  1
  O  O343  1  0.21289646  0.41526994  0.80819261  1
  O  O344  1  0.21303083  0.74768390  0.05856222  1
  O  O345  1  0.21257414  0.74783892  0.30785895  1
  O  O346  1  0.21315836  0.74857405  0.55788499  1
  O  O347  1  0.21338782  0.74836858  0.80854092  1
  O  O348  1  0.71325345  0.08105256  0.05724046  1
  O  O349  1  0.71352004  0.08047051  0.30747080  1
  O  O350  1  0.71311917  0.08277295  0.55731690  1
  O  O351  1  0.71353004  0.08443744  0.80727699  1
  O  O352  1  0.71253876  0.41641094  0.05695745  1
  O  O353  1  0.71249484  0.41821057  0.30741093  1
  O  O354  1  0.71252402  0.41853115  0.55713480  1
  O  O355  1  0.71245416  0.41723812  0.80686532  1
  O  O356  1  0.71172976  0.74898538  0.05834418  1
  O  O357  1  0.71208931  0.74917971  0.30751587  1
  O  O358  1  0.71294599  0.75143948  0.55782255  1
  O  O359  1  0.71256481  0.75084638  0.80579035  1
  O  O360  1  0.28839248  0.24934173  0.19133788  1
  O  O361  1  0.28806795  0.25202423  0.44293098  1
  O  O362  1  0.28748928  0.25270248  0.69281477  1
  O  O363  1  0.28795317  0.24959924  0.94268410  1
  O  O364  1  0.28562953  0.58337229  0.19331448  1
  O  O365  1  0.28632269  0.58442371  0.44246588  1
  O  O366  1  0.28663358  0.58498484  0.69284267  1
  O  O367  1  0.28583051  0.58333425  0.94354380  1
  O  O368  1  0.28777440  0.91673056  0.19129972  1
  O  O369  1  0.28843408  0.91590527  0.44209014  1
  O  O370  1  0.28806323  0.91671239  0.69349103  1
  O  O371  1  0.28724328  0.91752244  0.94261343  1
  O  O372  1  0.78815911  0.24952788  0.19127614  1
  O  O373  1  0.78716765  0.24873857  0.44202681  1
  O  O374  1  0.78688200  0.25101479  0.69190425  1
  O  O375  1  0.78762885  0.25059933  0.94106715  1
  O  O376  1  0.78547390  0.58223378  0.19180628  1
  O  O377  1  0.78526630  0.58297268  0.44283127  1
  O  O378  1  0.78603037  0.58394327  0.69030161  1
  O  O379  1  0.78539638  0.58342561  0.94318735  1
  O  O380  1  0.78598396  0.91610838  0.19324248  1
  O  O381  1  0.78643504  0.91501075  0.44169728  1
  O  O382  1  0.78715787  0.91715068  0.69206391  1
  O  O383  1  0.78703046  0.91801505  0.94215419  1
  O  O384  1  0.22915137  0.24837456  0.05847324  1
  O  O385  1  0.22935918  0.25070769  0.30662372  1
  O  O386  1  0.22876372  0.25264365  0.55840050  1
  O  O387  1  0.22880599  0.25167691  0.80873257  1
  O  O388  1  0.22652007  0.58282757  0.05936676  1
  O  O389  1  0.22701340  0.58337780  0.30971331  1
  O  O390  1  0.22761620  0.58510679  0.55862652  1
  O  O391  1  0.22775131  0.58455867  0.80858856  1
  O  O392  1  0.22843444  0.91744167  0.05853453  1
  O  O393  1  0.22883183  0.91605548  0.30667150  1
  O  O394  1  0.22917872  0.91620072  0.55721328  1
  O  O395  1  0.22878919  0.91725953  0.80894013  1
  O  O396  1  0.72869006  0.24948281  0.05648027  1
  O  O397  1  0.72890527  0.24941139  0.30630133  1
  O  O398  1  0.72789768  0.24881237  0.55753809  1
  O  O399  1  0.72799988  0.25177405  0.80768956  1
  O  O400  1  0.72563176  0.58283083  0.05872347  1
  O  O401  1  0.72693333  0.58179069  0.30787168  1
  O  O402  1  0.72582322  0.58324127  0.55859156  1
  O  O403  1  0.72736696  0.58347945  0.80589767  1
  O  O404  1  0.72765756  0.91765138  0.05761088  1
  O  O405  1  0.72701574  0.91574047  0.30930508  1
  O  O406  1  0.72794750  0.91544315  0.55784859  1
  O  O407  1  0.72799773  0.91861319  0.80762729  1
  O  O408  1  0.27387141  0.08367391  0.19068985  1
  O  O409  1  0.27234558  0.08363667  0.44368543  1
  O  O410  1  0.27249287  0.08402579  0.69386683  1
  O  O411  1  0.27350569  0.08187079  0.94238028  1
  O  O412  1  0.27197996  0.41869840  0.19198080  1
  O  O413  1  0.27231128  0.41923288  0.44208438  1
  O  O414  1  0.27182114  0.41604671  0.69243708  1
  O  O415  1  0.27216013  0.41529596  0.94238060  1
  O  O416  1  0.27154809  0.74780717  0.19228398  1
  O  O417  1  0.27226253  0.74805321  0.44222021  1
  O  O418  1  0.27229991  0.74791601  0.69273339  1
  O  O419  1  0.27225668  0.74788885  0.94289971  1
  O  O420  1  0.77249795  0.08064986  0.19169139  1
  O  O421  1  0.77222825  0.08116927  0.44173195  1
  O  O422  1  0.77243353  0.08505944  0.69154017  1
  O  O423  1  0.77233163  0.08191506  0.94157995  1
  O  O424  1  0.77151649  0.41835531  0.19173010  1
  O  O425  1  0.77135917  0.41865092  0.44132257  1
  O  O426  1  0.77117140  0.41864420  0.69103324  1
  O  O427  1  0.77162954  0.41531638  0.94131097  1
  O  O428  1  0.77116329  0.74843376  0.19183187  1
  O  O429  1  0.77159073  0.75120736  0.44166893  1
  O  O430  1  0.77209395  0.75128639  0.69016001  1
  O  O431  1  0.77091785  0.75015468  0.94302707  1
  O  O432  1  0.02280189  0.08098794  0.18313835  1
  O  O433  1  0.02242635  0.08484918  0.43343175  1
  O  O434  1  0.02159712  0.08267553  0.68191603  1
  O  O435  1  0.02300430  0.08313885  0.93477155  1
  O  O436  1  0.02165434  0.41675546  0.18116135  1
  O  O437  1  0.02142736  0.41821919  0.43310158  1
  O  O438  1  0.02140630  0.41663760  0.68161435  1
  O  O439  1  0.02147578  0.41841676  0.93258163  1
  O  O440  1  0.02082670  0.74998205  0.18160015  1
  O  O441  1  0.02153010  0.74803878  0.43263262  1
  O  O442  1  0.02204558  0.74727580  0.68329980  1
  O  O443  1  0.02131925  0.74826756  0.93311119  1
  O  O444  1  0.52370625  0.08236487  0.18482287  1
  O  O445  1  0.52234239  0.08144021  0.43356210  1
  O  O446  1  0.52311096  0.08318357  0.68486162  1
  O  O447  1  0.52277466  0.08154551  0.93333704  1
  O  O448  1  0.52205305  0.41874951  0.18304609  1
  O  O449  1  0.52218677  0.41893524  0.43282798  1
  O  O450  1  0.52190207  0.41921054  0.68308468  1
  O  O451  1  0.52201026  0.41948817  0.93305416  1
  O  O452  1  0.52166586  0.74853805  0.18282714  1
  O  O453  1  0.52286127  0.74972969  0.43401128  1
  O  O454  1  0.52227767  0.74887859  0.68283389  1
  O  O455  1  0.52273457  0.74973582  0.93391308  1
  O  O456  1  0.47892354  0.25021114  0.06837311  1
  O  O457  1  0.47835523  0.24922246  0.31707207  1
  O  O458  1  0.47864440  0.25034231  0.56835304  1
  O  O459  1  0.47829830  0.24925251  0.81705148  1
  O  O460  1  0.47627731  0.58345104  0.06541382  1
  O  O461  1  0.47657720  0.58497495  0.31523886  1
  O  O462  1  0.47685011  0.58375710  0.56503312  1
  O  O463  1  0.47692632  0.58412589  0.81484583  1
  O  O464  1  0.47700701  0.91727813  0.06543729  1
  O  O465  1  0.47792623  0.91778913  0.31664525  1
  O  O466  1  0.47717168  0.91755597  0.56557808  1
  O  O467  1  0.47820714  0.91770247  0.81669765  1
  O  O468  1  0.97879370  0.24846071  0.06704363  1
  O  O469  1  0.97909246  0.24977173  0.31804971  1
  O  O470  1  0.97834093  0.24831203  0.56699574  1
  O  O471  1  0.97849244  0.24965799  0.81893150  1
  O  O472  1  0.97636472  0.58297333  0.06558626  1
  O  O473  1  0.97762387  0.58329102  0.31856651  1
  O  O474  1  0.97688145  0.58295106  0.56561306  1
  O  O475  1  0.97750935  0.58477403  0.81690682  1
  O  O476  1  0.97803767  0.91787657  0.06749735  1
  O  O477  1  0.97829541  0.91850810  0.31734336  1
  O  O478  1  0.97925658  0.91595725  0.56864145  1
  O  O479  1  0.97859310  0.91564591  0.81894546  1
  O  O480  1  0.07415692  0.31219411  0.07468693  1
  O  O481  1  0.07403748  0.31385237  0.32553413  1
  O  O482  1  0.07358283  0.31226670  0.57460661  1
  O  O483  1  0.07350774  0.31336755  0.82619036  1
  O  O484  1  0.07119030  0.64706309  0.07298529  1
  O  O485  1  0.07296415  0.64669364  0.32552479  1
  O  O486  1  0.07180189  0.64679039  0.57293248  1
  O  O487  1  0.07280834  0.64747309  0.82456718  1
  O  O488  1  0.07354811  0.98068348  0.07433928  1
  O  O489  1  0.07392015  0.98095189  0.32436729  1
  O  O490  1  0.07483535  0.97901903  0.57595676  1
  O  O491  1  0.07383353  0.97963353  0.82597253  1
  O  O492  1  0.57403214  0.31369799  0.07595984  1
  O  O493  1  0.57385868  0.31264298  0.32503728  1
  O  O494  1  0.57376879  0.31389770  0.57599780  1
  O  O495  1  0.57349245  0.31306426  0.82492831  1
  O  O496  1  0.57093113  0.64737716  0.07257451  1
  O  O497  1  0.57215464  0.64762492  0.32339159  1
  O  O498  1  0.57171704  0.64749918  0.57272432  1
  O  O499  1  0.57170075  0.64782344  0.82287036  1
  O  O500  1  0.57258730  0.97985310  0.07368416  1
  O  O501  1  0.57319709  0.98041400  0.32425059  1
  O  O502  1  0.57270300  0.98030894  0.57374401  1
  O  O503  1  0.57324714  0.98095544  0.82381607  1
  O  O504  1  0.42828347  0.01932017  0.17691512  1
  O  O505  1  0.42688941  0.01901990  0.42562325  1
  O  O506  1  0.42806694  0.01949858  0.67724182  1
  O  O507  1  0.42747853  0.01893593  0.92603722  1
  O  O508  1  0.42686853  0.35505925  0.17473259  1
  O  O509  1  0.42722526  0.35486786  0.42483474  1
  O  O510  1  0.42674486  0.35559291  0.67483634  1
  O  O511  1  0.42749543  0.35472592  0.92508450  1
  O  O512  1  0.42649517  0.68569131  0.17546096  1
  O  O513  1  0.42751594  0.68661841  0.42625028  1
  O  O514  1  0.42728025  0.68581785  0.67552523  1
  O  O515  1  0.42728601  0.68677529  0.92649939  1
  O  O516  1  0.92730835  0.01863038  0.17605629  1
  O  O517  1  0.92724538  0.02058788  0.42581333  1
  O  O518  1  0.92605741  0.01967232  0.67451149  1
  O  O519  1  0.92819189  0.01904367  0.92714570  1
  O  O520  1  0.92664168  0.35293476  0.17374347  1
  O  O521  1  0.92621490  0.35410439  0.42523470  1
  O  O522  1  0.92620129  0.35305278  0.67428056  1
  O  O523  1  0.92642587  0.35423356  0.92490452  1
  O  O524  1  0.92538780  0.68632646  0.17472463  1
  O  O525  1  0.92585979  0.68567670  0.42584864  1
  O  O526  1  0.92651083  0.68468843  0.67541252  1
  O  O527  1  0.92605626  0.68497996  0.92619824  1
  O  O528  1  0.17915307  0.01951529  0.19855047  1
  O  O529  1  0.17680836  0.02046510  0.45051612  1
  O  O530  1  0.17715908  0.02007084  0.70086815  1
  O  O531  1  0.17855538  0.01837705  0.94992528  1
  O  O532  1  0.17690630  0.35477731  0.20056206  1
  O  O533  1  0.17733146  0.35483456  0.44925952  1
  O  O534  1  0.17690712  0.35224708  0.69909470  1
  O  O535  1  0.17756483  0.35130206  0.95004507  1
  O  O536  1  0.17617356  0.68465402  0.19922105  1
  O  O537  1  0.17678285  0.68537192  0.44920140  1
  O  O538  1  0.17683983  0.68519046  0.69978325  1
  O  O539  1  0.17703350  0.68465909  0.94966307  1
  O  O540  1  0.67715773  0.01761705  0.19876398  1
  O  O541  1  0.67728168  0.01799611  0.44943270  1
  O  O542  1  0.67692231  0.02161528  0.69926742  1
  O  O543  1  0.67736970  0.01830046  0.94798888  1
  O  O544  1  0.67668592  0.35385616  0.19998473  1
  O  O545  1  0.67659939  0.35418863  0.44971255  1
  O  O546  1  0.67598560  0.35458682  0.69862625  1
  O  O547  1  0.67666044  0.35214154  0.94857233  1
  O  O548  1  0.67632850  0.68507480  0.19910353  1
  O  O549  1  0.67636127  0.68769149  0.45013849  1
  O  O550  1  0.67744180  0.68742494  0.69706306  1
  O  O551  1  0.67547818  0.68660900  0.94943310  1
  O  O552  1  0.32430465  0.31254909  0.05080485  1
  O  O553  1  0.32461598  0.31406868  0.29874101  1
  O  O554  1  0.32373449  0.31620960  0.55103155  1
  O  O555  1  0.32354344  0.31575762  0.80178944  1
  O  O556  1  0.32161745  0.64652423  0.05216838  1
  O  O557  1  0.32189641  0.64718748  0.30150523  1
  O  O558  1  0.32273109  0.64822108  0.55089279  1
  O  O559  1  0.32289962  0.64801582  0.80181709  1
  O  O560  1  0.32383557  0.98025164  0.05141776  1
  O  O561  1  0.32428939  0.97954280  0.29983640  1
  O  O562  1  0.32458664  0.97958851  0.55012987  1
  O  O563  1  0.32368319  0.98092666  0.80170964  1
  O  O564  1  0.82407035  0.31321551  0.04958025  1
  O  O565  1  0.82411368  0.31306353  0.29948868  1
  O  O566  1  0.82326506  0.31243663  0.54946623  1
  O  O567  1  0.82245197  0.31585252  0.79997263  1
  O  O568  1  0.82034460  0.64682562  0.05179890  1
  O  O569  1  0.82213470  0.64553221  0.30000471  1
  O  O570  1  0.82020572  0.64749598  0.55080015  1
  O  O571  1  0.82240822  0.64748015  0.79877528  1
  O  O572  1  0.82295554  0.98085172  0.05127627  1
  O  O573  1  0.82229515  0.97890702  0.30192251  1
  O  O574  1  0.82349583  0.97856577  0.54938373  1
  O  O575  1  0.82322408  0.98141920  0.80024164  1
  O  O576  1  0.42937829  0.14676439  0.17681167  1
  O  O577  1  0.42741003  0.14593701  0.42561013  1
  O  O578  1  0.42828498  0.14699831  0.67679906  1
  O  O579  1  0.42770943  0.14582887  0.92545371  1
  O  O580  1  0.42693880  0.48215527  0.17585746  1
  O  O581  1  0.42686388  0.48207115  0.42541586  1
  O  O582  1  0.42672669  0.48264111  0.67546622  1
  O  O583  1  0.42621988  0.48189238  0.92549202  1
  O  O584  1  0.42662043  0.81258675  0.17488639  1
  O  O585  1  0.42849160  0.81395111  0.42630462  1
  O  O586  1  0.42706103  0.81266913  0.67503072  1
  O  O587  1  0.42837080  0.81403644  0.92690306  1
  O  O588  1  0.92772889  0.14552540  0.17508084  1
  O  O589  1  0.92720507  0.14778738  0.42538412  1
  O  O590  1  0.92628215  0.14657691  0.67584667  1
  O  O591  1  0.92785309  0.14664652  0.92710809  1
  O  O592  1  0.92587710  0.47988988  0.17437253  1
  O  O593  1  0.92616929  0.48126903  0.42607770  1
  O  O594  1  0.92580030  0.47998285  0.67439440  1
  O  O595  1  0.92609445  0.48148741  0.92527212  1
  O  O596  1  0.92543171  0.81325029  0.17426741  1
  O  O597  1  0.92673007  0.81294327  0.42584822  1
  O  O598  1  0.92729603  0.81181870  0.67496915  1
  O  O599  1  0.92599811  0.81200458  0.92485161  1
  O  O600  1  0.07372422  0.18482424  0.07428925  1
  O  O601  1  0.07506982  0.18695967  0.32499541  1
  O  O602  1  0.07349600  0.18500446  0.57421302  1
  O  O603  1  0.07432020  0.18641446  0.82589171  1
  O  O604  1  0.07164993  0.51957607  0.07267168  1
  O  O605  1  0.07315663  0.52004417  0.32549239  1
  O  O606  1  0.07185582  0.51931643  0.57409929  1
  O  O607  1  0.07269299  0.52062205  0.82495191  1
  O  O608  1  0.07308889  0.85366008  0.07569004  1
  O  O609  1  0.07313504  0.85361175  0.32439964  1
  O  O610  1  0.07447262  0.85201675  0.57557569  1
  O  O611  1  0.07416970  0.85265002  0.82675924  1
  O  O612  1  0.57449739  0.18675048  0.07567237  1
  O  O613  1  0.57316263  0.18531845  0.32428327  1
  O  O614  1  0.57421738  0.18699194  0.57579084  1
  O  O615  1  0.57332160  0.18570882  0.82422752  1
  O  O616  1  0.57161323  0.52035387  0.07320565  1
  O  O617  1  0.57096039  0.52046392  0.32253018  1
  O  O618  1  0.57199318  0.52043372  0.57262345  1
  O  O619  1  0.57208509  0.52065412  0.82300644  1
  O  O620  1  0.57106693  0.85247148  0.07340962  1
  O  O621  1  0.57273829  0.85350724  0.32495214  1
  O  O622  1  0.57126364  0.85286980  0.57309856  1
  O  O623  1  0.57353435  0.85412387  0.82475072  1
  O  O624  1  0.32441529  0.18539954  0.05067924  1
  O  O625  1  0.32488642  0.18713230  0.30025337  1
  O  O626  1  0.32417181  0.18887628  0.55108299  1
  O  O627  1  0.32446446  0.18868968  0.80002746  1
  O  O628  1  0.32144663  0.51922805  0.05158531  1
  O  O629  1  0.32214909  0.52009700  0.30178717  1
  O  O630  1  0.32281776  0.52134432  0.55069945  1
  O  O631  1  0.32301821  0.52101206  0.80025735  1
  O  O632  1  0.32324008  0.85307615  0.04982875  1
  O  O633  1  0.32418691  0.85258187  0.29896521  1
  O  O634  1  0.32443477  0.85254359  0.55037391  1
  O  O635  1  0.32422504  0.85362220  0.80141307  1
  O  O636  1  0.82409103  0.18629697  0.04877370  1
  O  O637  1  0.82445191  0.18593404  0.29905192  1
  O  O638  1  0.82269956  0.18509399  0.55069257  1
  O  O639  1  0.82391037  0.18873679  0.80020769  1
  O  O640  1  0.82083973  0.51931886  0.05097291  1
  O  O641  1  0.82226942  0.51873305  0.30042540  1
  O  O642  1  0.82133441  0.52008126  0.55130266  1
  O  O643  1  0.82320755  0.52083143  0.79868349  1
  O  O644  1  0.82287801  0.85386267  0.04987865  1
  O  O645  1  0.82171711  0.85153412  0.30087676  1
  O  O646  1  0.82285029  0.85173428  0.55054081  1
  O  O647  1  0.82313648  0.85422617  0.80042880  1
  O  O648  1  0.17867942  0.14709581  0.19819461  1
  O  O649  1  0.17711870  0.14755621  0.45014792  1
  O  O650  1  0.17694004  0.14704796  0.70180606  1
  O  O651  1  0.17808059  0.14534321  0.95068263  1
  O  O652  1  0.17661073  0.48181004  0.19875844  1
  O  O653  1  0.17699629  0.48193410  0.45010040  1
  O  O654  1  0.17634099  0.47931515  0.70083643  1
  O  O655  1  0.17646490  0.47844491  0.94956515  1
  O  O656  1  0.17636855  0.81168893  0.20006189  1
  O  O657  1  0.17729209  0.81238610  0.44990156  1
  O  O658  1  0.17738780  0.81230055  0.70079564  1
  O  O659  1  0.17714170  0.81181143  0.95107996  1
  O  O660  1  0.67749729  0.14478586  0.19992830  1
  O  O661  1  0.67674678  0.14511239  0.44880480  1
  O  O662  1  0.67767919  0.14875328  0.69903074  1
  O  O663  1  0.67682915  0.14533989  0.94991817  1
  O  O664  1  0.67593284  0.48094230  0.19842318  1
  O  O665  1  0.67585783  0.48146622  0.44847954  1
  O  O666  1  0.67595761  0.48162299  0.69890018  1
  O  O667  1  0.67622282  0.47929218  0.94883179  1
  O  O668  1  0.67570464  0.81218711  0.19945955  1
  O  O669  1  0.67655899  0.81456971  0.44894089  1
  O  O670  1  0.67690125  0.81493078  0.69804734  1
  O  O671  1  0.67567949  0.81346756  0.95058167  1
