# generated using pymatgen
data_Na2MnFe(PO4)2
_symmetry_space_group_name_H-M   'P 1'
_cell_length_a   22.34706825
_cell_length_b   20.09615451
_cell_length_c   19.44673173
_cell_angle_alpha   90.02751593
_cell_angle_beta   89.98284783
_cell_angle_gamma   90.01279545
_symmetry_Int_Tables_number   1
_chemical_formula_structural   Na2MnFe(PO4)2
_chemical_formula_sum   'Na96 Mn48 Fe48 P96 O384'
_cell_volume   8733.33378618
_cell_formula_units_Z   48
loop_
 _symmetry_equiv_pos_site_id
 _symmetry_equiv_pos_as_xyz
  1  'x, y, z'
loop_
 _atom_site_type_symbol
 _atom_site_label
 _atom_site_symmetry_multiplicity
 _atom_site_fract_x
 _atom_site_fract_y
 _atom_site_fract_z
 _atom_site_occupancy
  Na  Na0  1  0.14021446  0.24944802  0.24297674  1
  Na  Na1  1  0.14066771  0.25217850  0.49317040  1
  Na  Na2  1  0.14021313  0.25063619  0.74343871  1
  Na  Na3  1  0.13998501  0.25061896  0.99395792  1
  Na  Na4  1  0.14074982  0.58238054  0.24445984  1
  Na  Na5  1  0.14073919  0.58449979  0.49331089  1
  Na  Na6  1  0.14026074  0.58266254  0.74310746  1
  Na  Na7  1  0.14086012  0.58178585  0.99288787  1
  Na  Na8  1  0.13980973  0.91630681  0.24315611  1
  Na  Na9  1  0.14039156  0.91753905  0.49317632  1
  Na  Na10  1  0.14024305  0.91663868  0.74262059  1
  Na  Na11  1  0.13943680  0.91668238  0.99301680  1
  Na  Na12  1  0.64067913  0.25072451  0.24356662  1
  Na  Na13  1  0.64051980  0.24992043  0.49436299  1
  Na  Na14  1  0.64038388  0.24969742  0.74458692  1
  Na  Na15  1  0.64039719  0.24961188  0.99424654  1
  Na  Na16  1  0.64069412  0.58318116  0.24352455  1
  Na  Na17  1  0.64040323  0.58147884  0.49347019  1
  Na  Na18  1  0.64049350  0.58284069  0.74396931  1
  Na  Na19  1  0.64055182  0.58314677  0.99514953  1
  Na  Na20  1  0.64048262  0.91666092  0.24266340  1
  Na  Na21  1  0.64066117  0.91585962  0.49435132  1
  Na  Na22  1  0.64006351  0.91761477  0.74498305  1
  Na  Na23  1  0.63968739  0.91660085  0.99356301  1
  Na  Na24  1  0.35989511  0.08430408  0.00697481  1
  Na  Na25  1  0.35942251  0.08283098  0.25589727  1
  Na  Na26  1  0.35920764  0.08443110  0.50693974  1
  Na  Na27  1  0.35964897  0.08372003  0.75712345  1
  Na  Na28  1  0.35932319  0.41686613  0.00530389  1
  Na  Na29  1  0.35917314  0.41720835  0.25656477  1
  Na  Na30  1  0.36000241  0.41904817  0.50680968  1
  Na  Na31  1  0.35971788  0.41748398  0.75726560  1
  Na  Na32  1  0.35885124  0.74970535  0.00613736  1
  Na  Na33  1  0.35881038  0.74944161  0.25611312  1
  Na  Na34  1  0.35877954  0.75137313  0.50594376  1
  Na  Na35  1  0.35893237  0.74953418  0.75555453  1
  Na  Na36  1  0.86033411  0.08273086  0.00781008  1
  Na  Na37  1  0.86015732  0.08394724  0.25680445  1
  Na  Na38  1  0.85996415  0.08218541  0.50540237  1
  Na  Na39  1  0.86037580  0.08255909  0.75674131  1
  Na  Na40  1  0.85913774  0.41655192  0.00690122  1
  Na  Na41  1  0.85972781  0.41587011  0.25675452  1
  Na  Na42  1  0.86068201  0.41572653  0.50604826  1
  Na  Na43  1  0.86089364  0.41680656  0.75689533  1
  Na  Na44  1  0.85967090  0.74987406  0.00652513  1
  Na  Na45  1  0.85961258  0.75011344  0.25436582  1
  Na  Na46  1  0.85938439  0.74904802  0.50491055  1
  Na  Na47  1  0.85932590  0.75076149  0.75631953  1
  Na  Na48  1  0.10933129  0.08217259  0.11895440  1
  Na  Na49  1  0.10947364  0.08317207  0.36778182  1
  Na  Na50  1  0.10968718  0.08373517  0.61838654  1
  Na  Na51  1  0.10939384  0.08421434  0.86928340  1
  Na  Na52  1  0.11034067  0.41505186  0.11827345  1
  Na  Na53  1  0.10991642  0.41586829  0.36824545  1
  Na  Na54  1  0.11002914  0.41653145  0.61884320  1
  Na  Na55  1  0.11010050  0.41642089  0.86792875  1
  Na  Na56  1  0.10941160  0.75100670  0.11852652  1
  Na  Na57  1  0.11010921  0.75052989  0.36818586  1
  Na  Na58  1  0.10979375  0.74991582  0.61734955  1
  Na  Na59  1  0.10933016  0.75026358  0.86752722  1
  Na  Na60  1  0.60957170  0.08359056  0.11834055  1
  Na  Na61  1  0.60977922  0.08377884  0.36883939  1
  Na  Na62  1  0.60958891  0.08377381  0.62062191  1
  Na  Na63  1  0.60943764  0.08365363  0.86976915  1
  Na  Na64  1  0.61023205  0.41655106  0.11895356  1
  Na  Na65  1  0.60982455  0.41574555  0.36830508  1
  Na  Na66  1  0.60976243  0.41615965  0.62040133  1
  Na  Na67  1  0.60999900  0.41632253  0.86899524  1
  Na  Na68  1  0.60942938  0.75072814  0.11791247  1
  Na  Na69  1  0.60976001  0.74854628  0.36802076  1
  Na  Na70  1  0.60967929  0.74953757  0.61848068  1
  Na  Na71  1  0.60914356  0.75106360  0.86924754  1
  Na  Na72  1  0.39007483  0.25068039  0.13133068  1
  Na  Na73  1  0.39012255  0.25037865  0.38108611  1
  Na  Na74  1  0.39055383  0.25084557  0.63285257  1
  Na  Na75  1  0.39031914  0.25029743  0.88083168  1
  Na  Na76  1  0.38940980  0.58306760  0.13132579  1
  Na  Na77  1  0.38979225  0.58315349  0.38145044  1
  Na  Na78  1  0.39025346  0.58280616  0.63159615  1
  Na  Na79  1  0.38954381  0.58366926  0.88112843  1
  Na  Na80  1  0.38995519  0.91807776  0.13098406  1
  Na  Na81  1  0.38998635  0.91654301  0.38126697  1
  Na  Na82  1  0.38978196  0.91751585  0.63183465  1
  Na  Na83  1  0.39026459  0.91816024  0.88125199  1
  Na  Na84  1  0.89030337  0.24848671  0.13311341  1
  Na  Na85  1  0.89017617  0.24955005  0.38138083  1
  Na  Na86  1  0.89107248  0.25020113  0.63049933  1
  Na  Na87  1  0.89121279  0.24938204  0.88194082  1
  Na  Na88  1  0.89034372  0.58329774  0.13161131  1
  Na  Na89  1  0.89029134  0.58259022  0.38072377  1
  Na  Na90  1  0.89078392  0.58160218  0.63084809  1
  Na  Na91  1  0.89040395  0.58311679  0.88176076  1
  Na  Na92  1  0.89063137  0.91697181  0.13098215  1
  Na  Na93  1  0.89045588  0.91616900  0.37990340  1
  Na  Na94  1  0.89018423  0.91662703  0.63102662  1
  Na  Na95  1  0.89061336  0.91820361  0.88199142  1
  Mn  Mn96  1  0.25036362  0.33419511  0.37453139  1
  Mn  Mn97  1  0.49983098  0.00056316  0.50040525  1
  Mn  Mn98  1  0.49975972  0.16688575  0.50104850  1
  Mn  Mn99  1  0.75110413  0.16591473  0.87552923  1
  Mn  Mn100  1  0.50041529  0.83335033  0.50020865  1
  Mn  Mn101  1  -0.00004943  0.49934789  0.00011405  1
  Mn  Mn102  1  0.75065123  0.49935120  0.37412758  1
  Mn  Mn103  1  0.24986385  0.00017547  0.37551596  1
  Mn  Mn104  1  0.00071521  0.49852333  0.25036384  1
  Mn  Mn105  1  0.74963409  -0.00078472  0.62483734  1
  Mn  Mn106  1  0.49933099  0.33278908  -0.00031416  1
  Mn  Mn107  1  0.75068502  0.33370815  0.87575008  1
  Mn  Mn108  1  0.50048295  0.33412069  0.50097387  1
  Mn  Mn109  1  0.24984717  0.16675340  0.12469718  1
  Mn  Mn110  1  0.74937186  0.83356387  0.87566497  1
  Mn  Mn111  1  0.49987716  0.83373542  0.24954996  1
  Mn  Mn112  1  0.75068774  0.33287595  0.62539166  1
  Mn  Mn113  1  0.25015882  0.50103988  0.62521683  1
  Mn  Mn114  1  0.74977511  0.00013706  0.12567964  1
  Mn  Mn115  1  0.24880114  0.83338872  0.12495185  1
  Mn  Mn116  1  0.74927572  0.66603063  0.87569816  1
  Mn  Mn117  1  0.49959164  0.66630538  0.74980948  1
  Mn  Mn118  1  0.50043604  0.00101414  0.24989828  1
  Mn  Mn119  1  0.74983694  0.83187189  0.37403223  1
  Mn  Mn120  1  0.24913747  0.66535949  0.12555339  1
  Mn  Mn121  1  0.49974308  0.33320321  0.25008301  1
  Mn  Mn122  1  0.00040645  0.16614361  0.49983651  1
  Mn  Mn123  1  0.49905656  0.66595332  0.24947616  1
  Mn  Mn124  1  -0.00024080  0.83404411  0.49923546  1
  Mn  Mn125  1  -0.00036163  0.33194159  -0.00016629  1
  Mn  Mn126  1  0.24970277  -0.00007886  0.87446564  1
  Mn  Mn127  1  0.25025334  0.16808640  0.62532725  1
  Mn  Mn128  1  0.75064348  0.66654168  0.62502315  1
  Mn  Mn129  1  0.75033285  0.00009465  0.37451553  1
  Mn  Mn130  1  0.49989118  0.66515188  0.49945299  1
  Mn  Mn131  1  0.75091743  0.16619167  0.62522232  1
  Mn  Mn132  1  0.50015517  0.66736749  0.00014231  1
  Mn  Mn133  1  -0.00005027  0.83450671  0.74899034  1
  Mn  Mn134  1  -0.00055044  0.66600073  0.74924132  1
  Mn  Mn135  1  0.49941360  0.83441751  0.74994115  1
  Mn  Mn136  1  0.00000075  0.16665225  0.74969716  1
  Mn  Mn137  1  0.00062654  0.66714921  0.24998167  1
  Mn  Mn138  1  0.49975702  0.49996637  -0.00021861  1
  Mn  Mn139  1  0.24943714  0.16777546  0.87542820  1
  Mn  Mn140  1  -0.00057006  0.66570054  0.49921409  1
  Mn  Mn141  1  0.75041526  0.49927408  0.62453871  1
  Mn  Mn142  1  0.25020752  0.83240711  0.87410946  1
  Mn  Mn143  1  0.00086473  0.66750286  -0.00005404  1
  Fe  Fe144  1  0.75017946  -0.00036827  0.87576894  1
  Fe  Fe145  1  0.24938911  0.83348082  0.62446166  1
  Fe  Fe146  1  0.00031268  0.00054694  0.75050694  1
  Fe  Fe147  1  -0.00006830  0.16590307  0.25064801  1
  Fe  Fe148  1  -0.00001879  0.33226957  0.25013816  1
  Fe  Fe149  1  0.50020505  0.49938464  0.50054078  1
  Fe  Fe150  1  0.74987149  0.83284855  0.62501327  1
  Fe  Fe151  1  0.24995523  0.83396096  0.37521050  1
  Fe  Fe152  1  0.75016101  0.50011238  0.87618302  1
  Fe  Fe153  1  0.24988937  0.16730517  0.37507473  1
  Fe  Fe154  1  0.75036957  0.50017943  0.12572780  1
  Fe  Fe155  1  0.25064906  0.33450416  0.62463218  1
  Fe  Fe156  1  0.75016212  0.33288859  0.37456637  1
  Fe  Fe157  1  0.00018854  0.49916042  0.74974999  1
  Fe  Fe158  1  0.24972350  -0.00024647  0.12534794  1
  Fe  Fe159  1  0.00028406  -0.00018254  0.49901233  1
  Fe  Fe160  1  -0.00001039  0.00058256  0.00063223  1
  Fe  Fe161  1  0.74988004  0.83294943  0.12477549  1
  Fe  Fe162  1  0.00065796  0.49866496  0.50013080  1
  Fe  Fe163  1  0.00049864  0.33290753  0.50021816  1
  Fe  Fe164  1  0.49957527  0.16688790  0.24993600  1
  Fe  Fe165  1  0.24985350  0.66729320  0.37508306  1
  Fe  Fe166  1  0.74995443  0.66616693  0.37429191  1
  Fe  Fe167  1  0.24993302  0.66741578  0.62439644  1
  Fe  Fe168  1  0.25019656  0.49963501  0.12443576  1
  Fe  Fe169  1  0.50004239  0.00094469  0.75139547  1
  Fe  Fe170  1  0.24918015  0.66645324  0.87462029  1
  Fe  Fe171  1  0.74968164  0.16698625  0.37513396  1
  Fe  Fe172  1  0.50007284  0.33327814  0.75041041  1
  Fe  Fe173  1  0.24992281  0.33393700  0.12449559  1
  Fe  Fe174  1  0.24998743  0.33383681  0.87490186  1
  Fe  Fe175  1  0.49877602  0.83458858  -0.00051073  1
  Fe  Fe176  1  0.00030673  0.16613918  0.00115053  1
  Fe  Fe177  1  0.49948544  0.00133899  0.00027658  1
  Fe  Fe178  1  0.24965163  0.49984695  0.87454740  1
  Fe  Fe179  1  0.50014406  0.16709967  -0.00030946  1
  Fe  Fe180  1  0.00011088  -0.00038452  0.24915829  1
  Fe  Fe181  1  -0.00025400  0.83398820  0.24917838  1
  Fe  Fe182  1  0.74981128  0.16678005  0.12567147  1
  Fe  Fe183  1  0.00039409  0.33319997  0.75007742  1
  Fe  Fe184  1  0.49993050  0.16666804  0.75117541  1
  Fe  Fe185  1  0.50030313  0.49993052  0.75032764  1
  Fe  Fe186  1  0.24996754  0.50058336  0.37528469  1
  Fe  Fe187  1  0.75048525  0.33330765  0.12552101  1
  Fe  Fe188  1  0.50004363  0.49960461  0.25011557  1
  Fe  Fe189  1  0.24971337  0.00073361  0.62439906  1
  Fe  Fe190  1  0.74981435  0.66643818  0.12463557  1
  Fe  Fe191  1  -0.00005334  0.83437429  -0.00085096  1
  P  P192  1  0.04196382  0.24809911  0.10373280  1
  P  P193  1  0.04154301  0.24978177  0.35186839  1
  P  P194  1  0.04257099  0.25105985  0.60259562  1
  P  P195  1  0.04253475  0.25058238  0.85256262  1
  P  P196  1  0.04321948  0.58313700  0.10309450  1
  P  P197  1  0.04275848  0.58237927  0.35350614  1
  P  P198  1  0.04209846  0.58118399  0.60235458  1
  P  P199  1  0.04212005  0.58198041  0.85190683  1
  P  P200  1  0.04109048  0.91682411  0.10183285  1
  P  P201  1  0.04156612  0.91713116  0.35112539  1
  P  P202  1  0.04225283  0.91847330  0.60212518  1
  P  P203  1  0.04231678  0.91837277  0.85283028  1
  P  P204  1  0.54189084  0.24875724  0.10264280  1
  P  P205  1  0.54227224  0.24895485  0.35245662  1
  P  P206  1  0.54275402  0.25034747  0.60486510  1
  P  P207  1  0.54163386  0.24968713  0.85223519  1
  P  P208  1  0.54223832  0.58300666  0.10369249  1
  P  P209  1  0.54208335  0.58132405  0.35251850  1
  P  P210  1  0.54243641  0.58124200  0.60306441  1
  P  P211  1  0.54217494  0.58250714  0.85252019  1
  P  P212  1  0.54109337  0.91756552  0.10111484  1
  P  P213  1  0.54321924  0.91691256  0.35286145  1
  P  P214  1  0.54260127  0.91764985  0.60411965  1
  P  P215  1  0.54154710  0.91856337  0.85386674  1
  P  P216  1  0.45769094  0.08515427  0.14674076  1
  P  P217  1  0.45681315  0.08407943  0.39680606  1
  P  P218  1  0.45813469  0.08381087  0.64958601  1
  P  P219  1  0.45830665  0.08412896  0.89807020  1
  P  P220  1  0.45745592  0.41760282  0.14782775  1
  P  P221  1  0.45787971  0.41781440  0.39757502  1
  P  P222  1  0.45865111  0.41705411  0.64881206  1
  P  P223  1  0.45748435  0.41640186  0.89570187  1
  P  P224  1  0.45672993  0.75081197  0.14603539  1
  P  P225  1  0.45699461  0.74956999  0.39681326  1
  P  P226  1  0.45706867  0.74984637  0.64672842  1
  P  P227  1  0.45731142  0.75158308  0.89754603  1
  P  P228  1  0.95876844  0.08301286  0.14818608  1
  P  P229  1  0.95824361  0.08184007  0.39636187  1
  P  P230  1  0.95808451  0.08169554  0.64711507  1
  P  P231  1  0.95884872  0.08376332  0.89892366  1
  P  P232  1  0.95792011  0.41437536  0.14789349  1
  P  P233  1  0.95910964  0.41537880  0.39820395  1
  P  P234  1  0.95907792  0.41596747  0.64764243  1
  P  P235  1  0.95743012  0.41610675  0.89628031  1
  P  P236  1  0.95837809  0.75181782  0.14657846  1
  P  P237  1  0.95745667  0.75040592  0.39568867  1
  P  P238  1  0.95704696  0.74987087  0.64624428  1
  P  P239  1  0.95780537  0.75160501  0.89722824  1
  P  P240  1  0.20768167  0.08222978  0.22769753  1
  P  P241  1  0.20774751  0.08530269  0.47769220  1
  P  P242  1  0.20776857  0.08280080  0.72700253  1
  P  P243  1  0.20744947  0.08339072  0.97855369  1
  P  P244  1  0.20869247  0.41699074  0.22651286  1
  P  P245  1  0.20829042  0.41856626  0.47759265  1
  P  P246  1  0.20832115  0.41581000  0.72776144  1
  P  P247  1  0.20852575  0.41654092  0.97677409  1
  P  P248  1  0.20690742  0.74958288  0.22902807  1
  P  P249  1  0.20838171  0.75096438  0.47702484  1
  P  P250  1  0.20805514  0.74957421  0.72625673  1
  P  P251  1  0.20711750  0.74842242  0.97704713  1
  P  P252  1  0.70779774  0.08545769  0.22822754  1
  P  P253  1  0.70785597  0.08413621  0.47728479  1
  P  P254  1  0.70789756  0.08278138  0.72904204  1
  P  P255  1  0.70821305  0.08209622  0.97835734  1
  P  P256  1  0.70911380  0.41641919  0.22695541  1
  P  P257  1  0.70812216  0.41494496  0.47683269  1
  P  P258  1  0.70791994  0.41673260  0.72908442  1
  P  P259  1  0.70798539  0.41796513  0.97901266  1
  P  P260  1  0.70819991  0.74921474  0.22626905  1
  P  P261  1  0.70742845  0.74808475  0.47729908  1
  P  P262  1  0.70740827  0.75102358  0.72755657  1
  P  P263  1  0.70699742  0.74968817  0.97936613  1
  P  P264  1  0.29194282  0.25207783  0.02217988  1
  P  P265  1  0.29196361  0.24911955  0.27209353  1
  P  P266  1  0.29273483  0.25223068  0.52230514  1
  P  P267  1  0.29201611  0.25193676  0.77233209  1
  P  P268  1  0.29176723  0.58182610  0.02161514  1
  P  P269  1  0.29112477  0.58303930  0.27339597  1
  P  P270  1  0.29200458  0.58572442  0.52191968  1
  P  P271  1  0.29093954  0.58389032  0.77301468  1
  P  P272  1  0.29155364  0.91765637  0.02248015  1
  P  P273  1  0.29189113  0.91581991  0.27240370  1
  P  P274  1  0.29104646  0.91698578  0.52304419  1
  P  P275  1  0.29230236  0.91634848  0.77046456  1
  P  P276  1  0.79163367  0.24968801  0.02425636  1
  P  P277  1  0.79146386  0.24981800  0.27283108  1
  P  P278  1  0.79322544  0.24955067  0.52098746  1
  P  P279  1  0.79387865  0.24989133  0.77261478  1
  P  P280  1  0.79179302  0.58276886  0.02359729  1
  P  P281  1  0.79235530  0.58456314  0.27128806  1
  P  P282  1  0.79317776  0.58296743  0.52099103  1
  P  P283  1  0.79246657  0.58210442  0.77311042  1
  P  P284  1  0.79180353  0.91579805  0.02273059  1
  P  P285  1  0.79233255  0.91602533  0.27102485  1
  P  P286  1  0.79231262  0.91463797  0.52227037  1
  P  P287  1  0.79227552  0.91747608  0.77277380  1
  O  O288  1  0.03653987  0.24858585  0.18360098  1
  O  O289  1  0.03706063  0.24996116  0.43187738  1
  O  O290  1  0.03719489  0.25104534  0.68252358  1
  O  O291  1  0.03741137  0.24974347  0.93248614  1
  O  O292  1  0.03814138  0.58316211  0.18307457  1
  O  O293  1  0.03738562  0.58174252  0.43344094  1
  O  O294  1  0.03666978  0.58104001  0.68232284  1
  O  O295  1  0.03728707  0.58254603  0.93191489  1
  O  O296  1  0.03595911  0.91677555  0.18173280  1
  O  O297  1  0.03632255  0.91761791  0.43107452  1
  O  O298  1  0.03713011  0.91856843  0.68210052  1
  O  O299  1  0.03702883  0.91764374  0.93272169  1
  O  O300  1  0.53677537  0.24878508  0.18258642  1
  O  O301  1  0.53735079  0.24957690  0.43244441  1
  O  O302  1  0.53732607  0.25047396  0.68477569  1
  O  O303  1  0.53635984  0.24931423  0.93222450  1
  O  O304  1  0.53686813  0.58248326  0.18365457  1
  O  O305  1  0.53705372  0.58103051  0.43254289  1
  O  O306  1  0.53711785  0.58144202  0.68303684  1
  O  O307  1  0.53721123  0.58308811  0.93250388  1
  O  O308  1  0.53673698  0.91756306  0.18117205  1
  O  O309  1  0.53832008  0.91685519  0.43287954  1
  O  O310  1  0.53727462  0.91825862  0.68410509  1
  O  O311  1  0.53567338  0.91821242  0.93372733  1
  O  O312  1  0.46314481  0.08485708  0.06683962  1
  O  O313  1  0.46182001  0.08441339  0.31681232  1
  O  O314  1  0.46292488  0.08383753  0.56956492  1
  O  O315  1  0.46363193  0.08390729  0.81816379  1
  O  O316  1  0.46217719  0.41723997  0.06784191  1
  O  O317  1  0.46296060  0.41766642  0.31759035  1
  O  O318  1  0.46376392  0.41751506  0.56877558  1
  O  O319  1  0.46303391  0.41609871  0.81581191  1
  O  O320  1  0.46206248  0.75149125  0.06605812  1
  O  O321  1  0.46186034  0.74943243  0.31679089  1
  O  O322  1  0.46226545  0.74952374  0.56678110  1
  O  O323  1  0.46239227  0.75131636  0.81755643  1
  O  O324  1  0.96364424  0.08374174  0.06829413  1
  O  O325  1  0.96368754  0.08202871  0.31647933  1
  O  O326  1  0.96350506  0.08167731  0.56717480  1
  O  O327  1  0.96352406  0.08329572  0.81893507  1
  O  O328  1  0.96270722  0.41453058  0.06792161  1
  O  O329  1  0.96393400  0.41469332  0.31822805  1
  O  O330  1  0.96444908  0.41604116  0.56770454  1
  O  O331  1  0.96276163  0.41624197  0.81634177  1
  O  O332  1  0.96394677  0.75197086  0.06663981  1
  O  O333  1  0.96293810  0.75111762  0.31573841  1
  O  O334  1  0.96212368  0.74974779  0.56625926  1
  O  O335  1  0.96280255  0.75110705  0.81722809  1
  O  O336  1  0.21285269  0.08294019  0.05848123  1
  O  O337  1  0.21280198  0.08271279  0.30762970  1
  O  O338  1  0.21319628  0.08473271  0.55761729  1
  O  O339  1  0.21256061  0.08296125  0.80698960  1
  O  O340  1  0.21343801  0.41689599  0.05670991  1
  O  O341  1  0.21384128  0.41727434  0.30645690  1
  O  O342  1  0.21353534  0.41804296  0.55748187  1
  O  O343  1  0.21332448  0.41580867  0.80765537  1
  O  O344  1  0.21210338  0.74876534  0.05701890  1
  O  O345  1  0.21249193  0.74998312  0.30890915  1
  O  O346  1  0.21375423  0.75111991  0.55695105  1
  O  O347  1  0.21308445  0.74895222  0.80625070  1
  O  O348  1  0.71307886  0.08279253  0.05834167  1
  O  O349  1  0.71298971  0.08568202  0.30817134  1
  O  O350  1  0.71304965  0.08348874  0.55726719  1
  O  O351  1  0.71321136  0.08223433  0.80899790  1
  O  O352  1  0.71356367  0.41780488  0.05889947  1
  O  O353  1  0.71421179  0.41555631  0.30689835  1
  O  O354  1  0.71314414  0.41528922  0.55680622  1
  O  O355  1  0.71290809  0.41748145  0.80906853  1
  O  O356  1  0.71234785  0.74981387  0.05926504  1
  O  O357  1  0.71328455  0.74857410  0.30627060  1
  O  O358  1  0.71281644  0.74896378  0.55723618  1
  O  O359  1  0.71217562  0.75068938  0.80759063  1
  O  O360  1  0.28667710  0.24955213  0.19220851  1
  O  O361  1  0.28737826  0.25147428  0.44236826  1
  O  O362  1  0.28708756  0.25199642  0.69235635  1
  O  O363  1  0.28666430  0.25225719  0.94224236  1
  O  O364  1  0.28608246  0.58212939  0.19341856  1
  O  O365  1  0.28658579  0.58546979  0.44207047  1
  O  O366  1  0.28633021  0.58408370  0.69302686  1
  O  O367  1  0.28625952  0.58231457  0.94177370  1
  O  O368  1  0.28645326  0.91656723  0.19246224  1
  O  O369  1  0.28605508  0.91668449  0.44301939  1
  O  O370  1  0.28677188  0.91657388  0.69056859  1
  O  O371  1  0.28668107  0.91724663  0.94247924  1
  O  O372  1  0.78623313  0.24974453  0.19290846  1
  O  O373  1  0.78777311  0.24954609  0.44104221  1
  O  O374  1  0.78907200  0.24978074  0.69262271  1
  O  O375  1  0.78728653  0.24990344  0.94425599  1
  O  O376  1  0.78672833  0.58423734  0.19141154  1
  O  O377  1  0.78799710  0.58336543  0.44100635  1
  O  O378  1  0.78760631  0.58239255  0.69307698  1
  O  O379  1  0.78644505  0.58224293  0.94363235  1
  O  O380  1  0.78693079  0.91577219  0.19111306  1
  O  O381  1  0.78725497  0.91495309  0.44229513  1
  O  O382  1  0.78699845  0.91672759  0.69282711  1
  O  O383  1  0.78678424  0.91662444  0.94276829  1
  O  O384  1  0.22774690  0.25183670  0.05802744  1
  O  O385  1  0.22777926  0.24927447  0.30808863  1
  O  O386  1  0.22845129  0.25252739  0.55806852  1
  O  O387  1  0.22768943  0.25212418  0.80789650  1
  O  O388  1  0.22767068  0.58100835  0.05794824  1
  O  O389  1  0.22709240  0.58350667  0.30963378  1
  O  O390  1  0.22788275  0.58548847  0.55809914  1
  O  O391  1  0.22678353  0.58418741  0.80889821  1
  O  O392  1  0.22717465  0.91808565  0.05785567  1
  O  O393  1  0.22770571  0.91548333  0.30834605  1
  O  O394  1  0.22690072  0.91703083  0.55894388  1
  O  O395  1  0.22809496  0.91589712  0.80626922  1
  O  O396  1  0.72730368  0.24952552  0.05956777  1
  O  O397  1  0.72741827  0.25030142  0.30928202  1
  O  O398  1  0.72901107  0.24949572  0.55679019  1
  O  O399  1  0.72940702  0.24967616  0.80751796  1
  O  O400  1  0.72769854  0.58277877  0.05982156  1
  O  O401  1  0.72831902  0.58422671  0.30773900  1
  O  O402  1  0.72887028  0.58301033  0.55639838  1
  O  O403  1  0.72802671  0.58149714  0.80843437  1
  O  O404  1  0.72754462  0.91551664  0.05837163  1
  O  O405  1  0.72813565  0.91624254  0.30657317  1
  O  O406  1  0.72796524  0.91444977  0.55781266  1
  O  O407  1  0.72800069  0.91836541  0.80863242  1
  O  O408  1  0.27187603  0.08197631  0.19180501  1
  O  O409  1  0.27195604  0.08539796  0.44179975  1
  O  O410  1  0.27214475  0.08301690  0.69171269  1
  O  O411  1  0.27166446  0.08386036  0.94295452  1
  O  O412  1  0.27280244  0.41721451  0.19032792  1
  O  O413  1  0.27251595  0.41860805  0.44179146  1
  O  O414  1  0.27254373  0.41603877  0.69180009  1
  O  O415  1  0.27257523  0.41624688  0.94053706  1
  O  O416  1  0.27095238  0.74970655  0.19288989  1
  O  O417  1  0.27229676  0.75104208  0.44026944  1
  O  O418  1  0.27221643  0.75040607  0.69024848  1
  O  O419  1  0.27151858  0.74788935  0.94162806  1
  O  O420  1  0.77207036  0.08484062  0.19257644  1
  O  O421  1  0.77215096  0.08449774  0.44174038  1
  O  O422  1  0.77216892  0.08243791  0.69353608  1
  O  O423  1  0.77260821  0.08145458  0.94293247  1
  O  O424  1  0.77320715  0.41708782  0.19094339  1
  O  O425  1  0.77246731  0.41461105  0.44134222  1
  O  O426  1  0.77231447  0.41649425  0.69383489  1
  O  O427  1  0.77212304  0.41840927  0.94273126  1
  O  O428  1  0.77232825  0.74951306  0.19016587  1
  O  O429  1  0.77168838  0.74750998  0.44138583  1
  O  O430  1  0.77186993  0.75133665  0.69229679  1
  O  O431  1  0.77118449  0.74970652  0.94361144  1
  O  O432  1  0.02277823  0.08220374  0.18439951  1
  O  O433  1  0.02232637  0.08156120  0.43267384  1
  O  O434  1  0.02225050  0.08182996  0.68316586  1
  O  O435  1  0.02301268  0.08441039  0.93476753  1
  O  O436  1  0.02237577  0.41381872  0.18299842  1
  O  O437  1  0.02330013  0.41592206  0.43407750  1
  O  O438  1  0.02303663  0.41610331  0.68426128  1
  O  O439  1  0.02170264  0.41579397  0.93185908  1
  O  O440  1  0.02243976  0.75205558  0.18272342  1
  O  O441  1  0.02162876  0.75007283  0.43133774  1
  O  O442  1  0.02145541  0.74991765  0.68125307  1
  O  O443  1  0.02219280  0.75212344  0.93253760  1
  O  O444  1  0.52188185  0.08572407  0.18282555  1
  O  O445  1  0.52129687  0.08382147  0.43178457  1
  O  O446  1  0.52237870  0.08401865  0.68532565  1
  O  O447  1  0.52233034  0.08396637  0.93453832  1
  O  O448  1  0.52190986  0.41746219  0.18294841  1
  O  O449  1  0.52223226  0.41811536  0.43316412  1
  O  O450  1  0.52274319  0.41702351  0.68487805  1
  O  O451  1  0.52157854  0.41622452  0.93166533  1
  O  O452  1  0.52107483  0.74993058  0.18130738  1
  O  O453  1  0.52150028  0.74933918  0.43163439  1
  O  O454  1  0.52141684  0.75002833  0.68186590  1
  O  O455  1  0.52161663  0.75194642  0.93291746  1
  O  O456  1  0.47758770  0.24846216  0.06703094  1
  O  O457  1  0.47788082  0.24884197  0.31709348  1
  O  O458  1  0.47853596  0.25069153  0.56908857  1
  O  O459  1  0.47757959  0.24987177  0.81601875  1
  O  O460  1  0.47798411  0.58349009  0.06826985  1
  O  O461  1  0.47769145  0.58129647  0.31713073  1
  O  O462  1  0.47813220  0.58095215  0.56736593  1
  O  O463  1  0.47777821  0.58209488  0.81725064  1
  O  O464  1  0.47675915  0.91823502  0.06576805  1
  O  O465  1  0.47867706  0.91735001  0.31816328  1
  O  O466  1  0.47823905  0.91718149  0.56880834  1
  O  O467  1  0.47756679  0.91887052  0.81737252  1
  O  O468  1  0.97781226  0.24762737  0.06760902  1
  O  O469  1  0.97730704  0.25027969  0.31620854  1
  O  O470  1  0.97844243  0.25069250  0.56661115  1
  O  O471  1  0.97831556  0.25109561  0.81677520  1
  O  O472  1  0.97878653  0.58354297  0.06810417  1
  O  O473  1  0.97858405  0.58262002  0.31787875  1
  O  O474  1  0.97794812  0.58081860  0.56639031  1
  O  O475  1  0.97775939  0.58146214  0.81660102  1
  O  O476  1  0.97712775  0.91653486  0.06540363  1
  O  O477  1  0.97746703  0.91716589  0.31488352  1
  O  O478  1  0.97797161  0.91866760  0.56644011  1
  O  O479  1  0.97809303  0.91865732  0.81684378  1
  O  O480  1  0.07301240  0.31157218  0.07524838  1
  O  O481  1  0.07300885  0.31291163  0.32333765  1
  O  O482  1  0.07335688  0.31447147  0.57392713  1
  O  O483  1  0.07338345  0.31415486  0.82429682  1
  O  O484  1  0.07448612  0.64647691  0.07499111  1
  O  O485  1  0.07386393  0.64602550  0.32585443  1
  O  O486  1  0.07279433  0.64523733  0.57483314  1
  O  O487  1  0.07281908  0.64575876  0.82383433  1
  O  O488  1  0.07152683  0.98081844  0.07350007  1
  O  O489  1  0.07279578  0.98041489  0.32266352  1
  O  O490  1  0.07344499  0.98150051  0.57321415  1
  O  O491  1  0.07312734  0.98201856  0.82450642  1
  O  O492  1  0.57253748  0.31274557  0.07484500  1
  O  O493  1  0.57320687  0.31262172  0.32439005  1
  O  O494  1  0.57417369  0.31353158  0.57622133  1
  O  O495  1  0.57254400  0.31348274  0.82450460  1
  O  O496  1  0.57340514  0.64657093  0.07580636  1
  O  O497  1  0.57287394  0.64520664  0.32481249  1
  O  O498  1  0.57319181  0.64508930  0.57510178  1
  O  O499  1  0.57303145  0.64622485  0.82454324  1
  O  O500  1  0.57239747  0.98102306  0.07318417  1
  O  O501  1  0.57442680  0.98024034  0.32458710  1
  O  O502  1  0.57366640  0.98094444  0.57554295  1
  O  O503  1  0.57257971  0.98207490  0.82555910  1
  O  O504  1  0.42691792  0.02133514  0.17482721  1
  O  O505  1  0.42586743  0.02043799  0.42498132  1
  O  O506  1  0.42752271  0.02002099  0.67764118  1
  O  O507  1  0.42702390  0.02079941  0.92660243  1
  O  O508  1  0.42640141  0.35400261  0.17574704  1
  O  O509  1  0.42720431  0.35392346  0.42555927  1
  O  O510  1  0.42805440  0.35307942  0.67659581  1
  O  O511  1  0.42617450  0.35313571  0.92429250  1
  O  O512  1  0.42528158  0.68730595  0.17370291  1
  O  O513  1  0.42594611  0.68612277  0.42496960  1
  O  O514  1  0.42613984  0.68630705  0.67499618  1
  O  O515  1  0.42639087  0.68783035  0.92525370  1
  O  O516  1  0.92712359  0.01960958  0.17587570  1
  O  O517  1  0.92703755  0.01855308  0.42486348  1
  O  O518  1  0.92707404  0.01859039  0.67608252  1
  O  O519  1  0.92851133  0.02001622  0.92785464  1
  O  O520  1  0.92688637  0.35112150  0.17650411  1
  O  O521  1  0.92849557  0.35182172  0.42704032  1
  O  O522  1  0.92824241  0.35226515  0.67594106  1
  O  O523  1  0.92609430  0.35279043  0.92467475  1
  O  O524  1  0.92754667  0.68783528  0.17404063  1
  O  O525  1  0.92630174  0.68670748  0.42318075  1
  O  O526  1  0.92601171  0.68638881  0.67439555  1
  O  O527  1  0.92707214  0.68781523  0.92525884  1
  O  O528  1  0.17710236  0.01848660  0.19924831  1
  O  O529  1  0.17634435  0.02194077  0.44964408  1
  O  O530  1  0.17726393  0.01922370  0.69824742  1
  O  O531  1  0.17615035  0.02025919  0.95004551  1
  O  O532  1  0.17831338  0.35282822  0.19854227  1
  O  O533  1  0.17694193  0.35528319  0.44922860  1
  O  O534  1  0.17768051  0.35243986  0.69854354  1
  O  O535  1  0.17721334  0.35307253  0.94860331  1
  O  O536  1  0.17580711  0.68600275  0.20096953  1
  O  O537  1  0.17756691  0.68717878  0.44887623  1
  O  O538  1  0.17751189  0.68587541  0.69756863  1
  O  O539  1  0.17610203  0.68503833  0.94869206  1
  O  O540  1  0.67640683  0.02179429  0.20071672  1
  O  O541  1  0.67697138  0.02041491  0.44929382  1
  O  O542  1  0.67618138  0.01993358  0.70035663  1
  O  O543  1  0.67743274  0.01854897  0.94990733  1
  O  O544  1  0.67855107  0.35275531  0.19810113  1
  O  O545  1  0.67711356  0.35151643  0.44852898  1
  O  O546  1  0.67708474  0.35287849  0.70135758  1
  O  O547  1  0.67713780  0.35407183  0.95107217  1
  O  O548  1  0.67715436  0.68581494  0.19781381  1
  O  O549  1  0.67666105  0.68443433  0.44900942  1
  O  O550  1  0.67663888  0.68723589  0.69963942  1
  O  O551  1  0.67588905  0.68618124  0.95102907  1
  O  O552  1  0.32279636  0.31539902  0.05109282  1
  O  O553  1  0.32352579  0.31250579  0.29993471  1
  O  O554  1  0.32334804  0.31603235  0.55044400  1
  O  O555  1  0.32320543  0.31497829  0.80116186  1
  O  O556  1  0.32249834  0.64549722  0.05018759  1
  O  O557  1  0.32201918  0.64696294  0.30089554  1
  O  O558  1  0.32275056  0.64918973  0.55075536  1
  O  O559  1  0.32226282  0.64715297  0.80142367  1
  O  O560  1  0.32227366  0.98125517  0.05087834  1
  O  O561  1  0.32318638  0.97919121  0.30064070  1
  O  O562  1  0.32156022  0.98112775  0.55089134  1
  O  O563  1  0.32330813  0.97980493  0.79902667  1
  O  O564  1  0.82205682  0.31357701  0.05269298  1
  O  O565  1  0.82265459  0.31335323  0.30108310  1
  O  O566  1  0.82435335  0.31295083  0.54951779  1
  O  O567  1  0.82462393  0.31340280  0.80097638  1
  O  O568  1  0.82247610  0.64687448  0.05107163  1
  O  O569  1  0.82301701  0.64813386  0.29985191  1
  O  O570  1  0.82461936  0.64596794  0.54974148  1
  O  O571  1  0.82291467  0.64616055  0.80098220  1
  O  O572  1  0.82313150  0.97909132  0.05106214  1
  O  O573  1  0.82332398  0.97972495  0.29894545  1
  O  O574  1  0.82327271  0.97838945  0.54998942  1
  O  O575  1  0.82329445  0.98092581  0.80124418  1
  O  O576  1  0.42642632  0.14830863  0.17551428  1
  O  O577  1  0.42579947  0.14728117  0.42571099  1
  O  O578  1  0.42724095  0.14750105  0.67763771  1
  O  O579  1  0.42755334  0.14798057  0.92613545  1
  O  O580  1  0.42699923  0.48119474  0.17653729  1
  O  O581  1  0.42679042  0.48096960  0.42639619  1
  O  O582  1  0.42746389  0.48045389  0.67722334  1
  O  O583  1  0.42633544  0.47990372  0.92378064  1
  O  O584  1  0.42592660  0.81422389  0.17475735  1
  O  O585  1  0.42627376  0.81324878  0.42492873  1
  O  O586  1  0.42590184  0.81328261  0.67464243  1
  O  O587  1  0.42643082  0.81515316  0.92583870  1
  O  O588  1  0.92856141  0.14675919  0.17757327  1
  O  O589  1  0.92737995  0.14556505  0.42450831  1
  O  O590  1  0.92718145  0.14565529  0.67467246  1
  O  O591  1  0.92763443  0.14722777  0.92709201  1
  O  O592  1  0.92744328  0.47835319  0.17574244  1
  O  O593  1  0.92815630  0.47918939  0.42599592  1
  O  O594  1  0.92795124  0.47949538  0.67605498  1
  O  O595  1  0.92640940  0.47949594  0.92499100  1
  O  O596  1  0.92713940  0.81499803  0.17518209  1
  O  O597  1  0.92619764  0.81360553  0.42427179  1
  O  O598  1  0.92612007  0.81343074  0.67429433  1
  O  O599  1  0.92685916  0.81508778  0.92545954  1
  O  O600  1  0.07303271  0.18469528  0.07521181  1
  O  O601  1  0.07149723  0.18554435  0.32352532  1
  O  O602  1  0.07374385  0.18739646  0.57482671  1
  O  O603  1  0.07356551  0.18713888  0.82408545  1
  O  O604  1  0.07381488  0.51933799  0.07504730  1
  O  O605  1  0.07398970  0.51909500  0.32502571  1
  O  O606  1  0.07338915  0.51803053  0.57376161  1
  O  O607  1  0.07305492  0.51849009  0.82365700  1
  O  O608  1  0.07251133  0.85364604  0.07319358  1
  O  O609  1  0.07211141  0.85312507  0.32330928  1
  O  O610  1  0.07287629  0.85440498  0.57442753  1
  O  O611  1  0.07348950  0.85502260  0.82408050  1
  O  O612  1  0.57306593  0.18573051  0.07360332  1
  O  O613  1  0.57286774  0.18544865  0.32393204  1
  O  O614  1  0.57370761  0.18680762  0.57648225  1
  O  O615  1  0.57260711  0.18606614  0.82410946  1
  O  O616  1  0.57340422  0.51969811  0.07534067  1
  O  O617  1  0.57305393  0.51806855  0.32357477  1
  O  O618  1  0.57358215  0.51800922  0.57447294  1
  O  O619  1  0.57298143  0.51892929  0.82432898  1
  O  O620  1  0.57112853  0.85348207  0.07279705  1
  O  O621  1  0.57388919  0.85330665  0.32442927  1
  O  O622  1  0.57368798  0.85399839  0.57622683  1
  O  O623  1  0.57281690  0.85504627  0.82578958  1
  O  O624  1  0.32308123  0.18837072  0.04970463  1
  O  O625  1  0.32226907  0.18535523  0.30070453  1
  O  O626  1  0.32397141  0.18891810  0.55068020  1
  O  O627  1  0.32251958  0.18787436  0.80013499  1
  O  O628  1  0.32315103  0.51862132  0.05014498  1
  O  O629  1  0.32195897  0.51956224  0.30213080  1
  O  O630  1  0.32329595  0.52229395  0.55019792  1
  O  O631  1  0.32107395  0.51975637  0.80126533  1
  O  O632  1  0.32233541  0.85389972  0.05026122  1
  O  O633  1  0.32270193  0.85219547  0.30057534  1
  O  O634  1  0.32218711  0.85365916  0.55134820  1
  O  O635  1  0.32368699  0.85308539  0.79889776  1
  O  O636  1  0.82248892  0.18604360  0.05236725  1
  O  O637  1  0.82209496  0.18610668  0.30130783  1
  O  O638  1  0.82453111  0.18619270  0.54929866  1
  O  O639  1  0.82500755  0.18647809  0.80080576  1
  O  O640  1  0.82308778  0.51958780  0.05218543  1
  O  O641  1  0.82393003  0.52108895  0.29905397  1
  O  O642  1  0.82393773  0.51913006  0.54886091  1
  O  O643  1  0.82348662  0.51889884  0.80169025  1
  O  O644  1  0.82237049  0.85196787  0.05079522  1
  O  O645  1  0.82364331  0.85280239  0.29921782  1
  O  O646  1  0.82285518  0.85104065  0.55077526  1
  O  O647  1  0.82308664  0.85385850  0.80095871  1
  O  O648  1  0.17646351  0.14563386  0.19967727  1
  O  O649  1  0.17727986  0.14910587  0.44934267  1
  O  O650  1  0.17657416  0.14645111  0.69949442  1
  O  O651  1  0.17640899  0.14715156  0.95085493  1
  O  O652  1  0.17739323  0.48016854  0.19806033  1
  O  O653  1  0.17776284  0.48228350  0.44927423  1
  O  O654  1  0.17713579  0.47940093  0.69982211  1
  O  O655  1  0.17802749  0.48019328  0.94767460  1
  O  O656  1  0.17544716  0.81272107  0.20038057  1
  O  O657  1  0.17723864  0.81449400  0.44877349  1
  O  O658  1  0.17683696  0.81314877  0.69839978  1
  O  O659  1  0.17661569  0.81227499  0.94902774  1
  O  O660  1  0.67723986  0.14880094  0.19911187  1
  O  O661  1  0.67695026  0.14773324  0.44932999  1
  O  O662  1  0.67734849  0.14674211  0.70128510  1
  O  O663  1  0.67738826  0.14572082  0.95015302  1
  O  O664  1  0.67785270  0.48008710  0.19959161  1
  O  O665  1  0.67730550  0.47859870  0.44879299  1
  O  O666  1  0.67673473  0.47973131  0.70000884  1
  O  O667  1  0.67682754  0.48114760  0.95024577  1
  O  O668  1  0.67754559  0.81329290  0.19867954  1
  O  O669  1  0.67635858  0.81155378  0.44899980  1
  O  O670  1  0.67678429  0.81464314  0.69922544  1
  O  O671  1  0.67566502  0.81290820  0.95090004  1
