# generated using pymatgen
data_Na2MnFe(PO4)2
_symmetry_space_group_name_H-M   'P 1'
_cell_length_a   22.34519936
_cell_length_b   20.09875636
_cell_length_c   19.44760544
_cell_angle_alpha   90.01210658
_cell_angle_beta   90.02034965
_cell_angle_gamma   89.97076912
_symmetry_Int_Tables_number   1
_chemical_formula_structural   Na2MnFe(PO4)2
_chemical_formula_sum   'Na96 Mn48 Fe48 P96 O384'
_cell_volume   8734.12615393
_cell_formula_units_Z   48
loop_
 _symmetry_equiv_pos_site_id
 _symmetry_equiv_pos_as_xyz
  1  'x, y, z'
loop_
 _atom_site_type_symbol
 _atom_site_label
 _atom_site_symmetry_multiplicity
 _atom_site_fract_x
 _atom_site_fract_y
 _atom_site_fract_z
 _atom_site_occupancy
  Na  Na0  1  0.13925633  0.24925596  0.24284045  1
  Na  Na1  1  0.13970044  0.24965595  0.49303422  1
  Na  Na2  1  0.14075381  0.24984353  0.74311110  1
  Na  Na3  1  0.14030125  0.24875930  0.99354860  1
  Na  Na4  1  0.13958211  0.58331309  0.24289969  1
  Na  Na5  1  0.14003253  0.58337906  0.49117244  1
  Na  Na6  1  0.14001409  0.58331166  0.74334440  1
  Na  Na7  1  0.13989197  0.58265133  0.99278179  1
  Na  Na8  1  0.14093299  0.91561866  0.24347807  1
  Na  Na9  1  0.14008797  0.91596536  0.49316262  1
  Na  Na10  1  0.13970696  0.91781506  0.74195617  1
  Na  Na11  1  0.14043263  0.91655707  0.99260788  1
  Na  Na12  1  0.63987462  0.24988707  0.24515841  1
  Na  Na13  1  0.64056959  0.25070804  0.49358723  1
  Na  Na14  1  0.64097745  0.25126371  0.74418336  1
  Na  Na15  1  0.64070882  0.24937304  0.99554993  1
  Na  Na16  1  0.64074630  0.58263473  0.24552800  1
  Na  Na17  1  0.64014849  0.58361648  0.49437747  1
  Na  Na18  1  0.63988128  0.58472063  0.74396854  1
  Na  Na19  1  0.64031892  0.58383158  0.99445073  1
  Na  Na20  1  0.64111169  0.91532835  0.24488442  1
  Na  Na21  1  0.64022155  0.91728182  0.49446928  1
  Na  Na22  1  0.64028053  0.91826415  0.74389286  1
  Na  Na23  1  0.64051989  0.91644850  0.99331499  1
  Na  Na24  1  0.35975859  0.08257889  0.00619309  1
  Na  Na25  1  0.35937774  0.08367261  0.25580811  1
  Na  Na26  1  0.35876833  0.08362149  0.50766420  1
  Na  Na27  1  0.35913145  0.08365968  0.75607710  1
  Na  Na28  1  0.35902514  0.41678140  0.00543411  1
  Na  Na29  1  0.35889329  0.41693286  0.25643459  1
  Na  Na30  1  0.35879552  0.41597196  0.50613004  1
  Na  Na31  1  0.35873038  0.41742689  0.75647683  1
  Na  Na32  1  0.35906208  0.75039098  0.00478049  1
  Na  Na33  1  0.35892702  0.74978417  0.25620161  1
  Na  Na34  1  0.36002733  0.75078948  0.50718307  1
  Na  Na35  1  0.35920157  0.75101878  0.75625507  1
  Na  Na36  1  0.86097306  0.08253271  0.00647547  1
  Na  Na37  1  0.86035831  0.08345270  0.25735807  1
  Na  Na38  1  0.86013545  0.08361040  0.50600065  1
  Na  Na39  1  0.86073368  0.08390726  0.75598932  1
  Na  Na40  1  0.85995151  0.41768857  0.00710353  1
  Na  Na41  1  0.86038841  0.41556595  0.25840849  1
  Na  Na42  1  0.86024555  0.41559889  0.50617607  1
  Na  Na43  1  0.85994739  0.41820415  0.75524627  1
  Na  Na44  1  0.85994446  0.74902685  0.00577176  1
  Na  Na45  1  0.86032813  0.74782176  0.25662346  1
  Na  Na46  1  0.86072714  0.74971265  0.50640276  1
  Na  Na47  1  0.86051235  0.75114137  0.75644138  1
  Na  Na48  1  0.10981373  0.08346283  0.11804083  1
  Na  Na49  1  0.10960457  0.08379429  0.36886449  1
  Na  Na50  1  0.10962596  0.08217359  0.61674779  1
  Na  Na51  1  0.11025497  0.08180875  0.86823068  1
  Na  Na52  1  0.10901928  0.41645928  0.11827469  1
  Na  Na53  1  0.10887692  0.41576010  0.36790979  1
  Na  Na54  1  0.10967673  0.41573944  0.61699445  1
  Na  Na55  1  0.10981057  0.41663650  0.86845178  1
  Na  Na56  1  0.10959952  0.74846900  0.11814820  1
  Na  Na57  1  0.11046462  0.74915905  0.36786744  1
  Na  Na58  1  0.10922099  0.75046889  0.61684875  1
  Na  Na59  1  0.10924603  0.74971413  0.86797057  1
  Na  Na60  1  0.60963878  0.08392340  0.11983644  1
  Na  Na61  1  0.60921023  0.08443679  0.36933640  1
  Na  Na62  1  0.60987249  0.08319478  0.61939290  1
  Na  Na63  1  0.61014264  0.08205772  0.86870861  1
  Na  Na64  1  0.60951408  0.41601013  0.12123498  1
  Na  Na65  1  0.60958417  0.41616742  0.36902523  1
  Na  Na66  1  0.60956822  0.41888212  0.61886548  1
  Na  Na67  1  0.60941997  0.41801407  0.86884085  1
  Na  Na68  1  0.60990369  0.75045734  0.11896616  1
  Na  Na69  1  0.60997696  0.75057771  0.37011462  1
  Na  Na70  1  0.60933750  0.75031812  0.61997342  1
  Na  Na71  1  0.60919075  0.74989857  0.86839498  1
  Na  Na72  1  0.38994736  0.24972559  0.13155292  1
  Na  Na73  1  0.38923364  0.25037360  0.38116870  1
  Na  Na74  1  0.38955223  0.25060848  0.63232537  1
  Na  Na75  1  0.39027726  0.24956907  0.88087809  1
  Na  Na76  1  0.38951163  0.58360124  0.13057564  1
  Na  Na77  1  0.38999799  0.58493022  0.38151344  1
  Na  Na78  1  0.39017237  0.58501053  0.63161041  1
  Na  Na79  1  0.38909339  0.58378953  0.88042966  1
  Na  Na80  1  0.39009527  0.91829514  0.13093132  1
  Na  Na81  1  0.39000457  0.91611659  0.38204803  1
  Na  Na82  1  0.38976967  0.91586796  0.63209031  1
  Na  Na83  1  0.38985389  0.91707125  0.87976827  1
  Na  Na84  1  0.89128204  0.25031802  0.13266739  1
  Na  Na85  1  0.89057193  0.24973012  0.38268757  1
  Na  Na86  1  0.89041207  0.24900848  0.63026118  1
  Na  Na87  1  0.89116828  0.24980053  0.88141157  1
  Na  Na88  1  0.89095501  0.58253451  0.13176597  1
  Na  Na89  1  0.89134781  0.58260379  0.38212321  1
  Na  Na90  1  0.89065371  0.58363505  0.63014391  1
  Na  Na91  1  0.89052670  0.58359532  0.88214871  1
  Na  Na92  1  0.89119073  0.91699349  0.13119309  1
  Na  Na93  1  0.89143684  0.91602519  0.38214930  1
  Na  Na94  1  0.89110280  0.91685437  0.63050477  1
  Na  Na95  1  0.89115048  0.91709417  0.88131680  1
  Mn  Mn96  1  0.75086136  0.83150713  0.12420854  1
  Mn  Mn97  1  0.75047268  0.33296858  0.12612497  1
  Mn  Mn98  1  0.00132760  0.16522190  0.74978983  1
  Mn  Mn99  1  0.49889877  0.50149739  0.49976979  1
  Mn  Mn100  1  0.75100220  0.00156515  0.62389831  1
  Mn  Mn101  1  0.24974761  0.16637254  0.87422452  1
  Mn  Mn102  1  0.24913649  0.33281768  0.12432736  1
  Mn  Mn103  1  0.24941578  0.66740026  0.62431087  1
  Mn  Mn104  1  0.24943583  0.49979431  0.37423820  1
  Mn  Mn105  1  0.74978869  0.50015894  0.12613002  1
  Mn  Mn106  1  0.75001742  0.66661687  0.62513922  1
  Mn  Mn107  1  0.50068390  0.16568153  0.75092976  1
  Mn  Mn108  1  0.75127736  0.16630993  0.87494217  1
  Mn  Mn109  1  0.24963017  0.83259455  0.12410795  1
  Mn  Mn110  1  0.24940607  0.83416223  0.87509565  1
  Mn  Mn111  1  0.49904999  -0.00064515  0.49994308  1
  Mn  Mn112  1  0.75043312  0.33430213  0.87466789  1
  Mn  Mn113  1  0.75052070  0.83424775  0.62602508  1
  Mn  Mn114  1  0.00083017  0.00080517  0.25035609  1
  Mn  Mn115  1  -0.00004304  0.33288005  0.74983127  1
  Mn  Mn116  1  0.75078613  0.16604258  0.12530236  1
  Mn  Mn117  1  0.49983684  0.33331374  0.00005166  1
  Mn  Mn118  1  0.75042789  0.66614785  0.37587077  1
  Mn  Mn119  1  0.00063825  0.83244870  0.25014472  1
  Mn  Mn120  1  0.49948733  0.16698067  0.50054194  1
  Mn  Mn121  1  0.75043787  -0.00116838  0.12630559  1
  Mn  Mn122  1  0.74976754  0.50179500  0.87653264  1
  Mn  Mn123  1  0.50048240  0.00102779  0.25113223  1
  Mn  Mn124  1  0.75039107  -0.00021861  0.37525204  1
  Mn  Mn125  1  0.24938420  0.50074063  0.12481968  1
  Mn  Mn126  1  0.49924641  0.83450645  -0.00086589  1
  Mn  Mn127  1  0.74998501  0.83379830  0.87545748  1
  Mn  Mn128  1  0.49959637  0.66695372  -0.00047358  1
  Mn  Mn129  1  0.24964255  0.49945591  0.62417386  1
  Mn  Mn130  1  0.00037274  0.83289178  -0.00015519  1
  Mn  Mn131  1  0.49952692  0.50016026  0.00050068  1
  Mn  Mn132  1  0.50030620  0.33420086  0.75056625  1
  Mn  Mn133  1  0.00014739  0.33330561  0.00060461  1
  Mn  Mn134  1  0.24967056  -0.00074556  0.37529303  1
  Mn  Mn135  1  0.49982815  0.83401577  0.25008526  1
  Mn  Mn136  1  0.50000812  0.50000098  0.25104549  1
  Mn  Mn137  1  0.24914787  0.16696674  0.37537226  1
  Mn  Mn138  1  0.75014338  0.33395195  0.62500048  1
  Mn  Mn139  1  0.49946414  0.33392733  0.50066246  1
  Mn  Mn140  1  0.00051535  0.66708108  0.74934506  1
  Mn  Mn141  1  0.50047532  0.16593462  0.00043735  1
  Mn  Mn142  1  0.00030275  0.49998642  0.74886795  1
  Mn  Mn143  1  0.49994412  0.66751451  0.25048774  1
  Fe  Fe144  1  0.24906053  0.33336077  0.62517470  1
  Fe  Fe145  1  0.25066746  0.83330061  0.37489145  1
  Fe  Fe146  1  0.25021245  0.16598881  0.12419313  1
  Fe  Fe147  1  0.49965548  -0.00075194  0.74968136  1
  Fe  Fe148  1  0.25012235  0.66691626  0.37449780  1
  Fe  Fe149  1  0.00092276  -0.00028241  -0.00036317  1
  Fe  Fe150  1  0.25000142  -0.00065857  0.12480486  1
  Fe  Fe151  1  0.49894090  0.16720312  0.24991728  1
  Fe  Fe152  1  0.49945771  0.66719220  0.74987608  1
  Fe  Fe153  1  0.50043634  0.83319249  0.50146438  1
  Fe  Fe154  1  0.00010765  0.33277488  0.49912351  1
  Fe  Fe155  1  0.24892807  0.66704137  0.87426129  1
  Fe  Fe156  1  0.00004248  0.66596646  -0.00052218  1
  Fe  Fe157  1  0.24967331  0.00003225  0.62472165  1
  Fe  Fe158  1  0.24911132  0.83356775  0.62488612  1
  Fe  Fe159  1  0.00014362  0.83359411  0.74855930  1
  Fe  Fe160  1  -0.00008973  0.16630567  0.49991304  1
  Fe  Fe161  1  0.75009043  0.16739978  0.62513365  1
  Fe  Fe162  1  0.00049672  0.49967102  0.49875183  1
  Fe  Fe163  1  0.49924236  0.50105623  0.74970390  1
  Fe  Fe164  1  0.24967255  0.66644035  0.12445307  1
  Fe  Fe165  1  0.24965093  0.00033199  0.87405344  1
  Fe  Fe166  1  -0.00011049  0.66580891  0.24966631  1
  Fe  Fe167  1  -0.00019029  -0.00063960  0.74926710  1
  Fe  Fe168  1  0.50028010  0.66783282  0.50140863  1
  Fe  Fe169  1  0.24973049  0.16728124  0.62526108  1
  Fe  Fe170  1  0.75022059  0.66708777  0.87499137  1
  Fe  Fe171  1  0.75001603  0.66604766  0.12613321  1
  Fe  Fe172  1  0.00033007  0.16634302  0.00036960  1
  Fe  Fe173  1  0.75086542  0.83245035  0.37498557  1
  Fe  Fe174  1  0.50002457  0.83348522  0.75001192  1
  Fe  Fe175  1  0.50021618  -0.00008106  -0.00006529  1
  Fe  Fe176  1  0.00035483  -0.00034947  0.49965415  1
  Fe  Fe177  1  0.00007664  0.50002009  0.25009111  1
  Fe  Fe178  1  -0.00020075  0.16665232  0.25042151  1
  Fe  Fe179  1  0.75058812  0.49942014  0.37528088  1
  Fe  Fe180  1  -0.00014925  0.49957985  0.00055671  1
  Fe  Fe181  1  0.24951875  0.33264467  0.37493070  1
  Fe  Fe182  1  0.00045751  0.83295469  0.49933473  1
  Fe  Fe183  1  0.74965487  0.16672180  0.37556495  1
  Fe  Fe184  1  0.49878303  0.33313469  0.25003763  1
  Fe  Fe185  1  0.75025331  0.33304185  0.37624624  1
  Fe  Fe186  1  0.00039879  0.66637788  0.49931220  1
  Fe  Fe187  1  0.00009337  0.33313436  0.25023265  1
  Fe  Fe188  1  0.75025243  0.50023468  0.62493886  1
  Fe  Fe189  1  0.25014695  0.33314287  0.87451464  1
  Fe  Fe190  1  0.75070441  0.00045458  0.87503839  1
  Fe  Fe191  1  0.24924394  0.50009506  0.87447798  1
  P  P192  1  0.04222337  0.24858961  0.10326512  1
  P  P193  1  0.04078918  0.24967699  0.35232419  1
  P  P194  1  0.04133151  0.24952581  0.60103755  1
  P  P195  1  0.04311663  0.24919220  0.85336885  1
  P  P196  1  0.04133379  0.58285175  0.10200988  1
  P  P197  1  0.04147597  0.58298204  0.35186458  1
  P  P198  1  0.04181475  0.58321177  0.60033881  1
  P  P199  1  0.04234241  0.58306130  0.85323237  1
  P  P200  1  0.04276608  0.91751810  0.10210933  1
  P  P201  1  0.04295007  0.91651953  0.35364683  1
  P  P202  1  0.04130610  0.91635035  0.60140282  1
  P  P203  1  0.04146699  0.91636621  0.85096965  1
  P  P204  1  0.54235403  0.25014165  0.10445715  1
  P  P205  1  0.54063049  0.25013942  0.35182537  1
  P  P206  1  0.54281507  0.25038415  0.60370777  1
  P  P207  1  0.54338902  0.24983967  0.85357997  1
  P  P208  1  0.54270718  0.58363478  0.10350752  1
  P  P209  1  0.54264871  0.58451256  0.35439998  1
  P  P210  1  0.54154844  0.58528003  0.60367102  1
  P  P211  1  0.54096952  0.58383282  0.85137237  1
  P  P212  1  0.54264466  0.91823918  0.10240968  1
  P  P213  1  0.54298555  0.91646387  0.35422612  1
  P  P214  1  0.54186145  0.91556598  0.60373738  1
  P  P215  1  0.54150717  0.91692935  0.85168824  1
  P  P216  1  0.45770781  0.08428667  0.14756406  1
  P  P217  1  0.45627807  0.08410432  0.39690965  1
  P  P218  1  0.45748511  0.08192249  0.64797244  1
  P  P219  1  0.45792741  0.08135587  0.89721013  1
  P  P220  1  0.45699848  0.41592292  0.14804312  1
  P  P221  1  0.45663727  0.41656433  0.39664506  1
  P  P222  1  0.45712923  0.41866527  0.64782412  1
  P  P223  1  0.45702512  0.41747512  0.89632527  1
  P  P224  1  0.45671688  0.75076026  0.14675637  1
  P  P225  1  0.45857852  0.75068938  0.39942396  1
  P  P226  1  0.45831510  0.75050840  0.64825039  1
  P  P227  1  0.45691260  0.75038230  0.89537258  1
  P  P228  1  0.95819392  0.08492605  0.14735810  1
  P  P229  1  0.95900547  0.08335610  0.39833156  1
  P  P230  1  0.95855763  0.08158529  0.64635499  1
  P  P231  1  0.95962022  0.08291772  0.89802743  1
  P  P232  1  0.95880691  0.41689336  0.14877100  1
  P  P233  1  0.95907049  0.41617478  0.39738783  1
  P  P234  1  0.95794950  0.41602548  0.64518928  1
  P  P235  1  0.95771948  0.41768672  0.89794314  1
  P  P236  1  0.95844839  0.74809590  0.14702484  1
  P  P237  1  0.95949024  0.74902003  0.39768644  1
  P  P238  1  0.95810979  0.75122700  0.64605075  1
  P  P239  1  0.95806866  0.74900893  0.89708325  1
  P  P240  1  0.20855088  0.08286125  0.22626166  1
  P  P241  1  0.20732192  0.08304776  0.47898866  1
  P  P242  1  0.20823179  0.08337763  0.72615044  1
  P  P243  1  0.20835588  0.08172352  0.97759192  1
  P  P244  1  0.20666677  0.41646126  0.22782230  1
  P  P245  1  0.20736583  0.41481916  0.47706015  1
  P  P246  1  0.20746127  0.41571087  0.72777473  1
  P  P247  1  0.20851462  0.41623248  0.97602210  1
  P  P248  1  0.20767723  0.74832529  0.22754029  1
  P  P249  1  0.20892956  0.75057324  0.47642175  1
  P  P250  1  0.20709804  0.75143822  0.72726534  1
  P  P251  1  0.20722717  0.74861213  0.97708512  1
  P  P252  1  0.70769649  0.08332541  0.22932333  1
  P  P253  1  0.70772417  0.08494127  0.47781887  1
  P  P254  1  0.70842751  0.08493833  0.72755703  1
  P  P255  1  0.70832241  0.08196703  0.97777477  1
  P  P256  1  0.70788828  0.41622305  0.23023170  1
  P  P257  1  0.70858767  0.41710968  0.47717288  1
  P  P258  1  0.70763062  0.41894964  0.72752048  1
  P  P259  1  0.70702604  0.41681703  0.97882719  1
  P  P260  1  0.70817993  0.74849023  0.22835927  1
  P  P261  1  0.70821509  0.75117572  0.47801259  1
  P  P262  1  0.70764022  0.75035720  0.72901835  1
  P  P263  1  0.70749766  0.74828201  0.97773008  1
  P  P264  1  0.29211791  0.24863950  0.02179566  1
  P  P265  1  0.29119741  0.25049320  0.27205981  1
  P  P266  1  0.29082832  0.25067274  0.52349645  1
  P  P267  1  0.29193055  0.25128161  0.77169444  1
  P  P268  1  0.29136451  0.58471121  0.02108100  1
  P  P269  1  0.29184764  0.58478198  0.27204607  1
  P  P270  1  0.29204676  0.58365246  0.52105700  1
  P  P271  1  0.29030702  0.58373521  0.77292806  1
  P  P272  1  0.29193413  0.91770233  0.02188635  1
  P  P273  1  0.29217048  0.91538218  0.27213566  1
  P  P274  1  0.29109227  0.91624147  0.52336000  1
  P  P275  1  0.29099138  0.91822943  0.77128297  1
  P  P276  1  0.79393012  0.24977267  0.02237501  1
  P  P277  1  0.79187020  0.24977090  0.27452658  1
  P  P278  1  0.79192879  0.24899081  0.52195629  1
  P  P279  1  0.79365851  0.25044535  0.77143738  1
  P  P280  1  0.79223853  0.58499133  0.02319472  1
  P  P281  1  0.79294575  0.58188948  0.27322201  1
  P  P282  1  0.79231174  0.58161476  0.52223809  1
  P  P283  1  0.79271794  0.58480378  0.77256301  1
  P  P284  1  0.79331738  0.91648673  0.02158692  1
  P  P285  1  0.79333592  0.91445732  0.27297390  1
  P  P286  1  0.79316485  0.91632121  0.52122387  1
  P  P287  1  0.79279617  0.91862563  0.77276324  1
  O  O288  1  0.03691815  0.24869706  0.18317296  1
  O  O289  1  0.03569662  0.25005429  0.43222773  1
  O  O290  1  0.03688851  0.24937987  0.68104419  1
  O  O291  1  0.03787828  0.24884345  0.93331624  1
  O  O292  1  0.03604105  0.58317619  0.18192429  1
  O  O293  1  0.03629668  0.58297441  0.43173550  1
  O  O294  1  0.03736973  0.58336458  0.68034789  1
  O  O295  1  0.03699644  0.58303590  0.93313109  1
  O  O296  1  0.03794056  0.91746789  0.18204152  1
  O  O297  1  0.03752234  0.91645676  0.43352665  1
  O  O298  1  0.03605266  0.91615837  0.68130413  1
  O  O299  1  0.03666670  0.91640957  0.93095198  1
  O  O300  1  0.53656979  0.25019664  0.18438774  1
  O  O301  1  0.53603336  0.25029008  0.43187700  1
  O  O302  1  0.53822026  0.25039038  0.68370139  1
  O  O303  1  0.53817384  0.24964445  0.93355624  1
  O  O304  1  0.53781892  0.58357697  0.18351578  1
  O  O305  1  0.53723919  0.58511597  0.43436368  1
  O  O306  1  0.53590299  0.58490905  0.68355523  1
  O  O307  1  0.53616774  0.58375435  0.93137622  1
  O  O308  1  0.53788729  0.91790850  0.18242749  1
  O  O309  1  0.53774755  0.91581512  0.43418858  1
  O  O310  1  0.53640832  0.91582853  0.68364685  1
  O  O311  1  0.53644816  0.91754877  0.93167360  1
  O  O312  1  0.46307086  0.08352129  0.06765326  1
  O  O313  1  0.46153539  0.08484608  0.31694652  1
  O  O314  1  0.46220086  0.08232420  0.56797071  1
  O  O315  1  0.46311651  0.08110460  0.81724447  1
  O  O316  1  0.46200737  0.41610558  0.06802673  1
  O  O317  1  0.46200991  0.41581301  0.31670653  1
  O  O318  1  0.46196916  0.41843217  0.56780109  1
  O  O319  1  0.46240600  0.41816304  0.81636113  1
  O  O320  1  0.46147676  0.75078181  0.06673085  1
  O  O321  1  0.46335984  0.75069412  0.31942736  1
  O  O322  1  0.46383405  0.75048798  0.56834088  1
  O  O323  1  0.46242379  0.75036581  0.81546448  1
  O  O324  1  0.96344612  0.08501260  0.06752007  1
  O  O325  1  0.96386722  0.08432858  0.31840491  1
  O  O326  1  0.96379619  0.08171492  0.56649605  1
  O  O327  1  0.96440568  0.08221361  0.81801979  1
  O  O328  1  0.96352613  0.41700883  0.06878471  1
  O  O329  1  0.96395318  0.41647433  0.31748434  1
  O  O330  1  0.96336911  0.41571125  0.56529278  1
  O  O331  1  0.96262976  0.41731599  0.81795242  1
  O  O332  1  0.96393037  0.74816988  0.06709867  1
  O  O333  1  0.96414608  0.74844911  0.31769977  1
  O  O334  1  0.96355014  0.75090691  0.56618474  1
  O  O335  1  0.96307274  0.74949266  0.81714905  1
  O  O336  1  0.21386522  0.08178766  0.05746167  1
  O  O337  1  0.21323492  0.08313930  0.30632219  1
  O  O338  1  0.21268394  0.08313482  0.55883771  1
  O  O339  1  0.21290128  0.08336121  0.80617874  1
  O  O340  1  0.21327770  0.41676313  0.05602101  1
  O  O341  1  0.21183047  0.41622113  0.30773917  1
  O  O342  1  0.21249026  0.41490932  0.55704761  1
  O  O343  1  0.21297949  0.41592164  0.80764224  1
  O  O344  1  0.21265101  0.74852963  0.05698993  1
  O  O345  1  0.21334349  0.74861779  0.30739679  1
  O  O346  1  0.21354397  0.75099946  0.55645146  1
  O  O347  1  0.21213471  0.75087300  0.80721124  1
  O  O348  1  0.71329872  0.08190794  0.05778473  1
  O  O349  1  0.71280206  0.08387257  0.30929737  1
  O  O350  1  0.71308667  0.08543379  0.55776897  1
  O  O351  1  0.71385891  0.08377673  0.80749049  1
  O  O352  1  0.71216830  0.41666966  0.05884025  1
  O  O353  1  0.71337182  0.41626994  0.31015827  1
  O  O354  1  0.71360807  0.41744084  0.55717588  1
  O  O355  1  0.71261822  0.41874495  0.80749641  1
  O  O356  1  0.71267737  0.74796858  0.05773612  1
  O  O357  1  0.71359624  0.74951048  0.30831934  1
  O  O358  1  0.71336624  0.75097825  0.55796066  1
  O  O359  1  0.71275865  0.74988392  0.80896295  1
  O  O360  1  0.28622403  0.24959552  0.19212841  1
  O  O361  1  0.28615019  0.25058534  0.44346856  1
  O  O362  1  0.28638512  0.25117219  0.69183473  1
  O  O363  1  0.28701576  0.24916896  0.94183738  1
  O  O364  1  0.28677096  0.58473826  0.19205622  1
  O  O365  1  0.28689538  0.58411378  0.44111102  1
  O  O366  1  0.28558115  0.58336054  0.69292649  1
  O  O367  1  0.28562987  0.58442915  0.94120471  1
  O  O368  1  0.28681886  0.91579359  0.19220603  1
  O  O369  1  0.28646214  0.91552344  0.44333269  1
  O  O370  1  0.28546642  0.91778748  0.69142396  1
  O  O371  1  0.28661574  0.91796658  0.94192408  1
  O  O372  1  0.78745022  0.24974957  0.19448165  1
  O  O373  1  0.78613565  0.24916730  0.44208426  1
  O  O374  1  0.78811026  0.25012534  0.69147785  1
  O  O375  1  0.78915203  0.24990891  0.94237938  1
  O  O376  1  0.78780386  0.58256085  0.19330058  1
  O  O377  1  0.78711055  0.58139035  0.44230712  1
  O  O378  1  0.78761746  0.58402078  0.69258863  1
  O  O379  1  0.78716532  0.58530001  0.94320000  1
  O  O380  1  0.78812973  0.91446648  0.19295679  1
  O  O381  1  0.78798694  0.91553508  0.44129173  1
  O  O382  1  0.78775784  0.91862669  0.69276972  1
  O  O383  1  0.78804380  0.91735074  0.94162297  1
  O  O384  1  0.22783349  0.24800779  0.05746593  1
  O  O385  1  0.22688964  0.25119043  0.30772620  1
  O  O386  1  0.22656457  0.25083675  0.55910937  1
  O  O387  1  0.22785335  0.25145088  0.80793604  1
  O  O388  1  0.22729561  0.58514296  0.05753395  1
  O  O389  1  0.22757050  0.58480124  0.30759352  1
  O  O390  1  0.22769719  0.58338229  0.55629855  1
  O  O391  1  0.22617102  0.58406662  0.80868780  1
  O  O392  1  0.22771936  0.91754447  0.05772475  1
  O  O393  1  0.22796723  0.91470573  0.30803144  1
  O  O394  1  0.22680645  0.91693354  0.55895772  1
  O  O395  1  0.22696307  0.91845125  0.80763778  1
  O  O396  1  0.72935160  0.24977634  0.05709311  1
  O  O397  1  0.72750343  0.25017776  0.30987599  1
  O  O398  1  0.72795422  0.24893053  0.55850618  1
  O  O399  1  0.72936758  0.25026134  0.80689417  1
  O  O400  1  0.72791798  0.58484601  0.05878446  1
  O  O401  1  0.72864450  0.58176334  0.30877265  1
  O  O402  1  0.72808655  0.58187142  0.55804454  1
  O  O403  1  0.72830790  0.58565653  0.80811047  1
  O  O404  1  0.72896626  0.91592957  0.05686066  1
  O  O405  1  0.72898971  0.91461171  0.30838667  1
  O  O406  1  0.72889905  0.91718652  0.55665111  1
  O  O407  1  0.72843688  0.91877500  0.80817531  1
  O  O408  1  0.27271379  0.08274262  0.19047940  1
  O  O409  1  0.27144744  0.08317671  0.44312671  1
  O  O410  1  0.27241595  0.08300586  0.69045248  1
  O  O411  1  0.27233631  0.08160041  0.94108028  1
  O  O412  1  0.27098591  0.41655892  0.19253340  1
  O  O413  1  0.27157665  0.41496311  0.44129755  1
  O  O414  1  0.27158321  0.41531140  0.69156438  1
  O  O415  1  0.27260588  0.41594879  0.94014578  1
  O  O416  1  0.27170282  0.74815122  0.19107351  1
  O  O417  1  0.27312598  0.75059727  0.44060477  1
  O  O418  1  0.27142838  0.75159369  0.69176630  1
  O  O419  1  0.27134479  0.74884858  0.94104219  1
  O  O420  1  0.77215033  0.08283963  0.19427318  1
  O  O421  1  0.77200898  0.08474054  0.44221031  1
  O  O422  1  0.77267338  0.08574489  0.69170002  1
  O  O423  1  0.77278520  0.08160370  0.94251852  1
  O  O424  1  0.77207620  0.41657278  0.19441555  1
  O  O425  1  0.77279895  0.41653722  0.44128916  1
  O  O426  1  0.77200758  0.41860217  0.69212371  1
  O  O427  1  0.77152583  0.41738376  0.94390654  1
  O  O428  1  0.77247096  0.74774159  0.19261615  1
  O  O429  1  0.77255921  0.75096790  0.44251265  1
  O  O430  1  0.77198635  0.75012399  0.69377050  1
  O  O431  1  0.77182815  0.74860594  0.94213433  1
  O  O432  1  0.02245770  0.08532395  0.18333598  1
  O  O433  1  0.02310636  0.08251484  0.43428690  1
  O  O434  1  0.02272894  0.08063420  0.68247219  1
  O  O435  1  0.02371552  0.08339880  0.93406163  1
  O  O436  1  0.02296032  0.41703907  0.18459122  1
  O  O437  1  0.02309163  0.41540692  0.43367120  1
  O  O438  1  0.02214826  0.41590868  0.68109856  1
  O  O439  1  0.02207239  0.41809382  0.93347036  1
  O  O440  1  0.02259062  0.74772306  0.18307895  1
  O  O441  1  0.02364396  0.74895978  0.43347484  1
  O  O442  1  0.02224989  0.75163642  0.68223302  1
  O  O443  1  0.02229473  0.74865259  0.93287505  1
  O  O444  1  0.52187162  0.08528561  0.18358195  1
  O  O445  1  0.52068537  0.08343191  0.43210110  1
  O  O446  1  0.52195047  0.08153290  0.68308433  1
  O  O447  1  0.52222012  0.08132808  0.93292434  1
  O  O448  1  0.52131725  0.41556793  0.18350646  1
  O  O449  1  0.52093435  0.41726571  0.43211060  1
  O  O450  1  0.52158625  0.41923034  0.68294741  1
  O  O451  1  0.52135491  0.41712988  0.93172556  1
  O  O452  1  0.52132355  0.75071171  0.18142728  1
  O  O453  1  0.52283345  0.75079719  0.43520679  1
  O  O454  1  0.52227293  0.75036595  0.68478586  1
  O  O455  1  0.52107548  0.75067789  0.93129164  1
  O  O456  1  0.47822447  0.24969460  0.06845111  1
  O  O457  1  0.47636540  0.24985564  0.31616954  1
  O  O458  1  0.47811405  0.25044256  0.56927872  1
  O  O459  1  0.47896082  0.24982050  0.81850509  1
  O  O460  1  0.47814182  0.58379076  0.06870328  1
  O  O461  1  0.47834386  0.58416151  0.31895535  1
  O  O462  1  0.47744587  0.58594554  0.56741306  1
  O  O463  1  0.47670811  0.58375118  0.81565897  1
  O  O464  1  0.47811628  0.91861996  0.06725766  1
  O  O465  1  0.47857978  0.91712100  0.31901681  1
  O  O466  1  0.47768882  0.91496093  0.56760436  1
  O  O467  1  0.47733073  0.91658679  0.81565759  1
  O  O468  1  0.97812979  0.24862767  0.06706252  1
  O  O469  1  0.97681894  0.24926367  0.31589799  1
  O  O470  1  0.97710987  0.25042358  0.56543703  1
  O  O471  1  0.97886865  0.24874608  0.81778387  1
  O  O472  1  0.97734335  0.58237383  0.06545525  1
  O  O473  1  0.97744460  0.58335826  0.31536859  1
  O  O474  1  0.97754804  0.58334084  0.56490427  1
  O  O475  1  0.97820134  0.58335093  0.81730965  1
  O  O476  1  0.97844605  0.91737031  0.06669423  1
  O  O477  1  0.97879810  0.91669918  0.31777267  1
  O  O478  1  0.97742134  0.91695666  0.56478751  1
  O  O479  1  0.97733499  0.91643478  0.81480188  1
  O  O480  1  0.07336378  0.31228615  0.07539605  1
  O  O481  1  0.07126501  0.31339221  0.32343767  1
  O  O482  1  0.07287162  0.31255275  0.57268486  1
  O  O483  1  0.07351624  0.31311383  0.82530859  1
  O  O484  1  0.07194532  0.64644108  0.07319672  1
  O  O485  1  0.07274322  0.64629789  0.32348043  1
  O  O486  1  0.07278805  0.64681382  0.57220906  1
  O  O487  1  0.07365711  0.64632513  0.82471572  1
  O  O488  1  0.07313222  0.98117044  0.07336429  1
  O  O489  1  0.07432268  0.97984960  0.32546791  1
  O  O490  1  0.07289752  0.97957726  0.57333239  1
  O  O491  1  0.07236497  0.97990357  0.82261719  1
  O  O492  1  0.57340167  0.31363259  0.07620639  1
  O  O493  1  0.57112254  0.31400515  0.32372756  1
  O  O494  1  0.57361881  0.31390484  0.57533114  1
  O  O495  1  0.57434609  0.31337403  0.82561251  1
  O  O496  1  0.57361324  0.64701551  0.07506310  1
  O  O497  1  0.57389650  0.64767366  0.32593875  1
  O  O498  1  0.57283376  0.64863507  0.57539660  1
  O  O499  1  0.57161272  0.64764473  0.82339437  1
  O  O500  1  0.57334601  0.98177143  0.07400718  1
  O  O501  1  0.57414620  0.98008687  0.32654611  1
  O  O502  1  0.57271852  0.97920946  0.57553362  1
  O  O503  1  0.57237956  0.98031473  0.82295035  1
  O  O504  1  0.42694305  0.02069349  0.17584008  1
  O  O505  1  0.42512745  0.02045833  0.42455698  1
  O  O506  1  0.42671913  0.01833056  0.67610249  1
  O  O507  1  0.42701397  0.01816538  0.92616235  1
  O  O508  1  0.42614721  0.35237434  0.17632223  1
  O  O509  1  0.42564863  0.35331716  0.42541475  1
  O  O510  1  0.42657597  0.35481563  0.67571934  1
  O  O511  1  0.42605116  0.35376436  0.92402447  1
  O  O512  1  0.42582287  0.68737947  0.17522320  1
  O  O513  1  0.42788541  0.68697451  0.42757379  1
  O  O514  1  0.42712510  0.68698580  0.67641808  1
  O  O515  1  0.42583816  0.68699569  0.92375961  1
  O  O516  1  0.92748571  0.02104373  0.17540360  1
  O  O517  1  0.92773786  0.01974791  0.42580676  1
  O  O518  1  0.92705923  0.01862508  0.67523701  1
  O  O519  1  0.92932279  0.01910703  0.92685101  1
  O  O520  1  0.92855065  0.35284109  0.17712381  1
  O  O521  1  0.92742405  0.35302568  0.42563161  1
  O  O522  1  0.92661197  0.35289788  0.67390685  1
  O  O523  1  0.92707327  0.35390947  0.92597315  1
  O  O524  1  0.92715482  0.68499664  0.17558279  1
  O  O525  1  0.92822505  0.68584133  0.42642810  1
  O  O526  1  0.92717517  0.68755291  0.67412836  1
  O  O527  1  0.92740077  0.68546588  0.92572326  1
  O  O528  1  0.17777642  0.01899062  0.19853147  1
  O  O529  1  0.17625156  0.01971951  0.45037420  1
  O  O530  1  0.17682967  0.02021141  0.69780990  1
  O  O531  1  0.17734230  0.01844786  0.94862934  1
  O  O532  1  0.17536452  0.35334613  0.19925878  1
  O  O533  1  0.17667817  0.35137496  0.44835645  1
  O  O534  1  0.17629362  0.35244610  0.69906555  1
  O  O535  1  0.17750326  0.35248013  0.94852391  1
  O  O536  1  0.17660752  0.68505353  0.19879553  1
  O  O537  1  0.17846857  0.68654482  0.44843791  1
  O  O538  1  0.17584174  0.68811242  0.69886548  1
  O  O539  1  0.17624820  0.68544667  0.94826211  1
  O  O540  1  0.67670462  0.01957639  0.20162241  1
  O  O541  1  0.67678770  0.02100009  0.45053148  1
  O  O542  1  0.67745021  0.02151996  0.69899769  1
  O  O543  1  0.67750468  0.01864950  0.94891443  1
  O  O544  1  0.67692179  0.35272105  0.20187318  1
  O  O545  1  0.67766886  0.35325843  0.44936918  1
  O  O546  1  0.67636498  0.35547969  0.69961826  1
  O  O547  1  0.67640680  0.35331013  0.95030673  1
  O  O548  1  0.67734252  0.68473207  0.20056628  1
  O  O549  1  0.67710360  0.68743475  0.45058370  1
  O  O550  1  0.67618700  0.68740839  0.70022166  1
  O  O551  1  0.67671317  0.68510253  0.94859894  1
  O  O552  1  0.32304891  0.31220494  0.04996020  1
  O  O553  1  0.32193641  0.31413768  0.30037550  1
  O  O554  1  0.32206736  0.31392698  0.55191230  1
  O  O555  1  0.32299415  0.31448403  0.80058655  1
  O  O556  1  0.32264908  0.64789325  0.04968616  1
  O  O557  1  0.32278014  0.64806210  0.30089830  1
  O  O558  1  0.32310557  0.64687654  0.54981845  1
  O  O559  1  0.32132480  0.64745806  0.80050949  1
  O  O560  1  0.32286002  0.98081433  0.05101290  1
  O  O561  1  0.32296293  0.97900954  0.30038303  1
  O  O562  1  0.32218258  0.97991962  0.55111642  1
  O  O563  1  0.32194550  0.98169951  0.79972978  1
  O  O564  1  0.82481702  0.31318503  0.05092921  1
  O  O565  1  0.82283655  0.31329068  0.30281739  1
  O  O566  1  0.82318583  0.31260893  0.54967486  1
  O  O567  1  0.82435943  0.31430504  0.79928596  1
  O  O568  1  0.82306868  0.64820551  0.05216581  1
  O  O569  1  0.82418914  0.64521704  0.30158105  1
  O  O570  1  0.82334167  0.64546780  0.54966483  1
  O  O571  1  0.82364222  0.64835408  0.80078502  1
  O  O572  1  0.82451682  0.97943266  0.05071154  1
  O  O573  1  0.82444320  0.97815242  0.30051769  1
  O  O574  1  0.82435460  0.98006268  0.54867067  1
  O  O575  1  0.82357098  0.98214095  0.80112613  1
  O  O576  1  0.42642487  0.14774027  0.17561197  1
  O  O577  1  0.42525816  0.14730299  0.42586751  1
  O  O578  1  0.42672483  0.14563653  0.67605170  1
  O  O579  1  0.42699926  0.14528314  0.92471195  1
  O  O580  1  0.42602363  0.47962544  0.17585489  1
  O  O581  1  0.42531472  0.48018580  0.42417520  1
  O  O582  1  0.42606167  0.48211761  0.67606551  1
  O  O583  1  0.42580009  0.48065995  0.92499734  1
  O  O584  1  0.42596047  0.81438391  0.17504306  1
  O  O585  1  0.42779771  0.81438266  0.42759564  1
  O  O586  1  0.42729351  0.81409654  0.67650957  1
  O  O587  1  0.42552224  0.81375462  0.92359074  1
  O  O588  1  0.92690602  0.14788136  0.17671253  1
  O  O589  1  0.92856402  0.14706173  0.42730187  1
  O  O590  1  0.92811954  0.14553240  0.67459297  1
  O  O591  1  0.92838005  0.14651454  0.92578428  1
  O  O592  1  0.92748825  0.48017493  0.17713847  1
  O  O593  1  0.92904095  0.48026343  0.42617812  1
  O  O594  1  0.92700151  0.47971234  0.67333840  1
  O  O595  1  0.92675949  0.48104749  0.92648953  1
  O  O596  1  0.92780739  0.81211645  0.17478942  1
  O  O597  1  0.92913900  0.81312442  0.42569277  1
  O  O598  1  0.92702022  0.81451788  0.67488215  1
  O  O599  1  0.92690026  0.81252485  0.92511957  1
  O  O600  1  0.07321934  0.18536298  0.07426510  1
  O  O601  1  0.07224515  0.18622690  0.32432471  1
  O  O602  1  0.07112275  0.18512921  0.57291241  1
  O  O603  1  0.07486653  0.18624634  0.82480700  1
  O  O604  1  0.07254118  0.51921328  0.07399273  1
  O  O605  1  0.07204330  0.51908594  0.32352219  1
  O  O606  1  0.07226639  0.51933812  0.57197591  1
  O  O607  1  0.07344204  0.51966297  0.82464664  1
  O  O608  1  0.07398850  0.85394639  0.07434297  1
  O  O609  1  0.07397003  0.85307809  0.32508400  1
  O  O610  1  0.07170026  0.85242625  0.57271976  1
  O  O611  1  0.07206810  0.85254528  0.82269672  1
  O  O612  1  0.57402328  0.18694346  0.07620490  1
  O  O613  1  0.57151773  0.18645529  0.32381448  1
  O  O614  1  0.57357594  0.18684565  0.57533477  1
  O  O615  1  0.57444044  0.18629303  0.82563946  1
  O  O616  1  0.57350501  0.51997117  0.07541131  1
  O  O617  1  0.57365455  0.52076696  0.32670596  1
  O  O618  1  0.57249920  0.52171122  0.57531266  1
  O  O619  1  0.57193860  0.52025100  0.82321319  1
  O  O620  1  0.57334964  0.85457815  0.07405871  1
  O  O621  1  0.57397564  0.85326456  0.32530335  1
  O  O622  1  0.57316478  0.85223572  0.57535346  1
  O  O623  1  0.57239294  0.85304304  0.82406605  1
  O  O624  1  0.32287855  0.18504785  0.05029374  1
  O  O625  1  0.32208443  0.18705504  0.30072423  1
  O  O626  1  0.32115546  0.18666980  0.55205869  1
  O  O627  1  0.32307216  0.18755861  0.79951047  1
  O  O628  1  0.32226369  0.52092477  0.04923218  1
  O  O629  1  0.32288696  0.52104440  0.29979553  1
  O  O630  1  0.32308844  0.52002377  0.54898811  1
  O  O631  1  0.32069327  0.51986101  0.80140430  1
  O  O632  1  0.32292004  0.85375634  0.04919027  1
  O  O633  1  0.32323683  0.85196143  0.30058462  1
  O  O634  1  0.32144943  0.85259552  0.55242278  1
  O  O635  1  0.32223913  0.85479993  0.79959565  1
  O  O636  1  0.82466261  0.18614869  0.05066411  1
  O  O637  1  0.82229785  0.18586495  0.30272208  1
  O  O638  1  0.82304965  0.18563980  0.55044409  1
  O  O639  1  0.82526667  0.18736958  0.79981128  1
  O  O640  1  0.82315962  0.52109574  0.05078292  1
  O  O641  1  0.82355384  0.51819921  0.30160554  1
  O  O642  1  0.82311306  0.51827046  0.55104715  1
  O  O643  1  0.82350116  0.52124364  0.80110704  1
  O  O644  1  0.82438334  0.85261879  0.04899377  1
  O  O645  1  0.82397822  0.85079940  0.30128571  1
  O  O646  1  0.82417747  0.85318121  0.55020821  1
  O  O647  1  0.82370916  0.85486751  0.80042033  1
  O  O648  1  0.17794762  0.14659573  0.19789812  1
  O  O649  1  0.17601030  0.14638520  0.45051231  1
  O  O650  1  0.17812081  0.14761281  0.69794350  1
  O  O651  1  0.17715575  0.14530256  0.94960401  1
  O  O652  1  0.17580824  0.48015306  0.19966744  1
  O  O653  1  0.17623619  0.47851984  0.44933898  1
  O  O654  1  0.17643952  0.47934658  0.69950521  1
  O  O655  1  0.17800063  0.48007454  0.94760127  1
  O  O656  1  0.17647205  0.81191565  0.19944546  1
  O  O657  1  0.17789150  0.81393727  0.44786698  1
  O  O658  1  0.17654824  0.81513208  0.69873482  1
  O  O659  1  0.17615638  0.81252924  0.94969753  1
  O  O660  1  0.67673942  0.14657583  0.20050896  1
  O  O661  1  0.67663779  0.14810430  0.44890255  1
  O  O662  1  0.67736385  0.14859295  0.69977602  1
  O  O663  1  0.67756493  0.14583480  0.95013019  1
  O  O664  1  0.67634345  0.47944022  0.20189274  1
  O  O665  1  0.67779987  0.48064783  0.44869472  1
  O  O666  1  0.67727113  0.48263868  0.69890643  1
  O  O667  1  0.67576644  0.48033868  0.95097745  1
  O  O668  1  0.67716001  0.81183938  0.19966544  1
  O  O669  1  0.67765762  0.81470380  0.44942654  1
  O  O670  1  0.67696278  0.81428297  0.70130819  1
  O  O671  1  0.67640768  0.81216855  0.95030809  1
