# generated using pymatgen
data_Na2MnFe(PO4)2
_symmetry_space_group_name_H-M   'P 1'
_cell_length_a   22.34284457
_cell_length_b   20.09373873
_cell_length_c   19.45105651
_cell_angle_alpha   90.04384148
_cell_angle_beta   89.97000655
_cell_angle_gamma   90.01080638
_symmetry_Int_Tables_number   1
_chemical_formula_structural   Na2MnFe(PO4)2
_chemical_formula_sum   'Na96 Mn48 Fe48 P96 O384'
_cell_volume   8732.57283341
_cell_formula_units_Z   48
loop_
 _symmetry_equiv_pos_site_id
 _symmetry_equiv_pos_as_xyz
  1  'x, y, z'
loop_
 _atom_site_type_symbol
 _atom_site_label
 _atom_site_symmetry_multiplicity
 _atom_site_fract_x
 _atom_site_fract_y
 _atom_site_fract_z
 _atom_site_occupancy
  Na  Na0  1  0.14059039  0.24853374  0.24347023  1
  Na  Na1  1  0.14043761  0.24904919  0.49340972  1
  Na  Na2  1  0.14035986  0.24812419  0.74431736  1
  Na  Na3  1  0.14092792  0.24867508  0.99281628  1
  Na  Na4  1  0.14034243  0.58347046  0.24347888  1
  Na  Na5  1  0.14067406  0.58496182  0.49351563  1
  Na  Na6  1  0.14087638  0.58412832  0.74439313  1
  Na  Na7  1  0.14077990  0.58292224  0.99383270  1
  Na  Na8  1  0.14114199  0.91737523  0.24420559  1
  Na  Na9  1  0.14042318  0.91664736  0.49522140  1
  Na  Na10  1  0.14076497  0.91559918  0.74460331  1
  Na  Na11  1  0.14095605  0.91675697  0.99415186  1
  Na  Na12  1  0.63997603  0.25018113  0.24337148  1
  Na  Na13  1  0.63957516  0.25121686  0.49222250  1
  Na  Na14  1  0.64020499  0.24888624  0.74313603  1
  Na  Na15  1  0.64073582  0.24999961  0.99303127  1
  Na  Na16  1  0.63995817  0.58234739  0.24326553  1
  Na  Na17  1  0.64079454  0.58386367  0.49346133  1
  Na  Na18  1  0.64078927  0.58360863  0.74408601  1
  Na  Na19  1  0.64018719  0.58434703  0.99247763  1
  Na  Na20  1  0.63999497  0.91630087  0.24447567  1
  Na  Na21  1  0.63948747  0.91665797  0.49476564  1
  Na  Na22  1  0.63969811  0.91581294  0.74255887  1
  Na  Na23  1  0.64100415  0.91718936  0.99269430  1
  Na  Na24  1  0.35943575  0.08217941  0.00593957  1
  Na  Na25  1  0.35948122  0.08174107  0.25603971  1
  Na  Na26  1  0.36003314  0.08133774  0.50736773  1
  Na  Na27  1  0.35943372  0.08205559  0.75742451  1
  Na  Na28  1  0.35984276  0.41519239  0.00644760  1
  Na  Na29  1  0.36005373  0.41571718  0.25592230  1
  Na  Na30  1  0.35953027  0.41753458  0.50554836  1
  Na  Na31  1  0.35947495  0.41589887  0.75588838  1
  Na  Na32  1  0.36034992  0.75056086  0.00736973  1
  Na  Na33  1  0.36036430  0.75052683  0.25790870  1
  Na  Na34  1  0.35961573  0.75139195  0.50705144  1
  Na  Na35  1  0.36001464  0.75106329  0.75623326  1
  Na  Na36  1  0.85926887  0.08472034  0.00553936  1
  Na  Na37  1  0.85954084  0.08485049  0.25578262  1
  Na  Na38  1  0.85932564  0.08453510  0.50679848  1
  Na  Na39  1  0.85848551  0.08270502  0.75617422  1
  Na  Na40  1  0.86008265  0.41755846  0.00608277  1
  Na  Na41  1  0.85937173  0.41689660  0.25556788  1
  Na  Na42  1  0.85921594  0.41784356  0.50525911  1
  Na  Na43  1  0.85881694  0.41625961  0.75619914  1
  Na  Na44  1  0.85958082  0.75164730  0.00562135  1
  Na  Na45  1  0.85977817  0.74928582  0.25601673  1
  Na  Na46  1  0.85929800  0.75100536  0.50736667  1
  Na  Na47  1  0.85905980  0.75060738  0.75739421  1
  Na  Na48  1  0.11029381  0.08383898  0.11801253  1
  Na  Na49  1  0.10991948  0.08335717  0.36906242  1
  Na  Na50  1  0.10969173  0.08307223  0.61973285  1
  Na  Na51  1  0.11040207  0.08238941  0.86817999  1
  Na  Na52  1  0.10957118  0.41699944  0.11866504  1
  Na  Na53  1  0.10961822  0.41724737  0.36792766  1
  Na  Na54  1  0.10963968  0.41597367  0.61909469  1
  Na  Na55  1  0.10967827  0.41526074  0.86940270  1
  Na  Na56  1  0.10993735  0.74950090  0.11928713  1
  Na  Na57  1  0.10973082  0.75009023  0.36891938  1
  Na  Na58  1  0.11019848  0.75104701  0.61917902  1
  Na  Na59  1  0.11034307  0.75115977  0.86926951  1
  Na  Na60  1  0.60994344  0.08260258  0.11825308  1
  Na  Na61  1  0.60901354  0.08289626  0.36955294  1
  Na  Na62  1  0.60862396  0.08247401  0.61803078  1
  Na  Na63  1  0.61001358  0.08238854  0.86756365  1
  Na  Na64  1  0.60960040  0.41583285  0.11802015  1
  Na  Na65  1  0.60998139  0.41684943  0.36768395  1
  Na  Na66  1  0.60955806  0.41631657  0.61709948  1
  Na  Na67  1  0.60966739  0.41731741  0.86859350  1
  Na  Na68  1  0.60928395  0.74899175  0.11908936  1
  Na  Na69  1  0.60935574  0.74995597  0.37022699  1
  Na  Na70  1  0.61007196  0.75141723  0.61831731  1
  Na  Na71  1  0.61006227  0.75018284  0.86780652  1
  Na  Na72  1  0.39045903  0.24833108  0.13004477  1
  Na  Na73  1  0.39102997  0.24917215  0.38122305  1
  Na  Na74  1  0.39044619  0.24876047  0.63090238  1
  Na  Na75  1  0.38995394  0.24976168  0.88204329  1
  Na  Na76  1  0.39132752  0.58292049  0.13126305  1
  Na  Na77  1  0.39046768  0.58377883  0.38169125  1
  Na  Na78  1  0.39044108  0.58489031  0.63027747  1
  Na  Na79  1  0.39084120  0.58339004  0.88135133  1
  Na  Na80  1  0.39003058  0.91535333  0.13259981  1
  Na  Na81  1  0.39000849  0.91569845  0.38300038  1
  Na  Na82  1  0.38952548  0.91623725  0.63247212  1
  Na  Na83  1  0.38991376  0.91628928  0.88211467  1
  Na  Na84  1  0.89021635  0.25227391  0.13117582  1
  Na  Na85  1  0.88997544  0.25067989  0.38034266  1
  Na  Na86  1  0.88972884  0.25025787  0.63044542  1
  Na  Na87  1  0.89021163  0.25034359  0.88137311  1
  Na  Na88  1  0.89074862  0.58317781  0.13023056  1
  Na  Na89  1  0.89010222  0.58321785  0.38051013  1
  Na  Na90  1  0.89001048  0.58472390  0.63215877  1
  Na  Na91  1  0.89021131  0.58368197  0.88189664  1
  Na  Na92  1  0.89019262  0.91709718  0.13063980  1
  Na  Na93  1  0.89047417  0.91796505  0.38126293  1
  Na  Na94  1  0.88959141  0.91776052  0.63302225  1
  Na  Na95  1  0.88937553  0.91697575  0.88129880  1
  Mn  Mn96  1  0.50106022  0.66760340  0.75033781  1
  Mn  Mn97  1  0.25039828  0.33346182  0.37423474  1
  Mn  Mn98  1  0.25105411  0.66752513  0.12535663  1
  Mn  Mn99  1  0.00037142  0.66692062  0.00000904  1
  Mn  Mn100  1  0.24948280  0.50098585  0.62577517  1
  Mn  Mn101  1  0.25051884  0.16518666  0.62500882  1
  Mn  Mn102  1  0.24991772  0.66754196  0.37487115  1
  Mn  Mn103  1  0.74917555  0.66628751  0.37537513  1
  Mn  Mn104  1  0.74895231  0.16769804  0.37532289  1
  Mn  Mn105  1  0.25059810  0.16491013  0.37467545  1
  Mn  Mn106  1  0.25035507  0.49940316  0.12444466  1
  Mn  Mn107  1  -0.00029432  0.66705889  0.50025527  1
  Mn  Mn108  1  -0.00010932  0.00043403  0.75028615  1
  Mn  Mn109  1  -0.00042819  0.33254571  0.74931711  1
  Mn  Mn110  1  0.49963913  -0.00132039  0.25045331  1
  Mn  Mn111  1  0.74931852  0.16682389  0.62486987  1
  Mn  Mn112  1  -0.00030223  -0.00041268  -0.00051386  1
  Mn  Mn113  1  0.24990782  0.33295501  0.62462318  1
  Mn  Mn114  1  -0.00032099  0.00166801  0.50093682  1
  Mn  Mn115  1  0.74991564  0.33354091  0.87446369  1
  Mn  Mn116  1  0.50027290  0.50022228  0.49901116  1
  Mn  Mn117  1  0.49998414  0.49973779  0.25020979  1
  Mn  Mn118  1  0.49976563  0.16641681  0.25033176  1
  Mn  Mn119  1  0.25092992  0.49916649  0.87424793  1
  Mn  Mn120  1  0.24961044  0.33157609  0.12542793  1
  Mn  Mn121  1  0.74965410  0.50022172  0.62503838  1
  Mn  Mn122  1  0.74981417  0.16730285  0.12479057  1
  Mn  Mn123  1  0.50076227  0.83232091  0.00068613  1
  Mn  Mn124  1  0.00091045  0.66805370  0.75140705  1
  Mn  Mn125  1  -0.00017777  0.33244603  0.49909699  1
  Mn  Mn126  1  0.50075069  -0.00033356  0.00045230  1
  Mn  Mn127  1  -0.00004633  0.49990293  0.75043878  1
  Mn  Mn128  1  0.00011106  0.83295711  0.25045163  1
  Mn  Mn129  1  0.50007705  0.16566889  0.74968170  1
  Mn  Mn130  1  0.75048414  0.83369249  0.37540112  1
  Mn  Mn131  1  0.00041343  0.33376689  0.24996083  1
  Mn  Mn132  1  0.75011511  0.49998852  0.12412871  1
  Mn  Mn133  1  0.75031668  0.00010838  0.37545845  1
  Mn  Mn134  1  0.00032242  0.00129473  0.25011669  1
  Mn  Mn135  1  0.50025544  0.33274369  -0.00056899  1
  Mn  Mn136  1  0.75017848  0.66715747  0.12418609  1
  Mn  Mn137  1  0.49986049  0.50055421  0.74898826  1
  Mn  Mn138  1  -0.00081845  0.83391876  0.49976389  1
  Mn  Mn139  1  0.00037798  0.50053600  0.49973210  1
  Mn  Mn140  1  0.25091801  0.66776867  0.87499248  1
  Mn  Mn141  1  -0.00017527  0.16748248  -0.00035138  1
  Mn  Mn142  1  0.49979846  0.33327700  0.74972184  1
  Mn  Mn143  1  0.74954606  0.83457966  0.12464122  1
  Fe  Fe144  1  -0.00035789  0.66643302  0.24899115  1
  Fe  Fe145  1  -0.00036874  0.16691821  0.75021648  1
  Fe  Fe146  1  0.24990249  -0.00090045  0.62622700  1
  Fe  Fe147  1  0.49958431  0.33307206  0.49908651  1
  Fe  Fe148  1  0.25053745  0.66769746  0.62460631  1
  Fe  Fe149  1  0.50003564  0.66653978  0.00025502  1
  Fe  Fe150  1  0.24990388  -0.00081669  0.37513119  1
  Fe  Fe151  1  0.74966466  0.33413732  0.37435210  1
  Fe  Fe152  1  0.74992226  0.83361656  0.62604083  1
  Fe  Fe153  1  0.25026945  0.83412529  0.12611844  1
  Fe  Fe154  1  0.24981304  0.50072791  0.37525969  1
  Fe  Fe155  1  0.00047596  0.33373690  0.00045498  1
  Fe  Fe156  1  0.74938376  0.00013288  0.87460049  1
  Fe  Fe157  1  0.25056233  0.16512819  0.12424457  1
  Fe  Fe158  1  0.25017825  -0.00098130  0.87603904  1
  Fe  Fe159  1  0.25034553  -0.00050306  0.12487510  1
  Fe  Fe160  1  0.49960138  0.83305033  0.50057842  1
  Fe  Fe161  1  0.75006562  0.50012238  0.37491333  1
  Fe  Fe162  1  0.49934970  -0.00075343  0.74949716  1
  Fe  Fe163  1  0.00021486  0.83317928  0.00073499  1
  Fe  Fe164  1  0.00019083  0.16742418  0.24931569  1
  Fe  Fe165  1  0.50039195  0.16604758  -0.00023470  1
  Fe  Fe166  1  -0.00006682  0.16692702  0.49986836  1
  Fe  Fe167  1  0.25012629  0.16522505  0.87482498  1
  Fe  Fe168  1  0.50026501  0.49962998  0.00013938  1
  Fe  Fe169  1  0.50009237  0.66737620  0.50021294  1
  Fe  Fe170  1  0.50030025  0.66649026  0.25036079  1
  Fe  Fe171  1  0.74898245  -0.00002999  0.62578865  1
  Fe  Fe172  1  0.25010739  0.83355300  0.87547523  1
  Fe  Fe173  1  -0.00045802  0.83395896  0.75046312  1
  Fe  Fe174  1  0.74961699  0.83392228  0.87435095  1
  Fe  Fe175  1  0.24980813  0.83401357  0.37636408  1
  Fe  Fe176  1  0.00072408  0.50007726  0.00040867  1
  Fe  Fe177  1  -0.00034150  0.50044689  0.24927754  1
  Fe  Fe178  1  0.75024390  0.66670467  0.62536723  1
  Fe  Fe179  1  0.74968712  0.33395052  0.12441229  1
  Fe  Fe180  1  0.50035884  0.83218908  0.25141419  1
  Fe  Fe181  1  0.24984350  0.33174642  0.87523245  1
  Fe  Fe182  1  0.49924346  0.83341505  0.74981565  1
  Fe  Fe183  1  0.50034884  0.33281582  0.24911968  1
  Fe  Fe184  1  0.75022541  0.00084145  0.12425965  1
  Fe  Fe185  1  0.74997313  0.16660994  0.87459882  1
  Fe  Fe186  1  0.49951407  0.16608537  0.49999716  1
  Fe  Fe187  1  0.74988184  0.50020810  0.87449935  1
  Fe  Fe188  1  0.49920638  -0.00109736  0.50036134  1
  Fe  Fe189  1  0.74911561  0.33389085  0.62438024  1
  Fe  Fe190  1  0.75014322  0.66719542  0.87421590  1
  Fe  Fe191  1  0.25010193  0.83372313  0.62584224  1
  P  P192  1  0.04262241  0.25145090  0.10259767  1
  P  P193  1  0.04252851  0.24850672  0.35239917  1
  P  P194  1  0.04240386  0.24830688  0.60253672  1
  P  P195  1  0.04211050  0.24912297  0.85278061  1
  P  P196  1  0.04248647  0.58239680  0.10306241  1
  P  P197  1  0.04149161  0.58382336  0.35093930  1
  P  P198  1  0.04313522  0.58389012  0.60347494  1
  P  P199  1  0.04321033  0.58312781  0.85417073  1
  P  P200  1  0.04232371  0.91582782  0.10258902  1
  P  P201  1  0.04293528  0.91738295  0.35331888  1
  P  P202  1  0.04190622  0.91696867  0.60398819  1
  P  P203  1  0.04192725  0.91533111  0.85303231  1
  P  P204  1  0.54270703  0.24834851  0.10218671  1
  P  P205  1  0.54195850  0.25140707  0.35274560  1
  P  P206  1  0.54097479  0.24970458  0.60086731  1
  P  P207  1  0.54264671  0.24944699  0.85295757  1
  P  P208  1  0.54165934  0.58333692  0.10183182  1
  P  P209  1  0.54222772  0.58495075  0.35280199  1
  P  P210  1  0.54242006  0.58505742  0.60184913  1
  P  P211  1  0.54274683  0.58323157  0.85382407  1
  P  P212  1  0.54328426  0.91555846  0.10391898  1
  P  P213  1  0.54169821  0.91471824  0.35396067  1
  P  P214  1  0.54038851  0.91629865  0.60258740  1
  P  P215  1  0.54106664  0.91623861  0.85135443  1
  P  P216  1  0.45756364  0.08273194  0.14682012  1
  P  P217  1  0.45853012  0.08247075  0.39887209  1
  P  P218  1  0.45733636  0.08130158  0.64700650  1
  P  P219  1  0.45813353  0.08358257  0.89744789  1
  P  P220  1  0.45822651  0.41529953  0.14686137  1
  P  P221  1  0.45795134  0.41527235  0.39659009  1
  P  P222  1  0.45727182  0.41629123  0.64560037  1
  P  P223  1  0.45769312  0.41780045  0.89753628  1
  P  P224  1  0.45872960  0.74925035  0.14902781  1
  P  P225  1  0.45844399  0.74991038  0.39837982  1
  P  P226  1  0.45823599  0.75134884  0.64694917  1
  P  P227  1  0.45808808  0.74903656  0.89771304  1
  P  P228  1  0.95769773  0.08520694  0.14717950  1
  P  P229  1  0.95743339  0.08561576  0.39717864  1
  P  P230  1  0.95721761  0.08552805  0.64767148  1
  P  P231  1  0.95734403  0.08362388  0.89635255  1
  P  P232  1  0.95816677  0.41814372  0.14674423  1
  P  P233  1  0.95754215  0.41708148  0.39600848  1
  P  P234  1  0.95676155  0.41661436  0.64665999  1
  P  P235  1  0.95875811  0.41651235  0.89871967  1
  P  P236  1  0.95767005  0.74926193  0.14695203  1
  P  P237  1  0.95663117  0.74955309  0.39632808  1
  P  P238  1  0.95754900  0.75158137  0.64843566  1
  P  P239  1  0.95802517  0.75211621  0.89757747  1
  P  P240  1  0.20890961  0.08220085  0.22648642  1
  P  P241  1  0.20813921  0.08078986  0.47795871  1
  P  P242  1  0.20807623  0.08132335  0.72873460  1
  P  P243  1  0.20874726  0.08266841  0.97719633  1
  P  P244  1  0.20732565  0.41667315  0.22836502  1
  P  P245  1  0.20759944  0.41814625  0.47712623  1
  P  P246  1  0.20729853  0.41563397  0.72874556  1
  P  P247  1  0.20847398  0.41482164  0.97704673  1
  P  P248  1  0.20839489  0.75188090  0.22831686  1
  P  P249  1  0.20783120  0.75164293  0.47860880  1
  P  P250  1  0.20905337  0.75030330  0.72711639  1
  P  P251  1  0.20839738  0.75202430  0.97834277  1
  P  P252  1  0.70753862  0.08245658  0.22710844  1
  P  P253  1  0.70687740  0.08335453  0.47887332  1
  P  P254  1  0.70680823  0.08194863  0.72806367  1
  P  P255  1  0.70856738  0.08344824  0.97637882  1
  P  P256  1  0.70763152  0.41558569  0.22749582  1
  P  P257  1  0.70814391  0.41709011  0.47644674  1
  P  P258  1  0.70718755  0.41563113  0.72729591  1
  P  P259  1  0.70778984  0.41811972  0.97701834  1
  P  P260  1  0.70722500  0.75005410  0.22788447  1
  P  P261  1  0.70765274  0.75055714  0.47952477  1
  P  P262  1  0.70885048  0.74962334  0.72733560  1
  P  P263  1  0.70877972  0.75059636  0.97574312  1
  P  P264  1  0.29190480  0.24757831  0.02160662  1
  P  P265  1  0.29303689  0.24841255  0.27121915  1
  P  P266  1  0.29291552  0.24924975  0.52159225  1
  P  P267  1  0.29174068  0.24867387  0.77352968  1
  P  P268  1  0.29342754  0.58353346  0.02179835  1
  P  P269  1  0.29263420  0.58250047  0.27272873  1
  P  P270  1  0.29207270  0.58484692  0.52216306  1
  P  P271  1  0.29341812  0.58424494  0.77130549  1
  P  P272  1  0.29181365  0.91631090  0.02344328  1
  P  P273  1  0.29187050  0.91626440  0.27355063  1
  P  P274  1  0.29113832  0.91664489  0.52382701  1
  P  P275  1  0.29148494  0.91633164  0.77363699  1
  P  P276  1  0.79221414  0.25166967  0.02204975  1
  P  P277  1  0.79155992  0.25171991  0.27206449  1
  P  P278  1  0.79119770  0.25223251  0.52195855  1
  P  P279  1  0.79169315  0.24871948  0.77203246  1
  P  P280  1  0.79256462  0.58404108  0.02020847  1
  P  P281  1  0.79190609  0.58202071  0.27235350  1
  P  P282  1  0.79224484  0.58444053  0.52257203  1
  P  P283  1  0.79158858  0.58354700  0.77300045  1
  P  P284  1  0.79184590  0.91888663  0.02127134  1
  P  P285  1  0.79308714  0.91731745  0.27140585  1
  P  P286  1  0.79132706  0.91726827  0.52447859  1
  P  P287  1  0.79022018  0.91706814  0.77256154  1
  O  O288  1  0.03745905  0.25070483  0.18254933  1
  O  O289  1  0.03721694  0.24831271  0.43234987  1
  O  O290  1  0.03709610  0.24838503  0.68248922  1
  O  O291  1  0.03698551  0.25035185  0.93271206  1
  O  O292  1  0.03675876  0.58263410  0.18292033  1
  O  O293  1  0.03665917  0.58392372  0.43097338  1
  O  O294  1  0.03841820  0.58407857  0.68347245  1
  O  O295  1  0.03801417  0.58268186  0.93413374  1
  O  O296  1  0.03722839  0.91648890  0.18251805  1
  O  O297  1  0.03751410  0.91769343  0.43325180  1
  O  O298  1  0.03659225  0.91642667  0.68395154  1
  O  O299  1  0.03695220  0.91496729  0.93299399  1
  O  O300  1  0.53755661  0.24893542  0.18212554  1
  O  O301  1  0.53649256  0.25172523  0.43256333  1
  O  O302  1  0.53637673  0.24950395  0.68088045  1
  O  O303  1  0.53769242  0.24899273  0.93289999  1
  O  O304  1  0.53653152  0.58336835  0.18183986  1
  O  O305  1  0.53699306  0.58515986  0.43270374  1
  O  O306  1  0.53736243  0.58457300  0.68180686  1
  O  O307  1  0.53730460  0.58301756  0.93372685  1
  O  O308  1  0.53819860  0.91511947  0.18384302  1
  O  O309  1  0.53610178  0.91491443  0.43382791  1
  O  O310  1  0.53542793  0.91666935  0.68251722  1
  O  O311  1  0.53666362  0.91639628  0.93137963  1
  O  O312  1  0.46297452  0.08310841  0.06692030  1
  O  O313  1  0.46317358  0.08239970  0.31890861  1
  O  O314  1  0.46211109  0.08116412  0.56715392  1
  O  O315  1  0.46295249  0.08292318  0.81748840  1
  O  O316  1  0.46378142  0.41627431  0.06693817  1
  O  O317  1  0.46334516  0.41512610  0.31663291  1
  O  O318  1  0.46262785  0.41569333  0.56563433  1
  O  O319  1  0.46243253  0.41766327  0.81751078  1
  O  O320  1  0.46379844  0.74877857  0.06907273  1
  O  O321  1  0.46375748  0.74973330  0.31849377  1
  O  O322  1  0.46351573  0.75131741  0.56709286  1
  O  O323  1  0.46325132  0.75016076  0.81781487  1
  O  O324  1  0.96277791  0.08462613  0.06722117  1
  O  O325  1  0.96273735  0.08552272  0.31722205  1
  O  O326  1  0.96242229  0.08554269  0.56768872  1
  O  O327  1  0.96247628  0.08392680  0.81643595  1
  O  O328  1  0.96376484  0.41775566  0.06687955  1
  O  O329  1  0.96292563  0.41757376  0.31606396  1
  O  O330  1  0.96183183  0.41657163  0.56670791  1
  O  O331  1  0.96365098  0.41622435  0.81872068  1
  O  O332  1  0.96328713  0.75013102  0.06702456  1
  O  O333  1  0.96179072  0.74889603  0.31635983  1
  O  O334  1  0.96202843  0.75120225  0.56840468  1
  O  O335  1  0.96323597  0.75251494  0.81761253  1
  O  O336  1  0.21368835  0.08273670  0.05706508  1
  O  O337  1  0.21394224  0.08161530  0.30642719  1
  O  O338  1  0.21334750  0.08082945  0.55788603  1
  O  O339  1  0.21355258  0.08207343  0.80856885  1
  O  O340  1  0.21335269  0.41476268  0.05701631  1
  O  O341  1  0.21258598  0.41758566  0.30829587  1
  O  O342  1  0.21264531  0.41792421  0.55712923  1
  O  O343  1  0.21296659  0.41477086  0.80864417  1
  O  O344  1  0.21368099  0.75214073  0.05826605  1
  O  O345  1  0.21346991  0.75179568  0.30828150  1
  O  O346  1  0.21330013  0.75089238  0.55845597  1
  O  O347  1  0.21388507  0.75094190  0.80708002  1
  O  O348  1  0.71360558  0.08349797  0.05633617  1
  O  O349  1  0.71260021  0.08295056  0.30706718  1
  O  O350  1  0.71200736  0.08300904  0.55881590  1
  O  O351  1  0.71226779  0.08224255  0.80791993  1
  O  O352  1  0.71282170  0.41758332  0.05693550  1
  O  O353  1  0.71298042  0.41587698  0.30738012  1
  O  O354  1  0.71285437  0.41675137  0.55643939  1
  O  O355  1  0.71256998  0.41625452  0.80715643  1
  O  O356  1  0.71343157  0.75107716  0.05571041  1
  O  O357  1  0.71227197  0.74997495  0.30784190  1
  O  O358  1  0.71309581  0.75049969  0.55941580  1
  O  O359  1  0.71382996  0.74977488  0.80725039  1
  O  O360  1  0.28755793  0.24761995  0.19129307  1
  O  O361  1  0.28791746  0.24916782  0.44164190  1
  O  O362  1  0.28690813  0.24876397  0.69351044  1
  O  O363  1  0.28630620  0.24796987  0.94173578  1
  O  O364  1  0.28764529  0.58275035  0.19275760  1
  O  O365  1  0.28637840  0.58416242  0.44223232  1
  O  O366  1  0.28784040  0.58492097  0.69138226  1
  O  O367  1  0.28844486  0.58369355  0.94183828  1
  O  O368  1  0.28679724  0.91597602  0.19369048  1
  O  O369  1  0.28628805  0.91635733  0.44397815  1
  O  O370  1  0.28641806  0.91673365  0.69381596  1
  O  O371  1  0.28697397  0.91632190  0.94358068  1
  O  O372  1  0.78657712  0.25162707  0.19210897  1
  O  O373  1  0.78572231  0.25235323  0.44203887  1
  O  O374  1  0.78666194  0.24897395  0.69218161  1
  O  O375  1  0.78713584  0.25091347  0.94217076  1
  O  O376  1  0.78708977  0.58222736  0.19237677  1
  O  O377  1  0.78676447  0.58368038  0.44269335  1
  O  O378  1  0.78633693  0.58388619  0.69304151  1
  O  O379  1  0.78727551  0.58408664  0.94031857  1
  O  O380  1  0.78796316  0.91786319  0.19144696  1
  O  O381  1  0.78708837  0.91695928  0.44443990  1
  O  O382  1  0.78526855  0.91673071  0.69268118  1
  O  O383  1  0.78616917  0.91866222  0.94141594  1
  O  O384  1  0.22785219  0.24708757  0.05801391  1
  O  O385  1  0.22876554  0.24873674  0.30674294  1
  O  O386  1  0.22849372  0.24881267  0.55670807  1
  O  O387  1  0.22751005  0.24812971  0.80925730  1
  O  O388  1  0.22898629  0.58379783  0.05682714  1
  O  O389  1  0.22822162  0.58251190  0.30810406  1
  O  O390  1  0.22798431  0.58572003  0.55840161  1
  O  O391  1  0.22921064  0.58382584  0.80697946  1
  O  O392  1  0.22768669  0.91607032  0.05963518  1
  O  O393  1  0.22772870  0.91662985  0.30992988  1
  O  O394  1  0.22712172  0.91712631  0.56022628  1
  O  O395  1  0.22743409  0.91570278  0.81001713  1
  O  O396  1  0.72792225  0.25173616  0.05780467  1
  O  O397  1  0.72726918  0.25183839  0.30775502  1
  O  O398  1  0.72699157  0.25185277  0.55793919  1
  O  O399  1  0.72745035  0.24910647  0.80770764  1
  O  O400  1  0.72830965  0.58382563  0.05594205  1
  O  O401  1  0.72755150  0.58156670  0.30785379  1
  O  O402  1  0.72801344  0.58500974  0.55853345  1
  O  O403  1  0.72749000  0.58343265  0.80918368  1
  O  O404  1  0.72774038  0.91923983  0.05763293  1
  O  O405  1  0.72867721  0.91689621  0.30669219  1
  O  O406  1  0.72692093  0.91747611  0.55977124  1
  O  O407  1  0.72619840  0.91760996  0.80883532  1
  O  O408  1  0.27305529  0.08259039  0.19040054  1
  O  O409  1  0.27243981  0.08036617  0.44221353  1
  O  O410  1  0.27220628  0.08082143  0.69248870  1
  O  O411  1  0.27281998  0.08304985  0.94094928  1
  O  O412  1  0.27166627  0.41586980  0.19300023  1
  O  O413  1  0.27195631  0.41840473  0.44159764  1
  O  O414  1  0.27150692  0.41642703  0.69302606  1
  O  O415  1  0.27278489  0.41480908  0.94164903  1
  O  O416  1  0.27271237  0.75210146  0.19266567  1
  O  O417  1  0.27195241  0.75175005  0.44236878  1
  O  O418  1  0.27317168  0.74973415  0.69106020  1
  O  O419  1  0.27266711  0.75223341  0.94250139  1
  O  O420  1  0.77186263  0.08253969  0.19146103  1
  O  O421  1  0.77123380  0.08418810  0.44356756  1
  O  O422  1  0.77098096  0.08181022  0.69192766  1
  O  O423  1  0.77263455  0.08266992  0.94023654  1
  O  O424  1  0.77182792  0.41541733  0.19136451  1
  O  O425  1  0.77231954  0.41735830  0.44045318  1
  O  O426  1  0.77148324  0.41539857  0.69155056  1
  O  O427  1  0.77207599  0.41841866  0.94134101  1
  O  O428  1  0.77161159  0.75066559  0.19267843  1
  O  O429  1  0.77177928  0.74996092  0.44350749  1
  O  O430  1  0.77288606  0.74930021  0.69104220  1
  O  O431  1  0.77295306  0.75014585  0.94001004  1
  O  O432  1  0.02212977  0.08559854  0.18249205  1
  O  O433  1  0.02176319  0.08549685  0.43285012  1
  O  O434  1  0.02153777  0.08542668  0.68326110  1
  O  O435  1  0.02167109  0.08340284  0.93159418  1
  O  O436  1  0.02223180  0.41836079  0.18295177  1
  O  O437  1  0.02179972  0.41656146  0.43151622  1
  O  O438  1  0.02124422  0.41644714  0.68154877  1
  O  O439  1  0.02296332  0.41622419  0.93457831  1
  O  O440  1  0.02183068  0.74845005  0.18296428  1
  O  O441  1  0.02106971  0.75019995  0.43143817  1
  O  O442  1  0.02215067  0.75193015  0.68319069  1
  O  O443  1  0.02231222  0.75182631  0.93319867  1
  O  O444  1  0.52175780  0.08247634  0.18240732  1
  O  O445  1  0.52262747  0.08258797  0.43459965  1
  O  O446  1  0.52164566  0.08108561  0.68264989  1
  O  O447  1  0.52251350  0.08412147  0.93290479  1
  O  O448  1  0.52232143  0.41516143  0.18297819  1
  O  O449  1  0.52216024  0.41535557  0.43241349  1
  O  O450  1  0.52163669  0.41644949  0.68089004  1
  O  O451  1  0.52210280  0.41743204  0.93268416  1
  O  O452  1  0.52288143  0.74986082  0.18504986  1
  O  O453  1  0.52244670  0.75020880  0.43486780  1
  O  O454  1  0.52238865  0.75238087  0.68303861  1
  O  O455  1  0.52242628  0.74785461  0.93331225  1
  O  O456  1  0.47843556  0.24787403  0.06647437  1
  O  O457  1  0.47786401  0.25148249  0.31646846  1
  O  O458  1  0.47673923  0.25002435  0.56531899  1
  O  O459  1  0.47821499  0.24944481  0.81792079  1
  O  O460  1  0.47759757  0.58380849  0.06569690  1
  O  O461  1  0.47800742  0.58454181  0.31702601  1
  O  O462  1  0.47814499  0.58482134  0.56630651  1
  O  O463  1  0.47859869  0.58385629  0.81792698  1
  O  O464  1  0.47888393  0.91585088  0.06878951  1
  O  O465  1  0.47763852  0.91422732  0.31763003  1
  O  O466  1  0.47635085  0.91555484  0.56640234  1
  O  O467  1  0.47671794  0.91569686  0.81597234  1
  O  O468  1  0.97826543  0.25218728  0.06714125  1
  O  O469  1  0.97828415  0.24874796  0.31661870  1
  O  O470  1  0.97805212  0.24826731  0.56692715  1
  O  O471  1  0.97777263  0.24836369  0.81714412  1
  O  O472  1  0.97845096  0.58225675  0.06670956  1
  O  O473  1  0.97725441  0.58424300  0.31517229  1
  O  O474  1  0.97852015  0.58365756  0.56888506  1
  O  O475  1  0.97884306  0.58389704  0.81895201  1
  O  O476  1  0.97797211  0.91553924  0.06715224  1
  O  O477  1  0.97860806  0.91738592  0.31808118  1
  O  O478  1  0.97762334  0.91747772  0.56854395  1
  O  O479  1  0.97760552  0.91591853  0.81754319  1
  O  O480  1  0.07353282  0.31500909  0.07440536  1
  O  O481  1  0.07370702  0.31228072  0.32500827  1
  O  O482  1  0.07328682  0.31210137  0.57457653  1
  O  O483  1  0.07304453  0.31247674  0.82409895  1
  O  O484  1  0.07382551  0.64596996  0.07522015  1
  O  O485  1  0.07261430  0.64732138  0.32278623  1
  O  O486  1  0.07377421  0.64747787  0.57494042  1
  O  O487  1  0.07449915  0.64682134  0.82662001  1
  O  O488  1  0.07324663  0.97942534  0.07439688  1
  O  O489  1  0.07405996  0.98076566  0.32505767  1
  O  O490  1  0.07303490  0.98070771  0.57645029  1
  O  O491  1  0.07322812  0.97898705  0.82547139  1
  O  O492  1  0.57375861  0.31186907  0.07405831  1
  O  O493  1  0.57295520  0.31448454  0.32335677  1
  O  O494  1  0.57223488  0.31308283  0.57280644  1
  O  O495  1  0.57342354  0.31322298  0.82493153  1
  O  O496  1  0.57303990  0.64666516  0.07362651  1
  O  O497  1  0.57302734  0.64827945  0.32395289  1
  O  O498  1  0.57286236  0.64892489  0.57394581  1
  O  O499  1  0.57431793  0.64653675  0.82565277  1
  O  O500  1  0.57433364  0.97903836  0.07563358  1
  O  O501  1  0.57268475  0.97849512  0.32608508  1
  O  O502  1  0.57064491  0.98015216  0.57361291  1
  O  O503  1  0.57121337  0.98018660  0.82292395  1
  O  O504  1  0.42644857  0.01914222  0.17482529  1
  O  O505  1  0.42775442  0.01873061  0.42698857  1
  O  O506  1  0.42648828  0.01809898  0.67649815  1
  O  O507  1  0.42719943  0.02000422  0.92569694  1
  O  O508  1  0.42758909  0.35133317  0.17446294  1
  O  O509  1  0.42679700  0.35215937  0.42535744  1
  O  O510  1  0.42598985  0.35317751  0.67445443  1
  O  O511  1  0.42641376  0.35422343  0.92521736  1
  O  O512  1  0.42817717  0.68549674  0.17745625  1
  O  O513  1  0.42772630  0.68618077  0.42685559  1
  O  O514  1  0.42777749  0.68743947  0.67501749  1
  O  O515  1  0.42682877  0.68568746  0.92578999  1
  O  O516  1  0.92684128  0.02156012  0.17521108  1
  O  O517  1  0.92641138  0.02188877  0.42516937  1
  O  O518  1  0.92625721  0.02170396  0.67533816  1
  O  O519  1  0.92636034  0.01998334  0.92431650  1
  O  O520  1  0.92692093  0.35468915  0.17498066  1
  O  O521  1  0.92636273  0.35342938  0.42367191  1
  O  O522  1  0.92572755  0.35312094  0.67482654  1
  O  O523  1  0.92775634  0.35291415  0.92680509  1
  O  O524  1  0.92664490  0.68553352  0.17457558  1
  O  O525  1  0.92574076  0.68632688  0.42531005  1
  O  O526  1  0.92685113  0.68794946  0.67679165  1
  O  O527  1  0.92698078  0.68822707  0.92486211  1
  O  O528  1  0.17818961  0.01860008  0.19781269  1
  O  O529  1  0.17685030  0.01773309  0.44914301  1
  O  O530  1  0.17692118  0.01783977  0.70057472  1
  O  O531  1  0.17839425  0.01860376  0.94875855  1
  O  O532  1  0.17607552  0.35293735  0.20091118  1
  O  O533  1  0.17673925  0.35432605  0.44936107  1
  O  O534  1  0.17631896  0.35230878  0.69992897  1
  O  O535  1  0.17790848  0.35108012  0.94859307  1
  O  O536  1  0.17768701  0.68794332  0.20041662  1
  O  O537  1  0.17638887  0.68841934  0.44993560  1
  O  O538  1  0.17783289  0.68681078  0.69910754  1
  O  O539  1  0.17753251  0.68815157  0.95057110  1
  O  O540  1  0.67694884  0.01882134  0.19875113  1
  O  O541  1  0.67614263  0.01984124  0.45034845  1
  O  O542  1  0.67592699  0.01847749  0.69934018  1
  O  O543  1  0.67658917  0.02048349  0.94818952  1
  O  O544  1  0.67685082  0.35216533  0.19849773  1
  O  O545  1  0.67718528  0.35368563  0.44783917  1
  O  O546  1  0.67654035  0.35194199  0.69882973  1
  O  O547  1  0.67653868  0.35464855  0.94900110  1
  O  O548  1  0.67672025  0.68624089  0.19965814  1
  O  O549  1  0.67597236  0.68742360  0.45109381  1
  O  O550  1  0.67751453  0.68627237  0.69896358  1
  O  O551  1  0.67753378  0.68712742  0.94787653  1
  O  O552  1  0.32301949  0.31119123  0.04973915  1
  O  O553  1  0.32405743  0.31220995  0.29874215  1
  O  O554  1  0.32355490  0.31300138  0.54964235  1
  O  O555  1  0.32202873  0.31269956  0.80178641  1
  O  O556  1  0.32449183  0.64693517  0.05022068  1
  O  O557  1  0.32365849  0.64622989  0.30044455  1
  O  O558  1  0.32323374  0.64846827  0.55000734  1
  O  O559  1  0.32465993  0.64743856  0.79991078  1
  O  O560  1  0.32225810  0.98022734  0.05208040  1
  O  O561  1  0.32293927  0.97992208  0.30172509  1
  O  O562  1  0.32249395  0.97989704  0.55237823  1
  O  O563  1  0.32187245  0.98005076  0.80272564  1
  O  O564  1  0.82257418  0.31556098  0.05034538  1
  O  O565  1  0.82262413  0.31498873  0.30075351  1
  O  O566  1  0.82191647  0.31574159  0.55062130  1
  O  O567  1  0.82350163  0.31190607  0.80000459  1
  O  O568  1  0.82356875  0.64755709  0.04873759  1
  O  O569  1  0.82267727  0.64578735  0.30021695  1
  O  O570  1  0.82322294  0.64794506  0.55089419  1
  O  O571  1  0.82273874  0.64698811  0.80126115  1
  O  O572  1  0.82298025  0.98217513  0.05004206  1
  O  O573  1  0.82411474  0.98062338  0.30021345  1
  O  O574  1  0.82217594  0.98099383  0.55248889  1
  O  O575  1  0.82186556  0.98028724  0.80069660  1
  O  O576  1  0.42633017  0.14596350  0.17530539  1
  O  O577  1  0.42783400  0.14632263  0.42693899  1
  O  O578  1  0.42643056  0.14506427  0.67509552  1
  O  O579  1  0.42749384  0.14722731  0.92593598  1
  O  O580  1  0.42675835  0.47853719  0.17523023  1
  O  O581  1  0.42707235  0.47928708  0.42402836  1
  O  O582  1  0.42640887  0.48014946  0.67326113  1
  O  O583  1  0.42738426  0.48141668  0.92642313  1
  O  O584  1  0.42772050  0.81287370  0.17720980  1
  O  O585  1  0.42717034  0.81332244  0.42675263  1
  O  O586  1  0.42668472  0.81434609  0.67589898  1
  O  O587  1  0.42761152  0.81273496  0.92646985  1
  O  O588  1  0.92694596  0.14890887  0.17524371  1
  O  O589  1  0.92650332  0.14890666  0.42596342  1
  O  O590  1  0.92629507  0.14879635  0.67647288  1
  O  O591  1  0.92609540  0.14684952  0.92484319  1
  O  O592  1  0.92705041  0.48157719  0.17523536  1
  O  O593  1  0.92649221  0.48041730  0.42451412  1
  O  O594  1  0.92589387  0.48008859  0.67515549  1
  O  O595  1  0.92831832  0.48052526  0.92660141  1
  O  O596  1  0.92663013  0.81275687  0.17515992  1
  O  O597  1  0.92547358  0.81324632  0.42415099  1
  O  O598  1  0.92678753  0.81515162  0.67692927  1
  O  O599  1  0.92714115  0.81533635  0.92662846  1
  O  O600  1  0.07349361  0.18789152  0.07419266  1
  O  O601  1  0.07338301  0.18520024  0.32344927  1
  O  O602  1  0.07344537  0.18503827  0.57386377  1
  O  O603  1  0.07289332  0.18535069  0.82484111  1
  O  O604  1  0.07351544  0.51901918  0.07436474  1
  O  O605  1  0.07183226  0.51977813  0.32295192  1
  O  O606  1  0.07414314  0.52043587  0.57513365  1
  O  O607  1  0.07407054  0.51978199  0.82548377  1
  O  O608  1  0.07301500  0.85204559  0.07469018  1
  O  O609  1  0.07394207  0.85377646  0.32548254  1
  O  O610  1  0.07303326  0.85375309  0.57534059  1
  O  O611  1  0.07250675  0.85196264  0.82380752  1
  O  O612  1  0.57343707  0.18471133  0.07373480  1
  O  O613  1  0.57299077  0.18740787  0.32532165  1
  O  O614  1  0.57102747  0.18547769  0.57262112  1
  O  O615  1  0.57390462  0.18633796  0.82417229  1
  O  O616  1  0.57186550  0.51915457  0.07370631  1
  O  O617  1  0.57336900  0.52122018  0.32507169  1
  O  O618  1  0.57371524  0.52159062  0.57383619  1
  O  O619  1  0.57362250  0.51986649  0.82489406  1
  O  O620  1  0.57436652  0.85230674  0.07508101  1
  O  O621  1  0.57295114  0.85146525  0.32533971  1
  O  O622  1  0.57206277  0.85308875  0.57445873  1
  O  O623  1  0.57209316  0.85268272  0.82318897  1
  O  O624  1  0.32308046  0.18422503  0.05000254  1
  O  O625  1  0.32435482  0.18529048  0.29982938  1
  O  O626  1  0.32406862  0.18587668  0.54975375  1
  O  O627  1  0.32298211  0.18520640  0.80142951  1
  O  O628  1  0.32422482  0.51984576  0.04963457  1
  O  O629  1  0.32323979  0.51894875  0.30118818  1
  O  O630  1  0.32308064  0.52127839  0.55011877  1
  O  O631  1  0.32457948  0.52049128  0.79871744  1
  O  O632  1  0.32309494  0.85311600  0.05220697  1
  O  O633  1  0.32246642  0.85278397  0.30263478  1
  O  O634  1  0.32153431  0.85283278  0.55270793  1
  O  O635  1  0.32285500  0.85293096  0.80175985  1
  O  O636  1  0.82359084  0.18841228  0.05033984  1
  O  O637  1  0.82231113  0.18786692  0.29997442  1
  O  O638  1  0.82245449  0.18859475  0.54951576  1
  O  O639  1  0.82167179  0.18479037  0.80091178  1
  O  O640  1  0.82387103  0.52081330  0.04868342  1
  O  O641  1  0.82267506  0.51853652  0.30082760  1
  O  O642  1  0.82323205  0.52090004  0.55074304  1
  O  O643  1  0.82219206  0.51952294  0.80075927  1
  O  O644  1  0.82284905  0.85515930  0.04913829  1
  O  O645  1  0.82412517  0.85374636  0.29944835  1
  O  O646  1  0.82172131  0.85346155  0.55302914  1
  O  O647  1  0.82061809  0.85317618  0.80130547  1
  O  O648  1  0.17799672  0.14588099  0.19850630  1
  O  O649  1  0.17757139  0.14473194  0.44999390  1
  O  O650  1  0.17710405  0.14477097  0.70008709  1
  O  O651  1  0.17724894  0.14569171  0.94842976  1
  O  O652  1  0.17640703  0.47988268  0.19941938  1
  O  O653  1  0.17685001  0.48177598  0.44891822  1
  O  O654  1  0.17589553  0.47927525  0.70147446  1
  O  O655  1  0.17730240  0.47845263  0.94953273  1
  O  O656  1  0.17726310  0.81508404  0.19980807  1
  O  O657  1  0.17703805  0.81528610  0.45038243  1
  O  O658  1  0.17863912  0.81413048  0.69853931  1
  O  O659  1  0.17731281  0.81515158  0.94942555  1
  O  O660  1  0.67640087  0.14604541  0.19926343  1
  O  O661  1  0.67551944  0.14674018  0.45088901  1
  O  O662  1  0.67561981  0.14542125  0.69988260  1
  O  O663  1  0.67884004  0.14784008  0.94810322  1
  O  O664  1  0.67641157  0.47909783  0.19940193  1
  O  O665  1  0.67761578  0.48109266  0.44851753  1
  O  O666  1  0.67594872  0.47904117  0.69917113  1
  O  O667  1  0.67718766  0.48176165  0.94856563  1
  O  O668  1  0.67583176  0.81325834  0.19978531  1
  O  O669  1  0.67687686  0.81419155  0.45119059  1
  O  O670  1  0.67837926  0.81357533  0.69891194  1
  O  O671  1  0.67840313  0.81456406  0.94737752  1
