# generated using pymatgen
data_Na2MnFe(PO4)2
_symmetry_space_group_name_H-M   'P 1'
_cell_length_a   22.34944814
_cell_length_b   20.10119421
_cell_length_c   19.44444386
_cell_angle_alpha   90.01829524
_cell_angle_beta   90.00108036
_cell_angle_gamma   90.01582032
_symmetry_Int_Tables_number   1
_chemical_formula_structural   Na2MnFe(PO4)2
_chemical_formula_sum   'Na96 Mn48 Fe48 P96 O384'
_cell_volume   8735.42724108
_cell_formula_units_Z   48
loop_
 _symmetry_equiv_pos_site_id
 _symmetry_equiv_pos_as_xyz
  1  'x, y, z'
loop_
 _atom_site_type_symbol
 _atom_site_label
 _atom_site_symmetry_multiplicity
 _atom_site_fract_x
 _atom_site_fract_y
 _atom_site_fract_z
 _atom_site_occupancy
  Na  Na0  1  0.14047405  0.25001294  0.24430267  1
  Na  Na1  1  0.14055039  0.25025014  0.49372553  1
  Na  Na2  1  0.14152401  0.25071905  0.74290419  1
  Na  Na3  1  0.14049165  0.25037105  0.99441252  1
  Na  Na4  1  0.14018157  0.58221516  0.24403131  1
  Na  Na5  1  0.14087227  0.58217184  0.49342448  1
  Na  Na6  1  0.14073986  0.58208964  0.74339084  1
  Na  Na7  1  0.14067049  0.58223120  0.99452671  1
  Na  Na8  1  0.14131509  0.91722005  0.24524665  1
  Na  Na9  1  0.14103157  0.91683747  0.49380230  1
  Na  Na10  1  0.14049929  0.91777996  0.74378028  1
  Na  Na11  1  0.14068018  0.91680609  0.99332600  1
  Na  Na12  1  0.64026308  0.24921358  0.24521252  1
  Na  Na13  1  0.63995308  0.25082824  0.49362744  1
  Na  Na14  1  0.63959089  0.24974165  0.74220625  1
  Na  Na15  1  0.64003240  0.24941309  0.99339650  1
  Na  Na16  1  0.63934668  0.58403532  0.24312619  1
  Na  Na17  1  0.64084843  0.58402481  0.49201253  1
  Na  Na18  1  0.64027829  0.58320295  0.74345363  1
  Na  Na19  1  0.63944284  0.58450782  0.99321711  1
  Na  Na20  1  0.64014273  0.91588751  0.24433752  1
  Na  Na21  1  0.63934838  0.91661051  0.49271069  1
  Na  Na22  1  0.63943429  0.91593384  0.74225917  1
  Na  Na23  1  0.64012122  0.91667900  0.99433963  1
  Na  Na24  1  0.35991504  0.08419721  0.00511186  1
  Na  Na25  1  0.35963627  0.08372920  0.25724272  1
  Na  Na26  1  0.35994677  0.08411434  0.50838799  1
  Na  Na27  1  0.36017308  0.08400656  0.75688924  1
  Na  Na28  1  0.35981529  0.41692466  0.00645093  1
  Na  Na29  1  0.35982261  0.41683215  0.25641632  1
  Na  Na30  1  0.35956969  0.41565267  0.50668335  1
  Na  Na31  1  0.36000151  0.41632662  0.75546351  1
  Na  Na32  1  0.35976855  0.74960064  0.00638564  1
  Na  Na33  1  0.36015281  0.74985864  0.25834819  1
  Na  Na34  1  0.36008856  0.74999379  0.50712926  1
  Na  Na35  1  0.36029384  0.75077397  0.75742346  1
  Na  Na36  1  0.85921411  0.08247365  0.00620530  1
  Na  Na37  1  0.85904192  0.08331750  0.25642524  1
  Na  Na38  1  0.85923784  0.08470004  0.50599852  1
  Na  Na39  1  0.85946619  0.08271314  0.75537899  1
  Na  Na40  1  0.85971719  0.41629898  0.00596321  1
  Na  Na41  1  0.85926602  0.41701648  0.25811947  1
  Na  Na42  1  0.85981162  0.41706032  0.50631468  1
  Na  Na43  1  0.85983373  0.41624121  0.75456430  1
  Na  Na44  1  0.85923851  0.75086090  0.00576676  1
  Na  Na45  1  0.85927276  0.74956375  0.25676228  1
  Na  Na46  1  0.85960611  0.75032661  0.50461441  1
  Na  Na47  1  0.85923607  0.74933492  0.75509846  1
  Na  Na48  1  0.10948384  0.08479532  0.11973060  1
  Na  Na49  1  0.11054068  0.08377540  0.36915349  1
  Na  Na50  1  0.11050393  0.08255370  0.61800351  1
  Na  Na51  1  0.10977406  0.08298609  0.86824881  1
  Na  Na52  1  0.11008217  0.41677402  0.11930126  1
  Na  Na53  1  0.10989349  0.41716430  0.36866463  1
  Na  Na54  1  0.11025542  0.41677863  0.61807396  1
  Na  Na55  1  0.11029699  0.41564976  0.86933694  1
  Na  Na56  1  0.10993055  0.74953201  0.11982265  1
  Na  Na57  1  0.10999941  0.74888293  0.36882569  1
  Na  Na58  1  0.10972169  0.74912268  0.61914911  1
  Na  Na59  1  0.10971190  0.75011819  0.86845009  1
  Na  Na60  1  0.60946816  0.08287942  0.11910347  1
  Na  Na61  1  0.60949978  0.08268101  0.36950830  1
  Na  Na62  1  0.60885569  0.08361338  0.61797906  1
  Na  Na63  1  0.60884495  0.08393246  0.86763753  1
  Na  Na64  1  0.60926043  0.41774442  0.11919249  1
  Na  Na65  1  0.60970376  0.41679747  0.36819105  1
  Na  Na66  1  0.60968163  0.41517055  0.61727928  1
  Na  Na67  1  0.60890351  0.41717549  0.86806307  1
  Na  Na68  1  0.60932642  0.74994822  0.11914065  1
  Na  Na69  1  0.60922846  0.74984501  0.36742756  1
  Na  Na70  1  0.60949057  0.75040118  0.61820910  1
  Na  Na71  1  0.60927190  0.75073840  0.86808946  1
  Na  Na72  1  0.39037602  0.25070723  0.13091696  1
  Na  Na73  1  0.39047311  0.24889127  0.38309261  1
  Na  Na74  1  0.39018682  0.24939495  0.63242931  1
  Na  Na75  1  0.39051083  0.25166771  0.88072300  1
  Na  Na76  1  0.39072672  0.58396097  0.13217031  1
  Na  Na77  1  0.38990938  0.58315804  0.38171425  1
  Na  Na78  1  0.39062661  0.58286408  0.63128003  1
  Na  Na79  1  0.39111357  0.58383307  0.88094421  1
  Na  Na80  1  0.39031453  0.91622263  0.13123348  1
  Na  Na81  1  0.39089823  0.91740691  0.38325836  1
  Na  Na82  1  0.39066604  0.91712229  0.63264627  1
  Na  Na83  1  0.38990125  0.91698779  0.88148360  1
  Na  Na84  1  0.89041178  0.25134921  0.13197869  1
  Na  Na85  1  0.88972444  0.25058581  0.38238331  1
  Na  Na86  1  0.88992907  0.25013937  0.63089086  1
  Na  Na87  1  0.89034692  0.24987199  0.87948731  1
  Na  Na88  1  0.89031097  0.58329205  0.13175104  1
  Na  Na89  1  0.88983842  0.58323160  0.38165862  1
  Na  Na90  1  0.89008771  0.58299715  0.62961281  1
  Na  Na91  1  0.89075202  0.58192122  0.87969064  1
  Na  Na92  1  0.88981661  0.91643194  0.13177306  1
  Na  Na93  1  0.89041936  0.91603205  0.38018089  1
  Na  Na94  1  0.89066122  0.91584326  0.63009764  1
  Na  Na95  1  0.88972942  0.91661767  0.88101741  1
  Mn  Mn96  1  0.00079540  0.33380650  0.74977278  1
  Mn  Mn97  1  0.50055047  0.33369923  0.25002937  1
  Mn  Mn98  1  0.49962719  0.16639477  0.25091219  1
  Mn  Mn99  1  0.74953891  0.49974168  0.87404268  1
  Mn  Mn100  1  0.25073308  0.83361746  0.37611418  1
  Mn  Mn101  1  0.74969560  0.33295755  0.87457043  1
  Mn  Mn102  1  0.50011789  0.00092334  -0.00000993  1
  Mn  Mn103  1  0.49901777  -0.00058608  0.25028158  1
  Mn  Mn104  1  0.75038614  0.66728306  0.87442238  1
  Mn  Mn105  1  -0.00007637  0.33386172  0.25069268  1
  Mn  Mn106  1  0.74867677  -0.00108130  0.87482147  1
  Mn  Mn107  1  0.25056752  0.33314093  0.37542110  1
  Mn  Mn108  1  0.25057984  0.49869182  0.87452514  1
  Mn  Mn109  1  0.25030625  0.66599052  0.62565702  1
  Mn  Mn110  1  0.50049916  0.50013635  0.74968240  1
  Mn  Mn111  1  0.74997354  0.83250362  0.62346773  1
  Mn  Mn112  1  0.50029221  0.66732229  0.50016102  1
  Mn  Mn113  1  -0.00062962  0.16786560  -0.00071128  1
  Mn  Mn114  1  0.25050640  0.00034453  0.12528028  1
  Mn  Mn115  1  0.75019719  0.16569559  0.12497165  1
  Mn  Mn116  1  0.00015977  0.83316211  -0.00004021  1
  Mn  Mn117  1  0.50063125  0.49935926  0.50052295  1
  Mn  Mn118  1  0.00051743  0.49902180  0.00085097  1
  Mn  Mn119  1  0.25075816  0.83345759  0.12583918  1
  Mn  Mn120  1  0.75028488  0.00027781  0.62393480  1
  Mn  Mn121  1  -0.00031089  -0.00076524  0.49909137  1
  Mn  Mn122  1  0.24965712  0.16729379  0.12512893  1
  Mn  Mn123  1  -0.00042905  0.16683866  0.50020628  1
  Mn  Mn124  1  0.00066797  0.00086175  0.25052076  1
  Mn  Mn125  1  0.24962152  0.83405733  0.62553598  1
  Mn  Mn126  1  0.00094861  0.83281671  0.24999605  1
  Mn  Mn127  1  0.74984335  0.16629029  0.87479288  1
  Mn  Mn128  1  0.50033765  0.33391498  -0.00009906  1
  Mn  Mn129  1  0.74982030  0.50004593  0.62410728  1
  Mn  Mn130  1  0.25076861  0.66664174  0.87504626  1
  Mn  Mn131  1  0.00096685  0.16588738  0.75020664  1
  Mn  Mn132  1  0.25031721  0.16725819  0.87481116  1
  Mn  Mn133  1  0.24975763  0.66598327  0.12566191  1
  Mn  Mn134  1  -0.00011649  0.00070091  0.00065949  1
  Mn  Mn135  1  0.74994029  0.00017561  0.37486865  1
  Mn  Mn136  1  -0.00001427  0.66520992  0.74887098  1
  Mn  Mn137  1  -0.00070437  0.83342974  0.74954750  1
  Mn  Mn138  1  0.74922493  0.33311025  0.12572728  1
  Mn  Mn139  1  0.49986631  0.83283086  -0.00002774  1
  Mn  Mn140  1  0.74949680  0.50036253  0.12548393  1
  Mn  Mn141  1  0.00036953  0.66599791  0.49982222  1
  Mn  Mn142  1  0.75019302  0.66771909  0.12426476  1
  Mn  Mn143  1  0.00028373  0.66579043  -0.00035991  1
  Fe  Fe144  1  -0.00028118  0.66635567  0.25033817  1
  Fe  Fe145  1  0.24991126  0.66580259  0.37572686  1
  Fe  Fe146  1  0.74919099  0.16712850  0.62458543  1
  Fe  Fe147  1  0.49990326  0.16759740  -0.00090680  1
  Fe  Fe148  1  0.74930119  0.66719983  0.37401252  1
  Fe  Fe149  1  -0.00001510  0.33366609  0.00029107  1
  Fe  Fe150  1  0.49977840  0.50109106  -0.00053443  1
  Fe  Fe151  1  0.74937820  0.16688326  0.37541325  1
  Fe  Fe152  1  0.00066850  0.49976055  0.49944269  1
  Fe  Fe153  1  0.50001416  -0.00054243  0.50086568  1
  Fe  Fe154  1  0.25077294  0.33345178  0.12548855  1
  Fe  Fe155  1  0.74949898  0.83354973  0.12513740  1
  Fe  Fe156  1  -0.00033617  0.16781120  0.25015673  1
  Fe  Fe157  1  0.50021772  0.16720756  0.74944781  1
  Fe  Fe158  1  0.50075095  0.66697958  0.75010601  1
  Fe  Fe159  1  0.74968849  0.66671151  0.62376745  1
  Fe  Fe160  1  0.25071866  0.49968261  0.62452246  1
  Fe  Fe161  1  0.24956450  0.83380509  0.87534504  1
  Fe  Fe162  1  -0.00062932  0.49985857  0.25021252  1
  Fe  Fe163  1  0.74938630  -0.00076264  0.12557016  1
  Fe  Fe164  1  0.00072565  0.83273093  0.49977853  1
  Fe  Fe165  1  0.24990824  0.49939869  0.37499589  1
  Fe  Fe166  1  0.25054529  0.16683179  0.37573736  1
  Fe  Fe167  1  0.49970347  0.83325212  0.50053976  1
  Fe  Fe168  1  0.74945998  0.33340141  0.62395843  1
  Fe  Fe169  1  0.49939635  0.66651651  0.24977164  1
  Fe  Fe170  1  0.49937681  0.33272249  0.49985636  1
  Fe  Fe171  1  0.00021949  0.33355315  0.50002434  1
  Fe  Fe172  1  0.25004972  0.16670141  0.62531730  1
  Fe  Fe173  1  0.49996661  0.00036569  0.74978033  1
  Fe  Fe174  1  0.49974624  0.83316133  0.25046610  1
  Fe  Fe175  1  0.49931799  0.66698387  0.00034261  1
  Fe  Fe176  1  0.74991661  0.83349956  0.37425828  1
  Fe  Fe177  1  0.24968886  0.00058745  0.87498461  1
  Fe  Fe178  1  0.25080111  0.00082836  0.37584768  1
  Fe  Fe179  1  0.25063150  0.00057888  0.62546790  1
  Fe  Fe180  1  0.00021344  0.49900056  0.74982726  1
  Fe  Fe181  1  0.74959818  0.50031165  0.37532372  1
  Fe  Fe182  1  0.74963985  0.83356577  0.87476872  1
  Fe  Fe183  1  -0.00009518  -0.00058323  0.74939825  1
  Fe  Fe184  1  0.49932663  0.50038744  0.24973423  1
  Fe  Fe185  1  0.25018086  0.33344025  0.62450883  1
  Fe  Fe186  1  0.74992375  0.33322213  0.37564382  1
  Fe  Fe187  1  0.25009755  0.33360499  0.87452678  1
  Fe  Fe188  1  0.49976990  0.83342576  0.75015526  1
  Fe  Fe189  1  0.49989313  0.16612444  0.50136445  1
  Fe  Fe190  1  0.25040770  0.49960222  0.12512282  1
  Fe  Fe191  1  0.49985209  0.33337479  0.75007549  1
  P  P192  1  0.04194456  0.25162837  0.10301822  1
  P  P193  1  0.04211828  0.24952537  0.35321284  1
  P  P194  1  0.04243155  0.25115699  0.60229315  1
  P  P195  1  0.04357050  0.25041740  0.85322813  1
  P  P196  1  0.04281302  0.58315225  0.10439705  1
  P  P197  1  0.04111831  0.58259080  0.35192531  1
  P  P198  1  0.04267473  0.58124300  0.60230086  1
  P  P199  1  0.04295982  0.58123114  0.85206129  1
  P  P200  1  0.04317159  0.91683718  0.10341800  1
  P  P201  1  0.04336948  0.91624165  0.35368946  1
  P  P202  1  0.04252014  0.91539837  0.60236992  1
  P  P203  1  0.04215259  0.91774807  0.85215247  1
  P  P204  1  0.54225300  0.24910511  0.10227095  1
  P  P205  1  0.54219809  0.24996360  0.35453450  1
  P  P206  1  0.54061476  0.24998045  0.60232726  1
  P  P207  1  0.54158603  0.25026551  0.85142326  1
  P  P208  1  0.54098290  0.58387108  0.10208777  1
  P  P209  1  0.54081203  0.58321864  0.35133049  1
  P  P210  1  0.54321816  0.58389824  0.60327077  1
  P  P211  1  0.54227757  0.58490260  0.85294430  1
  P  P212  1  0.54209015  0.91616289  0.10343301  1
  P  P213  1  0.54169865  0.91524854  0.35343965  1
  P  P214  1  0.54104471  0.91630340  0.60253102  1
  P  P215  1  0.54085664  0.91707984  0.85128535  1
  P  P216  1  0.45684772  0.08371882  0.14677613  1
  P  P217  1  0.45878560  0.08296263  0.39980794  1
  P  P218  1  0.45892768  0.08345920  0.64811964  1
  P  P219  1  0.45819207  0.08535474  0.89633862  1
  P  P220  1  0.45801307  0.41845351  0.14708820  1
  P  P221  1  0.45790721  0.41580450  0.39754296  1
  P  P222  1  0.45837858  0.41479209  0.64710235  1
  P  P223  1  0.45798422  0.41812238  0.89719965  1
  P  P224  1  0.45816352  0.74994020  0.14866957  1
  P  P225  1  0.45783739  0.75131656  0.39740591  1
  P  P226  1  0.45875727  0.75027392  0.64853512  1
  P  P227  1  0.45783441  0.74883297  0.89693934  1
  P  P228  1  0.95751351  0.08536998  0.14795063  1
  P  P229  1  0.95702828  0.08404571  0.39625675  1
  P  P230  1  0.95804302  0.08187637  0.64730104  1
  P  P231  1  0.95692847  0.08303505  0.89630960  1
  P  P232  1  0.95720672  0.41757439  0.14795574  1
  P  P233  1  0.95870348  0.41693003  0.39819968  1
  P  P234  1  0.95819792  0.41771238  0.64627471  1
  P  P235  1  0.95791479  0.41555655  0.89727420  1
  P  P236  1  0.95761439  0.74848618  0.14784953  1
  P  P237  1  0.95845376  0.75035734  0.39699888  1
  P  P238  1  0.95730473  0.74952814  0.64579314  1
  P  P239  1  0.95711237  0.74945862  0.89647896  1
  P  P240  1  0.20779114  0.08373440  0.22940133  1
  P  P241  1  0.20919129  0.08373670  0.47786658  1
  P  P242  1  0.20908167  0.08336782  0.72703695  1
  P  P243  1  0.20765537  0.08289270  0.97724754  1
  P  P244  1  0.20910568  0.41655086  0.22712184  1
  P  P245  1  0.20829269  0.41762054  0.47801425  1
  P  P246  1  0.20905106  0.41647195  0.72620030  1
  P  P247  1  0.20837080  0.41502437  0.97830187  1
  P  P248  1  0.20797124  0.74964270  0.22949396  1
  P  P249  1  0.20819444  0.74852932  0.47785821  1
  P  P250  1  0.20756279  0.75045493  0.72888700  1
  P  P251  1  0.20798883  0.75079481  0.97759469  1
  P  P252  1  0.70740215  0.08197643  0.22810702  1
  P  P253  1  0.70764348  0.08518814  0.47788989  1
  P  P254  1  0.70732810  0.08397748  0.72656334  1
  P  P255  1  0.70654859  0.08248467  0.97839757  1
  P  P256  1  0.70705698  0.41686708  0.22970970  1
  P  P257  1  0.70861179  0.41667654  0.47675537  1
  P  P258  1  0.70719548  0.41533300  0.72641814  1
  P  P259  1  0.70654089  0.41671624  0.97797555  1
  P  P260  1  0.70789488  0.75117659  0.22786831  1
  P  P261  1  0.70821285  0.75022006  0.47569042  1
  P  P262  1  0.70752094  0.74877716  0.72667868  1
  P  P263  1  0.70744403  0.75198592  0.97728624  1
  P  P264  1  0.29229969  0.25170080  0.02232738  1
  P  P265  1  0.29265363  0.24927921  0.27300905  1
  P  P266  1  0.29124054  0.24949886  0.52354814  1
  P  P267  1  0.29230381  0.25160198  0.77155636  1
  P  P268  1  0.29248173  0.58179342  0.02295571  1
  P  P269  1  0.29122219  0.58251823  0.27360257  1
  P  P270  1  0.29253248  0.58193365  0.52183907  1
  P  P271  1  0.29336642  0.58253308  0.77144490  1
  P  P272  1  0.29279232  0.91673018  0.02123764  1
  P  P273  1  0.29325686  0.91822925  0.27383393  1
  P  P274  1  0.29242798  0.91850565  0.52308525  1
  P  P275  1  0.29119236  0.91758744  0.77349385  1
  P  P276  1  0.79282504  0.24978369  0.02213406  1
  P  P277  1  0.79115918  0.24966151  0.27407586  1
  P  P278  1  0.79104399  0.25021614  0.52250265  1
  P  P279  1  0.79215860  0.24960903  0.77034460  1
  P  P280  1  0.79275924  0.58358989  0.02165043  1
  P  P281  1  0.79082308  0.58337008  0.27356692  1
  P  P282  1  0.79153847  0.58480312  0.52076941  1
  P  P283  1  0.79274838  0.58334581  0.77055226  1
  P  P284  1  0.79109252  0.91636854  0.02324681  1
  P  P285  1  0.79195653  0.91548609  0.27159090  1
  P  P286  1  0.79260059  0.91645974  0.52047516  1
  P  P287  1  0.79171303  0.91507599  0.77193170  1
  O  O288  1  0.03667824  0.25094338  0.18302143  1
  O  O289  1  0.03690300  0.25035471  0.43317022  1
  O  O290  1  0.03782970  0.25089492  0.68229092  1
  O  O291  1  0.03834601  0.25097725  0.93319101  1
  O  O292  1  0.03720388  0.58343260  0.18431123  1
  O  O293  1  0.03628372  0.58217764  0.43194853  1
  O  O294  1  0.03749165  0.58091518  0.68223008  1
  O  O295  1  0.03793636  0.58160918  0.93208556  1
  O  O296  1  0.03842634  0.91689396  0.18345107  1
  O  O297  1  0.03797772  0.91556827  0.43364001  1
  O  O298  1  0.03679202  0.91643743  0.68231225  1
  O  O299  1  0.03728114  0.91762496  0.93217389  1
  O  O300  1  0.53708600  0.24937317  0.18226223  1
  O  O301  1  0.53666743  0.25017896  0.43444804  1
  O  O302  1  0.53581287  0.25007591  0.68227242  1
  O  O303  1  0.53659431  0.25007351  0.93142211  1
  O  O304  1  0.53551384  0.58366083  0.18201119  1
  O  O305  1  0.53663227  0.58342789  0.43135209  1
  O  O306  1  0.53823992  0.58443963  0.68321198  1
  O  O307  1  0.53639323  0.58459988  0.93280289  1
  O  O308  1  0.53660148  0.91557865  0.18335575  1
  O  O309  1  0.53655218  0.91530600  0.43337403  1
  O  O310  1  0.53622884  0.91675790  0.68244808  1
  O  O311  1  0.53655481  0.91704123  0.93128211  1
  O  O312  1  0.46195160  0.08429807  0.06681273  1
  O  O313  1  0.46292499  0.08278504  0.31978280  1
  O  O314  1  0.46385904  0.08296337  0.56824188  1
  O  O315  1  0.46388900  0.08523776  0.81646750  1
  O  O316  1  0.46336421  0.41869991  0.06714243  1
  O  O317  1  0.46297905  0.41645746  0.31757137  1
  O  O318  1  0.46371835  0.41431166  0.56715050  1
  O  O319  1  0.46341426  0.41718503  0.81724769  1
  O  O320  1  0.46279639  0.74909113  0.06868062  1
  O  O321  1  0.46285821  0.75125846  0.31752121  1
  O  O322  1  0.46367511  0.75116829  0.56854490  1
  O  O323  1  0.46329889  0.74896689  0.81708972  1
  O  O324  1  0.96260624  0.08526534  0.06792334  1
  O  O325  1  0.96231696  0.08491835  0.31633538  1
  O  O326  1  0.96297984  0.08218440  0.56729564  1
  O  O327  1  0.96237094  0.08219348  0.81633532  1
  O  O328  1  0.96225367  0.41653815  0.06800619  1
  O  O329  1  0.96341000  0.41714378  0.31818297  1
  O  O330  1  0.96363689  0.41731610  0.56635903  1
  O  O331  1  0.96328264  0.41642504  0.81731484  1
  O  O332  1  0.96243437  0.74858755  0.06782318  1
  O  O333  1  0.96392133  0.74946530  0.31707279  1
  O  O334  1  0.96287013  0.75014633  0.56585949  1
  O  O335  1  0.96205674  0.74945080  0.81645673  1
  O  O336  1  0.21267992  0.08324071  0.05721988  1
  O  O337  1  0.21345528  0.08390792  0.30933709  1
  O  O338  1  0.21439596  0.08344848  0.55781985  1
  O  O339  1  0.21371503  0.08319204  0.80702020  1
  O  O340  1  0.21385978  0.41539354  0.05817213  1
  O  O341  1  0.21405674  0.41718986  0.30710127  1
  O  O342  1  0.21371146  0.41771993  0.55784369  1
  O  O343  1  0.21392233  0.41560674  0.80619974  1
  O  O344  1  0.21305416  0.75057549  0.05766143  1
  O  O345  1  0.21335216  0.74910604  0.30944672  1
  O  O346  1  0.21298366  0.74874982  0.55786992  1
  O  O347  1  0.21278934  0.75086821  0.80885458  1
  O  O348  1  0.71177392  0.08202335  0.05838509  1
  O  O349  1  0.71277002  0.08283845  0.30807927  1
  O  O350  1  0.71318015  0.08547884  0.55781391  1
  O  O351  1  0.71201070  0.08349107  0.80660836  1
  O  O352  1  0.71141858  0.41680041  0.05805436  1
  O  O353  1  0.71249387  0.41706711  0.30965818  1
  O  O354  1  0.71347425  0.41617272  0.55674418  1
  O  O355  1  0.71213622  0.41561439  0.80641786  1
  O  O356  1  0.71261392  0.75223329  0.05727243  1
  O  O357  1  0.71301533  0.75100557  0.30776269  1
  O  O358  1  0.71305569  0.74920834  0.55565321  1
  O  O359  1  0.71274135  0.74957623  0.80658787  1
  O  O360  1  0.28754345  0.24988072  0.19307061  1
  O  O361  1  0.28674163  0.24888768  0.44353953  1
  O  O362  1  0.28677944  0.25119910  0.69169715  1
  O  O363  1  0.28693111  0.25185702  0.94237216  1
  O  O364  1  0.28635691  0.58247159  0.19360187  1
  O  O365  1  0.28664419  0.58235748  0.44195714  1
  O  O366  1  0.28823618  0.58213353  0.69146956  1
  O  O367  1  0.28778164  0.58203789  0.94296366  1
  O  O368  1  0.28822506  0.91783241  0.19383564  1
  O  O369  1  0.28735239  0.91869263  0.44315327  1
  O  O370  1  0.28613872  0.91798498  0.69347691  1
  O  O371  1  0.28718563  0.91646606  0.94130342  1
  O  O372  1  0.78651851  0.24985643  0.19408585  1
  O  O373  1  0.78590583  0.24975202  0.44256214  1
  O  O374  1  0.78655039  0.24968281  0.69039549  1
  O  O375  1  0.78786263  0.24980782  0.94211489  1
  O  O376  1  0.78662130  0.58353636  0.19352444  1
  O  O377  1  0.78566378  0.58435188  0.44090798  1
  O  O378  1  0.78735173  0.58369214  0.69056449  1
  O  O379  1  0.78795021  0.58358681  0.94163336  1
  O  O380  1  0.78630288  0.91567281  0.19169740  1
  O  O381  1  0.78736299  0.91623454  0.44054860  1
  O  O382  1  0.78689370  0.91545066  0.69192386  1
  O  O383  1  0.78580905  0.91596411  0.94322510  1
  O  O384  1  0.22815268  0.25224096  0.05840609  1
  O  O385  1  0.22838157  0.24876267  0.30871182  1
  O  O386  1  0.22709674  0.24971622  0.55922761  1
  O  O387  1  0.22825649  0.25188822  0.80791554  1
  O  O388  1  0.22809533  0.58160525  0.05823159  1
  O  O389  1  0.22706966  0.58215438  0.30957547  1
  O  O390  1  0.22850371  0.58137045  0.55827559  1
  O  O391  1  0.22906655  0.58275452  0.80676072  1
  O  O392  1  0.22865167  0.91658346  0.05718626  1
  O  O393  1  0.22894451  0.91848433  0.30928451  1
  O  O394  1  0.22810490  0.91872046  0.55857512  1
  O  O395  1  0.22709912  0.91766173  0.80964012  1
  O  O396  1  0.72831347  0.24940334  0.05697893  1
  O  O397  1  0.72691633  0.24976515  0.30963155  1
  O  O398  1  0.72696496  0.25046778  0.55882133  1
  O  O399  1  0.72794106  0.24954261  0.80612666  1
  O  O400  1  0.72822628  0.58386620  0.05645623  1
  O  O401  1  0.72645870  0.58260765  0.30874707  1
  O  O402  1  0.72758079  0.58482419  0.55733379  1
  O  O403  1  0.72846210  0.58362706  0.80605282  1
  O  O404  1  0.72700043  0.91679588  0.05952822  1
  O  O405  1  0.72789693  0.91527576  0.30793643  1
  O  O406  1  0.72828104  0.91660506  0.55576237  1
  O  O407  1  0.72724239  0.91452548  0.80715986  1
  O  O408  1  0.27192452  0.08408998  0.19347983  1
  O  O409  1  0.27329014  0.08400518  0.44157785  1
  O  O410  1  0.27329031  0.08335043  0.69127931  1
  O  O411  1  0.27193999  0.08247781  0.94164352  1
  O  O412  1  0.27321890  0.41617068  0.19108454  1
  O  O413  1  0.27240641  0.41788361  0.44189007  1
  O  O414  1  0.27320024  0.41698882  0.69026385  1
  O  O415  1  0.27248085  0.41451194  0.94195121  1
  O  O416  1  0.27222428  0.74945493  0.19392363  1
  O  O417  1  0.27252686  0.74863662  0.44266340  1
  O  O418  1  0.27187806  0.75025604  0.69353539  1
  O  O419  1  0.27231405  0.75126008  0.94219741  1
  O  O420  1  0.77156541  0.08106706  0.19210927  1
  O  O421  1  0.77175863  0.08497549  0.44186693  1
  O  O422  1  0.77175667  0.08437645  0.69149086  1
  O  O423  1  0.77087901  0.08231152  0.94305518  1
  O  O424  1  0.77130287  0.41674007  0.19403451  1
  O  O425  1  0.77271319  0.41747062  0.44085133  1
  O  O426  1  0.77153090  0.41515427  0.69097628  1
  O  O427  1  0.77106257  0.41663732  0.94313223  1
  O  O428  1  0.77203823  0.75176291  0.19183421  1
  O  O429  1  0.77238006  0.75086746  0.43988077  1
  O  O430  1  0.77176294  0.74814785  0.69077730  1
  O  O431  1  0.77174921  0.75212224  0.94162323  1
  O  O432  1  0.02187346  0.08594173  0.18341348  1
  O  O433  1  0.02135240  0.08360986  0.43156705  1
  O  O434  1  0.02242322  0.08122441  0.68262537  1
  O  O435  1  0.02127207  0.08366682  0.93163900  1
  O  O436  1  0.02158491  0.41823605  0.18341208  1
  O  O437  1  0.02296501  0.41671770  0.43386571  1
  O  O438  1  0.02241745  0.41825262  0.68231669  1
  O  O439  1  0.02217358  0.41481846  0.93312214  1
  O  O440  1  0.02208203  0.74797796  0.18291672  1
  O  O441  1  0.02256388  0.75081470  0.43314349  1
  O  O442  1  0.02148161  0.74967110  0.68145894  1
  O  O443  1  0.02163435  0.74961682  0.93135472  1
  O  O444  1  0.52116058  0.08305815  0.18217512  1
  O  O445  1  0.52305047  0.08319426  0.43507817  1
  O  O446  1  0.52295089  0.08389628  0.68430360  1
  O  O447  1  0.52217529  0.08563012  0.93290728  1
  O  O448  1  0.52215737  0.41865088  0.18309258  1
  O  O449  1  0.52220961  0.41500967  0.43312064  1
  O  O450  1  0.52250073  0.41510656  0.68305611  1
  O  O451  1  0.52210043  0.41864786  0.93319887  1
  O  O452  1  0.52234739  0.75028632  0.18445982  1
  O  O453  1  0.52211130  0.75184803  0.43320487  1
  O  O454  1  0.52292181  0.74990442  0.68437849  1
  O  O455  1  0.52189217  0.74818876  0.93326589  1
  O  O456  1  0.47799939  0.24912327  0.06655493  1
  O  O457  1  0.47804736  0.25034433  0.31866612  1
  O  O458  1  0.47653587  0.25007588  0.56623348  1
  O  O459  1  0.47742115  0.25032789  0.81542815  1
  O  O460  1  0.47700482  0.58386245  0.06542480  1
  O  O461  1  0.47649574  0.58303949  0.31600502  1
  O  O462  1  0.47882635  0.58344183  0.56816533  1
  O  O463  1  0.47834431  0.58497203  0.81627930  1
  O  O464  1  0.47796384  0.91670153  0.06764974  1
  O  O465  1  0.47749845  0.91495430  0.31745168  1
  O  O466  1  0.47693574  0.91575665  0.56648259  1
  O  O467  1  0.47660587  0.91713169  0.81590176  1
  O  O468  1  0.97771413  0.25209788  0.06715718  1
  O  O469  1  0.97783243  0.24921040  0.31755214  1
  O  O470  1  0.97798098  0.25143869  0.56724814  1
  O  O471  1  0.97925072  0.25001729  0.81793794  1
  O  O472  1  0.97861462  0.58283799  0.06859198  1
  O  O473  1  0.97694520  0.58245175  0.31598930  1
  O  O474  1  0.97844745  0.58141318  0.56655357  1
  O  O475  1  0.97858308  0.58080526  0.81654528  1
  O  O476  1  0.97858437  0.91661969  0.06877055  1
  O  O477  1  0.97912091  0.91652784  0.31823369  1
  O  O478  1  0.97835123  0.91439258  0.56630448  1
  O  O479  1  0.97770785  0.91816516  0.81692293  1
  O  O480  1  0.07252475  0.31541893  0.07489447  1
  O  O481  1  0.07339806  0.31293739  0.32505309  1
  O  O482  1  0.07308319  0.31464551  0.57362865  1
  O  O483  1  0.07480564  0.31348562  0.82443263  1
  O  O484  1  0.07405306  0.64632351  0.07557731  1
  O  O485  1  0.07149115  0.64671107  0.32416938  1
  O  O486  1  0.07373646  0.64511694  0.57485659  1
  O  O487  1  0.07373534  0.64494165  0.82402424  1
  O  O488  1  0.07394747  0.98048320  0.07536058  1
  O  O489  1  0.07429120  0.98007117  0.32615817  1
  O  O490  1  0.07343793  0.97894205  0.57409844  1
  O  O491  1  0.07300399  0.98111610  0.82343301  1
  O  O492  1  0.57330366  0.31286320  0.07471806  1
  O  O493  1  0.57375587  0.31297880  0.32587045  1
  O  O494  1  0.57183586  0.31320234  0.57358147  1
  O  O495  1  0.57219056  0.31421683  0.82347844  1
  O  O496  1  0.57187619  0.64766540  0.07407950  1
  O  O497  1  0.57115205  0.64707250  0.32276949  1
  O  O498  1  0.57411633  0.64708977  0.57422364  1
  O  O499  1  0.57331744  0.64827852  0.82442213  1
  O  O500  1  0.57337527  0.97964439  0.07561690  1
  O  O501  1  0.57258250  0.97907357  0.32553978  1
  O  O502  1  0.57139247  0.98017191  0.57359883  1
  O  O503  1  0.57167497  0.98070132  0.82298019  1
  O  O504  1  0.42565734  0.02017901  0.17477144  1
  O  O505  1  0.42837581  0.01919034  0.42837626  1
  O  O506  1  0.42845702  0.01971589  0.67708223  1
  O  O507  1  0.42712828  0.02167637  0.92421446  1
  O  O508  1  0.42724818  0.35450082  0.17465091  1
  O  O509  1  0.42670174  0.35239847  0.42583903  1
  O  O510  1  0.42743020  0.35163522  0.67612844  1
  O  O511  1  0.42690965  0.35469669  0.92553387  1
  O  O512  1  0.42755476  0.68635502  0.17772527  1
  O  O513  1  0.42723451  0.68737940  0.42553491  1
  O  O514  1  0.42785185  0.68642237  0.67600099  1
  O  O515  1  0.42639868  0.68584101  0.92583395  1
  O  O516  1  0.92693414  0.02136037  0.17547952  1
  O  O517  1  0.92588147  0.02033148  0.42372434  1
  O  O518  1  0.92694925  0.01843675  0.67540611  1
  O  O519  1  0.92575896  0.01997003  0.92532633  1
  O  O520  1  0.92618035  0.35427899  0.17671141  1
  O  O521  1  0.92814792  0.35305553  0.42645454  1
  O  O522  1  0.92730838  0.35406405  0.67454988  1
  O  O523  1  0.92708971  0.35188009  0.92531687  1
  O  O524  1  0.92663791  0.68521397  0.17670898  1
  O  O525  1  0.92727432  0.68685250  0.42496061  1
  O  O526  1  0.92664617  0.68554380  0.67331607  1
  O  O527  1  0.92629512  0.68586514  0.92453025  1
  O  O528  1  0.17676557  0.02019466  0.20119161  1
  O  O529  1  0.17839509  0.02009816  0.44929580  1
  O  O530  1  0.17793805  0.02011129  0.69837842  1
  O  O531  1  0.17668516  0.01948705  0.94887676  1
  O  O532  1  0.17817649  0.35267833  0.19955963  1
  O  O533  1  0.17745930  0.35375825  0.45012045  1
  O  O534  1  0.17835267  0.35295096  0.69727679  1
  O  O535  1  0.17715407  0.35192777  0.94938571  1
  O  O536  1  0.17641077  0.68662174  0.20093846  1
  O  O537  1  0.17766652  0.68482043  0.44937174  1
  O  O538  1  0.17644215  0.68690158  0.70086623  1
  O  O539  1  0.17720061  0.68690170  0.94996438  1
  O  O540  1  0.67633931  0.01843175  0.20012870  1
  O  O541  1  0.67652279  0.02136861  0.45055942  1
  O  O542  1  0.67652496  0.02026103  0.69848108  1
  O  O543  1  0.67509444  0.01938365  0.94978930  1
  O  O544  1  0.67579163  0.35340760  0.20151660  1
  O  O545  1  0.67830409  0.35279660  0.44822664  1
  O  O546  1  0.67641307  0.35188341  0.69787181  1
  O  O547  1  0.67557823  0.35318173  0.94986447  1
  O  O548  1  0.67724228  0.68728845  0.19966698  1
  O  O549  1  0.67768738  0.68658953  0.44660812  1
  O  O550  1  0.67673120  0.68521843  0.69829985  1
  O  O551  1  0.67668038  0.68808498  0.94962818  1
  O  O552  1  0.32378254  0.31457353  0.05129387  1
  O  O553  1  0.32352166  0.31290566  0.30130763  1
  O  O554  1  0.32191162  0.31352076  0.55122844  1
  O  O555  1  0.32341718  0.31489088  0.80013201  1
  O  O556  1  0.32337271  0.64548013  0.05095630  1
  O  O557  1  0.32141370  0.64656612  0.30210096  1
  O  O558  1  0.32360778  0.64555522  0.55001785  1
  O  O559  1  0.32438140  0.64613306  0.79944133  1
  O  O560  1  0.32392770  0.98030989  0.04926185  1
  O  O561  1  0.32409769  0.98171708  0.30224001  1
  O  O562  1  0.32358677  0.98155882  0.55211010  1
  O  O563  1  0.32234949  0.98102155  0.80178407  1
  O  O564  1  0.82345038  0.31334315  0.05064087  1
  O  O565  1  0.82183637  0.31337716  0.30263644  1
  O  O566  1  0.82205046  0.31398039  0.55042877  1
  O  O567  1  0.82344136  0.31300090  0.79865553  1
  O  O568  1  0.82370586  0.64715189  0.04987162  1
  O  O569  1  0.82074020  0.64762023  0.30183683  1
  O  O570  1  0.82244653  0.64832839  0.54915032  1
  O  O571  1  0.82434777  0.64631231  0.79903967  1
  O  O572  1  0.82195682  0.98010717  0.05132029  1
  O  O573  1  0.82316358  0.97907570  0.29950088  1
  O  O574  1  0.82362869  0.98007643  0.54847850  1
  O  O575  1  0.82229346  0.97885226  0.80009525  1
  O  O576  1  0.42595649  0.14700256  0.17567608  1
  O  O577  1  0.42793995  0.14658951  0.42807155  1
  O  O578  1  0.42758786  0.14689833  0.67616127  1
  O  O579  1  0.42716565  0.14876383  0.92495661  1
  O  O580  1  0.42690759  0.48158651  0.17601861  1
  O  O581  1  0.42725918  0.47946687  0.42591350  1
  O  O582  1  0.42732340  0.47869634  0.67429850  1
  O  O583  1  0.42708454  0.48177925  0.92507420  1
  O  O584  1  0.42723580  0.81365939  0.17648827  1
  O  O585  1  0.42655584  0.81423928  0.42671444  1
  O  O586  1  0.42805775  0.81382218  0.67751975  1
  O  O587  1  0.42716118  0.81273326  0.92498598  1
  O  O588  1  0.92650637  0.14872973  0.17638629  1
  O  O589  1  0.92584718  0.14708598  0.42531831  1
  O  O590  1  0.92749339  0.14580883  0.67502838  1
  O  O591  1  0.92576579  0.14673599  0.92385992  1
  O  O592  1  0.92637071  0.48117061  0.17619564  1
  O  O593  1  0.92778820  0.48043368  0.42647904  1
  O  O594  1  0.92704350  0.48096012  0.67496388  1
  O  O595  1  0.92691854  0.47898552  0.92568775  1
  O  O596  1  0.92698536  0.81235673  0.17563140  1
  O  O597  1  0.92763172  0.81402003  0.42491470  1
  O  O598  1  0.92553741  0.81241733  0.67427544  1
  O  O599  1  0.92622802  0.81297580  0.92481232  1
  O  O600  1  0.07317475  0.18827436  0.07480700  1
  O  O601  1  0.07280756  0.18594962  0.32482301  1
  O  O602  1  0.07328762  0.18735724  0.57466607  1
  O  O603  1  0.07458681  0.18674844  0.82527355  1
  O  O604  1  0.07412028  0.51972917  0.07622325  1
  O  O605  1  0.07227543  0.51926365  0.32344997  1
  O  O606  1  0.07363986  0.51821166  0.57304558  1
  O  O607  1  0.07374035  0.51765351  0.82387800  1
  O  O608  1  0.07409581  0.85332912  0.07515868  1
  O  O609  1  0.07477472  0.85315740  0.32524337  1
  O  O610  1  0.07366498  0.85178069  0.57468726  1
  O  O611  1  0.07293233  0.85398767  0.82433949  1
  O  O612  1  0.57289107  0.18560921  0.07375106  1
  O  O613  1  0.57306859  0.18628112  0.32638672  1
  O  O614  1  0.57112187  0.18603374  0.57394573  1
  O  O615  1  0.57264433  0.18692319  0.82286360  1
  O  O616  1  0.57208595  0.52046060  0.07353191  1
  O  O617  1  0.57165702  0.51963862  0.32316718  1
  O  O618  1  0.57417352  0.52021608  0.57536786  1
  O  O619  1  0.57359784  0.52137121  0.82494579  1
  O  O620  1  0.57308251  0.85283949  0.07479823  1
  O  O621  1  0.57271614  0.85211822  0.32427463  1
  O  O622  1  0.57249288  0.85307294  0.57412420  1
  O  O623  1  0.57135644  0.85327111  0.82284715  1
  O  O624  1  0.32277191  0.18753718  0.04973244  1
  O  O625  1  0.32364653  0.18594089  0.30159892  1
  O  O626  1  0.32215179  0.18624463  0.55258288  1
  O  O627  1  0.32327985  0.18794998  0.79970035  1
  O  O628  1  0.32306207  0.51828335  0.05159304  1
  O  O629  1  0.32260130  0.51923197  0.30174061  1
  O  O630  1  0.32381911  0.51862245  0.55012677  1
  O  O631  1  0.32449883  0.51925455  0.79985648  1
  O  O632  1  0.32418663  0.85354556  0.04995792  1
  O  O633  1  0.32407782  0.85453201  0.30175878  1
  O  O634  1  0.32302515  0.85447898  0.55078730  1
  O  O635  1  0.32164752  0.85354501  0.80136082  1
  O  O636  1  0.82396348  0.18636831  0.05020686  1
  O  O637  1  0.82185021  0.18590457  0.30200452  1
  O  O638  1  0.82181713  0.18670875  0.55131289  1
  O  O639  1  0.82341589  0.18628045  0.79872914  1
  O  O640  1  0.82356641  0.52018647  0.05014980  1
  O  O641  1  0.82230295  0.52028600  0.30200631  1
  O  O642  1  0.82295575  0.52135438  0.54867721  1
  O  O643  1  0.82330045  0.51941436  0.79841791  1
  O  O644  1  0.82197654  0.85282800  0.05155357  1
  O  O645  1  0.82299615  0.85215982  0.30021488  1
  O  O646  1  0.82380797  0.85323893  0.54883706  1
  O  O647  1  0.82258127  0.85167053  0.80038331  1
  O  O648  1  0.17628765  0.14687527  0.20085285  1
  O  O649  1  0.17807989  0.14729992  0.44965815  1
  O  O650  1  0.17869381  0.14734069  0.69872195  1
  O  O651  1  0.17695552  0.14670045  0.94941440  1
  O  O652  1  0.17850674  0.48007064  0.19821154  1
  O  O653  1  0.17707921  0.48060413  0.44884148  1
  O  O654  1  0.17818162  0.48025106  0.69853758  1
  O  O655  1  0.17753323  0.47877184  0.95009180  1
  O  O656  1  0.17727508  0.81351971  0.20175883  1
  O  O657  1  0.17704422  0.81211446  0.45022807  1
  O  O658  1  0.17642045  0.81373173  0.70040690  1
  O  O659  1  0.17703191  0.81416614  0.94907593  1
  O  O660  1  0.67658845  0.14563559  0.20001844  1
  O  O661  1  0.67670464  0.14846248  0.44921205  1
  O  O662  1  0.67647541  0.14743802  0.69814667  1
  O  O663  1  0.67584205  0.14617143  0.95023621  1
  O  O664  1  0.67594647  0.48017888  0.20103180  1
  O  O665  1  0.67717596  0.48017977  0.44912250  1
  O  O666  1  0.67622127  0.47899340  0.69866373  1
  O  O667  1  0.67572979  0.48018759  0.94956411  1
  O  O668  1  0.67658900  0.81425019  0.19911723  1
  O  O669  1  0.67714378  0.81393494  0.44813533  1
  O  O670  1  0.67653049  0.81226110  0.69830726  1
  O  O671  1  0.67647092  0.81517760  0.94830823  1
