# generated using pymatgen
data_Na2MnFe(PO4)2
_symmetry_space_group_name_H-M   'P 1'
_cell_length_a   22.34607408
_cell_length_b   20.09745575
_cell_length_c   19.44682217
_cell_angle_alpha   90.02577841
_cell_angle_beta   90.04238414
_cell_angle_gamma   90.01574545
_symmetry_Int_Tables_number   1
_chemical_formula_structural   Na2MnFe(PO4)2
_chemical_formula_sum   'Na96 Mn48 Fe48 P96 O384'
_cell_volume   8733.54935580
_cell_formula_units_Z   48
loop_
 _symmetry_equiv_pos_site_id
 _symmetry_equiv_pos_as_xyz
  1  'x, y, z'
loop_
 _atom_site_type_symbol
 _atom_site_label
 _atom_site_symmetry_multiplicity
 _atom_site_fract_x
 _atom_site_fract_y
 _atom_site_fract_z
 _atom_site_occupancy
  Na  Na0  1  0.14018876  0.25102876  0.24442236  1
  Na  Na1  1  0.14035813  0.24788456  0.49359165  1
  Na  Na2  1  0.14018123  0.24890246  0.74380398  1
  Na  Na3  1  0.14036555  0.24933199  0.99453746  1
  Na  Na4  1  0.14019811  0.58348442  0.24482219  1
  Na  Na5  1  0.13953862  0.58243766  0.49268954  1
  Na  Na6  1  0.14008237  0.58400727  0.74386501  1
  Na  Na7  1  0.14039599  0.58358869  0.99525934  1
  Na  Na8  1  0.14000127  0.91725987  0.24425623  1
  Na  Na9  1  0.13954966  0.91565044  0.49316622  1
  Na  Na10  1  0.13995908  0.91784316  0.74190828  1
  Na  Na11  1  0.14035347  0.91685981  0.99437403  1
  Na  Na12  1  0.63992656  0.24915191  0.24256506  1
  Na  Na13  1  0.64019918  0.24877216  0.49432683  1
  Na  Na14  1  0.64001877  0.25009666  0.74382462  1
  Na  Na15  1  0.63998368  0.25010759  0.99245991  1
  Na  Na16  1  0.64020580  0.58381165  0.24491562  1
  Na  Na17  1  0.63974964  0.58360866  0.49344713  1
  Na  Na18  1  0.64090625  0.58426438  0.74324755  1
  Na  Na19  1  0.64086258  0.58435746  0.99336228  1
  Na  Na20  1  0.64026943  0.91603434  0.24432753  1
  Na  Na21  1  0.63994998  0.91502336  0.49340406  1
  Na  Na22  1  0.64017848  0.91718597  0.74300880  1
  Na  Na23  1  0.64082505  0.91705402  0.99210762  1
  Na  Na24  1  0.36005302  0.08375522  0.00518791  1
  Na  Na25  1  0.36017605  0.08536075  0.25677477  1
  Na  Na26  1  0.36025943  0.08233754  0.50723885  1
  Na  Na27  1  0.36027993  0.08368967  0.75531830  1
  Na  Na28  1  0.36008370  0.41624627  0.00721664  1
  Na  Na29  1  0.36073756  0.41766633  0.25736922  1
  Na  Na30  1  0.35972034  0.41542733  0.50587519  1
  Na  Na31  1  0.35969441  0.41611287  0.75563130  1
  Na  Na32  1  0.35992276  0.75114277  0.00586981  1
  Na  Na33  1  0.35980499  0.75095319  0.25656168  1
  Na  Na34  1  0.35969764  0.75029191  0.50658819  1
  Na  Na35  1  0.35938731  0.75225161  0.75493746  1
  Na  Na36  1  0.85964088  0.08286421  0.00491586  1
  Na  Na37  1  0.85974133  0.08108851  0.25646307  1
  Na  Na38  1  0.86023043  0.08159532  0.50683841  1
  Na  Na39  1  0.85969079  0.08250451  0.75592114  1
  Na  Na40  1  0.86023320  0.41748790  0.00695333  1
  Na  Na41  1  0.86049531  0.41713137  0.25725660  1
  Na  Na42  1  0.85936612  0.41675204  0.50699610  1
  Na  Na43  1  0.85908755  0.41736611  0.75663710  1
  Na  Na44  1  0.85929108  0.75121836  0.00506206  1
  Na  Na45  1  0.85966905  0.75021021  0.25743981  1
  Na  Na46  1  0.85980088  0.74884678  0.50730187  1
  Na  Na47  1  0.85885665  0.75042322  0.75573586  1
  Na  Na48  1  0.10987286  0.08375492  0.11935685  1
  Na  Na49  1  0.10964532  0.08277080  0.36902778  1
  Na  Na50  1  0.10975488  0.08147422  0.61739831  1
  Na  Na51  1  0.10996233  0.08191247  0.86757913  1
  Na  Na52  1  0.10920997  0.41669683  0.12004926  1
  Na  Na53  1  0.10894070  0.41660980  0.36920521  1
  Na  Na54  1  0.10892137  0.41608043  0.61822384  1
  Na  Na55  1  0.10930647  0.41655531  0.87040432  1
  Na  Na56  1  0.10956395  0.74945860  0.11998682  1
  Na  Na57  1  0.10938877  0.74965276  0.36855134  1
  Na  Na58  1  0.10865887  0.75041732  0.61734467  1
  Na  Na59  1  0.10935594  0.75067150  0.86854683  1
  Na  Na60  1  0.60969074  0.08377398  0.11755891  1
  Na  Na61  1  0.60950080  0.08394547  0.36927150  1
  Na  Na62  1  0.60939172  0.08322315  0.61904186  1
  Na  Na63  1  0.60985781  0.08478981  0.86763048  1
  Na  Na64  1  0.60954504  0.41614679  0.11928003  1
  Na  Na65  1  0.60905040  0.41633463  0.36883908  1
  Na  Na66  1  0.60942614  0.41624223  0.61883736  1
  Na  Na67  1  0.60949516  0.41589297  0.86858297  1
  Na  Na68  1  0.60985792  0.75022279  0.11875666  1
  Na  Na69  1  0.61015267  0.74951274  0.36947144  1
  Na  Na70  1  0.60974992  0.75000735  0.61675695  1
  Na  Na71  1  0.60992417  0.75156188  0.86745348  1
  Na  Na72  1  0.39113737  0.25066040  0.13178500  1
  Na  Na73  1  0.39070787  0.25055329  0.38128951  1
  Na  Na74  1  0.39069503  0.24842404  0.63114373  1
  Na  Na75  1  0.39072538  0.25002071  0.88044184  1
  Na  Na76  1  0.39079787  0.58365667  0.13194059  1
  Na  Na77  1  0.39089657  0.58393318  0.38175140  1
  Na  Na78  1  0.39048966  0.58272475  0.63009192  1
  Na  Na79  1  0.39076743  0.58359856  0.88157862  1
  Na  Na80  1  0.39115553  0.91773422  0.13082405  1
  Na  Na81  1  0.39089574  0.91777599  0.38284572  1
  Na  Na82  1  0.39001156  0.91764634  0.63099753  1
  Na  Na83  1  0.39023753  0.91910759  0.88027941  1
  Na  Na84  1  0.89074170  0.25057301  0.13100291  1
  Na  Na85  1  0.89077014  0.24980843  0.38145688  1
  Na  Na86  1  0.89041015  0.24761692  0.63130060  1
  Na  Na87  1  0.89045437  0.24990971  0.88152290  1
  Na  Na88  1  0.89060788  0.58309592  0.13143518  1
  Na  Na89  1  0.89036183  0.58406354  0.38302086  1
  Na  Na90  1  0.88935809  0.58394271  0.63174439  1
  Na  Na91  1  0.88977507  0.58282689  0.88175192  1
  Na  Na92  1  0.88976943  0.91673505  0.13124194  1
  Na  Na93  1  0.89075005  0.91575625  0.38152841  1
  Na  Na94  1  0.89002144  0.91564917  0.63103415  1
  Na  Na95  1  0.88981598  0.91660408  0.87994235  1
  Mn  Mn96  1  0.74994145  0.33250824  0.37578169  1
  Mn  Mn97  1  0.74965799  -0.00074157  0.62511239  1
  Mn  Mn98  1  0.50039865  0.00140202  0.00001351  1
  Mn  Mn99  1  0.50082729  0.00126380  0.25044784  1
  Mn  Mn100  1  -0.00050047  0.33294735  0.50025221  1
  Mn  Mn101  1  0.75069603  0.16541823  0.12398360  1
  Mn  Mn102  1  0.25036891  0.50052646  0.87546991  1
  Mn  Mn103  1  0.25036348  0.16618046  0.37546535  1
  Mn  Mn104  1  -0.00045012  0.16683722  0.00000131  1
  Mn  Mn105  1  0.25013229  0.66727825  0.62490762  1
  Mn  Mn106  1  0.25019811  0.16550926  0.87424950  1
  Mn  Mn107  1  0.74928263  -0.00183402  0.37588719  1
  Mn  Mn108  1  0.74947348  0.50074676  0.37606434  1
  Mn  Mn109  1  0.49970681  0.83473700  0.74860458  1
  Mn  Mn110  1  -0.00051393  0.33272215  0.74993347  1
  Mn  Mn111  1  0.75017456  0.33356828  0.12437274  1
  Mn  Mn112  1  0.74935700  0.83402603  0.12475532  1
  Mn  Mn113  1  0.49967445  0.66706027  0.74961409  1
  Mn  Mn114  1  0.75048820  0.50089228  0.12558677  1
  Mn  Mn115  1  0.00083039  0.16495957  0.75031802  1
  Mn  Mn116  1  0.00056994  -0.00056384  -0.00009118  1
  Mn  Mn117  1  0.24933570  0.33211197  0.62548795  1
  Mn  Mn118  1  0.24940041  0.49965258  0.62453299  1
  Mn  Mn119  1  -0.00026670  0.66631763  0.25042174  1
  Mn  Mn120  1  0.50062625  0.49909801  0.00038111  1
  Mn  Mn121  1  0.25015464  0.33288288  0.87525524  1
  Mn  Mn122  1  0.50078558  0.66775871  0.00041413  1
  Mn  Mn123  1  0.00038646  0.83349486  -0.00002819  1
  Mn  Mn124  1  0.50035843  0.49886335  0.75041920  1
  Mn  Mn125  1  0.25038967  0.50125181  0.12634330  1
  Mn  Mn126  1  0.50042094  0.33290471  0.49945217  1
  Mn  Mn127  1  -0.00095762  0.66592127  0.00016291  1
  Mn  Mn128  1  0.75029933  0.66758347  0.12465420  1
  Mn  Mn129  1  0.25000679  0.66782423  0.87448423  1
  Mn  Mn130  1  0.25000602  0.33316430  0.12545631  1
  Mn  Mn131  1  0.75034374  0.33388467  0.87436861  1
  Mn  Mn132  1  -0.00035368  0.49980083  0.75014539  1
  Mn  Mn133  1  0.75028431  0.33284241  0.62584230  1
  Mn  Mn134  1  0.25019926  0.83344053  0.37473956  1
  Mn  Mn135  1  0.00024942  0.66687397  0.75016303  1
  Mn  Mn136  1  0.25067473  0.00109746  0.12497041  1
  Mn  Mn137  1  0.75008293  0.16520396  0.37426662  1
  Mn  Mn138  1  -0.00005197  0.16677756  0.24997789  1
  Mn  Mn139  1  0.25063941  0.83349575  0.12494511  1
  Mn  Mn140  1  0.24932582  0.83505332  0.87522434  1
  Mn  Mn141  1  0.25026191  0.49989018  0.37507113  1
  Mn  Mn142  1  0.50045184  0.83367190  0.25072964  1
  Mn  Mn143  1  0.49950108  0.66632911  0.25001097  1
  Fe  Fe144  1  0.25032153  0.66735678  0.12516635  1
  Fe  Fe145  1  0.25026204  -0.00018390  0.37544257  1
  Fe  Fe146  1  0.24914271  0.83392680  0.62435023  1
  Fe  Fe147  1  0.74942874  0.66660431  0.62557405  1
  Fe  Fe148  1  0.50034088  0.16676484  0.74995298  1
  Fe  Fe149  1  0.74979895  -0.00003285  0.12370659  1
  Fe  Fe150  1  -0.00011295  0.66665911  0.49989643  1
  Fe  Fe151  1  0.75042143  0.83235366  0.37503950  1
  Fe  Fe152  1  0.25014738  -0.00027756  0.62475537  1
  Fe  Fe153  1  0.49951033  0.33266808  0.74940065  1
  Fe  Fe154  1  0.25001414  0.16689994  0.12549709  1
  Fe  Fe155  1  -0.00042867  0.83338100  0.49984784  1
  Fe  Fe156  1  0.24970721  0.00058250  0.87436818  1
  Fe  Fe157  1  0.25017251  0.16556988  0.62425905  1
  Fe  Fe158  1  0.74991852  0.66727564  0.87400463  1
  Fe  Fe159  1  -0.00012762  0.33382640  0.25088355  1
  Fe  Fe160  1  0.25024431  0.66689495  0.37541495  1
  Fe  Fe161  1  0.50037803  0.33307223  0.25010042  1
  Fe  Fe162  1  0.00025100  0.49925938  0.00122421  1
  Fe  Fe163  1  0.75011591  0.16606831  0.62542651  1
  Fe  Fe164  1  -0.00053168  0.83318372  0.74888346  1
  Fe  Fe165  1  0.50042927  0.00077918  0.74971440  1
  Fe  Fe166  1  0.50017904  0.83470569  -0.00068097  1
  Fe  Fe167  1  0.49996844  0.16785258  -0.00069561  1
  Fe  Fe168  1  -0.00021512  0.16575499  0.49975452  1
  Fe  Fe169  1  -0.00025043  -0.00086071  0.49928425  1
  Fe  Fe170  1  -0.00126886  0.49990134  0.49990139  1
  Fe  Fe171  1  -0.00014642  0.49978581  0.25064259  1
  Fe  Fe172  1  0.49993049  0.83380696  0.50034391  1
  Fe  Fe173  1  0.50062482  0.49986292  0.25017760  1
  Fe  Fe174  1  0.25005942  0.33271918  0.37553266  1
  Fe  Fe175  1  0.74998883  0.50089877  0.87502112  1
  Fe  Fe176  1  -0.00059777  -0.00124036  0.74853583  1
  Fe  Fe177  1  0.50029322  0.66627392  0.49954553  1
  Fe  Fe178  1  0.74963423  0.83363718  0.87440911  1
  Fe  Fe179  1  0.74925664  0.50047218  0.62567933  1
  Fe  Fe180  1  -0.00023862  -0.00014535  0.25034491  1
  Fe  Fe181  1  0.50027202  0.00098379  0.50020037  1
  Fe  Fe182  1  0.50017734  0.16735338  0.24968812  1
  Fe  Fe183  1  0.74962660  0.83257351  0.62498464  1
  Fe  Fe184  1  0.49945125  0.49940959  0.49985140  1
  Fe  Fe185  1  0.00032997  0.33359021  0.00090033  1
  Fe  Fe186  1  0.75037972  0.66665089  0.37606810  1
  Fe  Fe187  1  0.49987775  0.33302031  0.00016900  1
  Fe  Fe188  1  -0.00025201  0.83331570  0.25065797  1
  Fe  Fe189  1  0.74964976  0.00029096  0.87383822  1
  Fe  Fe190  1  0.50017445  0.16675182  0.50056376  1
  Fe  Fe191  1  0.75032583  0.16663602  0.87466044  1
  P  P192  1  0.04208018  0.25151160  0.10321703  1
  P  P193  1  0.04182627  0.25069857  0.35310333  1
  P  P194  1  0.04216192  0.24768705  0.60214996  1
  P  P195  1  0.04275103  0.25006323  0.85367125  1
  P  P196  1  0.04202293  0.58176167  0.10350002  1
  P  P197  1  0.04145023  0.58213661  0.35360521  1
  P  P198  1  0.04076592  0.58304665  0.60125158  1
  P  P199  1  0.04257358  0.58270888  0.85388465  1
  P  P200  1  0.04287670  0.91647991  0.10446900  1
  P  P201  1  0.04115147  0.91673852  0.35244686  1
  P  P202  1  0.04063921  0.91633353  0.60154036  1
  P  P203  1  0.04167947  0.91626151  0.85041001  1
  P  P204  1  0.54197383  0.25014722  0.10189527  1
  P  P205  1  0.54169643  0.24957849  0.35178442  1
  P  P206  1  0.54210318  0.24871369  0.60315579  1
  P  P207  1  0.54143992  0.25037244  0.85183181  1
  P  P208  1  0.54312527  0.58293721  0.10365595  1
  P  P209  1  0.54186961  0.58207218  0.35342167  1
  P  P210  1  0.54113211  0.58260483  0.60125858  1
  P  P211  1  0.54298179  0.58342136  0.85290189  1
  P  P212  1  0.54296715  0.91639205  0.10206594  1
  P  P213  1  0.54261170  0.91745042  0.35466035  1
  P  P214  1  0.54116819  0.91763922  0.60159711  1
  P  P215  1  0.54210557  0.91859112  0.85213780  1
  P  P216  1  0.45817939  0.08551405  0.14721924  1
  P  P217  1  0.45886596  0.08452060  0.39843107  1
  P  P218  1  0.45915519  0.08341318  0.64766598  1
  P  P219  1  0.45854112  0.08556403  0.89650866  1
  P  P220  1  0.45912035  0.41631560  0.14858199  1
  P  P221  1  0.45787722  0.41755566  0.39680039  1
  P  P222  1  0.45772439  0.41522458  0.64695859  1
  P  P223  1  0.45771115  0.41469114  0.89745785  1
  P  P224  1  0.45742814  0.75095924  0.14669627  1
  P  P225  1  0.45884791  0.75037087  0.39884057  1
  P  P226  1  0.45764365  0.75034469  0.64525435  1
  P  P227  1  0.45811233  0.75227066  0.89723599  1
  P  P228  1  0.95774937  0.08221552  0.14777789  1
  P  P229  1  0.95851310  0.08248299  0.39781908  1
  P  P230  1  0.95801501  0.08116268  0.64625962  1
  P  P231  1  0.95762225  0.08228943  0.89610666  1
  P  P232  1  0.95858414  0.41660039  0.14844661  1
  P  P233  1  0.95720934  0.41762683  0.39729973  1
  P  P234  1  0.95656137  0.41655610  0.64653671  1
  P  P235  1  0.95822550  0.41641676  0.89914487  1
  P  P236  1  0.95735581  0.75100133  0.14815158  1
  P  P237  1  0.95881847  0.75042343  0.39844898  1
  P  P238  1  0.95766353  0.75069211  0.64650926  1
  P  P239  1  0.95729662  0.75039215  0.89631560  1
  P  P240  1  0.20788443  0.08479017  0.22814313  1
  P  P241  1  0.20829010  0.08117601  0.47830281  1
  P  P242  1  0.20834931  0.08291605  0.72612217  1
  P  P243  1  0.20740994  0.08231702  0.97749306  1
  P  P244  1  0.20783220  0.41674364  0.22927831  1
  P  P245  1  0.20738763  0.41471160  0.47741902  1
  P  P246  1  0.20656645  0.41659255  0.72827903  1
  P  P247  1  0.20762426  0.41668953  0.97884089  1
  P  P248  1  0.20807057  0.74903932  0.22810150  1
  P  P249  1  0.20763531  0.74938323  0.47755789  1
  P  P250  1  0.20701026  0.75218989  0.72685360  1
  P  P251  1  0.20692789  0.75038900  0.97852843  1
  P  P252  1  0.70769548  0.08108342  0.22677465  1
  P  P253  1  0.70744469  0.08269972  0.47888549  1
  P  P254  1  0.70810901  0.08427089  0.72804278  1
  P  P255  1  0.70852775  0.08298626  0.97593457  1
  P  P256  1  0.70749402  0.41684857  0.22842074  1
  P  P257  1  0.70704711  0.41665401  0.47924915  1
  P  P258  1  0.70789893  0.41833883  0.72806359  1
  P  P259  1  0.70803326  0.41832765  0.97697452  1
  P  P260  1  0.70734953  0.75016661  0.22890283  1
  P  P261  1  0.70887018  0.74961152  0.47760897  1
  P  P262  1  0.70804377  0.75024618  0.72692368  1
  P  P263  1  0.70841352  0.75028852  0.97563336  1
  P  P264  1  0.29253984  0.24831033  0.02282723  1
  P  P265  1  0.29236587  0.25105874  0.27282103  1
  P  P266  1  0.29237084  0.24831672  0.52225790  1
  P  P267  1  0.29270256  0.24914548  0.77116156  1
  P  P268  1  0.29292754  0.58510611  0.02302602  1
  P  P269  1  0.29261993  0.58545631  0.27278508  1
  P  P270  1  0.29225278  0.58347096  0.52118309  1
  P  P271  1  0.29320556  0.58399932  0.77169271  1
  P  P272  1  0.29330901  0.91761997  0.02147472  1
  P  P273  1  0.29293902  0.91853298  0.27287530  1
  P  P274  1  0.29117255  0.91663510  0.52283321  1
  P  P275  1  0.29171348  0.91892377  0.77132873  1
  P  P276  1  0.79279312  0.24963721  0.02079403  1
  P  P277  1  0.79297527  0.24930922  0.27168225  1
  P  P278  1  0.79220553  0.24806067  0.52302233  1
  P  P279  1  0.79232760  0.24838972  0.77209387  1
  P  P280  1  0.79290513  0.58399528  0.02100513  1
  P  P281  1  0.79270234  0.58493520  0.27358639  1
  P  P282  1  0.79067040  0.58361143  0.52391641  1
  P  P283  1  0.79122123  0.58381192  0.77270487  1
  P  P284  1  0.79183126  0.91804894  0.02105496  1
  P  P285  1  0.79210075  0.91507704  0.27261333  1
  P  P286  1  0.79167926  0.91402001  0.52249332  1
  P  P287  1  0.79070154  0.91633205  0.77254981  1
  O  O288  1  0.03662751  0.25171959  0.18316583  1
  O  O289  1  0.03617071  0.24962612  0.43299866  1
  O  O290  1  0.03724914  0.24781893  0.68212845  1
  O  O291  1  0.03743061  0.25060053  0.93363746  1
  O  O292  1  0.03659840  0.58172915  0.18346967  1
  O  O293  1  0.03589333  0.58241199  0.43346430  1
  O  O294  1  0.03634832  0.58347718  0.68130188  1
  O  O295  1  0.03735526  0.58227577  0.93384067  1
  O  O296  1  0.03759950  0.91654717  0.18438194  1
  O  O297  1  0.03577232  0.91713774  0.43233529  1
  O  O298  1  0.03564675  0.91599412  0.68141952  1
  O  O299  1  0.03701603  0.91642984  0.93043855  1
  O  O300  1  0.53680555  0.24996225  0.18180175  1
  O  O301  1  0.53700925  0.24951451  0.43174608  1
  O  O302  1  0.53651744  0.24907327  0.68297370  1
  O  O303  1  0.53617873  0.25049739  0.93172996  1
  O  O304  1  0.53766393  0.58262734  0.18362418  1
  O  O305  1  0.53613987  0.58215828  0.43329362  1
  O  O306  1  0.53638027  0.58309811  0.68123718  1
  O  O307  1  0.53819400  0.58361012  0.93289223  1
  O  O308  1  0.53800887  0.91677575  0.18207405  1
  O  O309  1  0.53694925  0.91732964  0.43453682  1
  O  O310  1  0.53628811  0.91828086  0.68158276  1
  O  O311  1  0.53702389  0.91779903  0.93207127  1
  O  O312  1  0.46338815  0.08555545  0.06726928  1
  O  O313  1  0.46371209  0.08443585  0.31847346  1
  O  O314  1  0.46422779  0.08335303  0.56776851  1
  O  O315  1  0.46401905  0.08527368  0.81664270  1
  O  O316  1  0.46398210  0.41538474  0.06861204  1
  O  O317  1  0.46338018  0.41752469  0.31697532  1
  O  O318  1  0.46302291  0.41593927  0.56701579  1
  O  O319  1  0.46280243  0.41459457  0.81747707  1
  O  O320  1  0.46274645  0.75148305  0.06675334  1
  O  O321  1  0.46347533  0.75012548  0.31882439  1
  O  O322  1  0.46323525  0.75017449  0.56537807  1
  O  O323  1  0.46312987  0.75189151  0.81719347  1
  O  O324  1  0.96281149  0.08243796  0.06778855  1
  O  O325  1  0.96349997  0.08250486  0.31783713  1
  O  O326  1  0.96332938  0.08157475  0.56634354  1
  O  O327  1  0.96280024  0.08162181  0.81611941  1
  O  O328  1  0.96418515  0.41662675  0.06854085  1
  O  O329  1  0.96279932  0.41743314  0.31741854  1
  O  O330  1  0.96152220  0.41704981  0.56656576  1
  O  O331  1  0.96299267  0.41632075  0.81911413  1
  O  O332  1  0.96251570  0.75050325  0.06818562  1
  O  O333  1  0.96338033  0.75055546  0.31849224  1
  O  O334  1  0.96295289  0.75033805  0.56664073  1
  O  O335  1  0.96258111  0.75083466  0.81634504  1
  O  O336  1  0.21256067  0.08338844  0.05742257  1
  O  O337  1  0.21298985  0.08419398  0.30808946  1
  O  O338  1  0.21366192  0.08131747  0.55819870  1
  O  O339  1  0.21309738  0.08232898  0.80614998  1
  O  O340  1  0.21285586  0.41683035  0.05884839  1
  O  O341  1  0.21314720  0.41607482  0.30921656  1
  O  O342  1  0.21216432  0.41500251  0.55743071  1
  O  O343  1  0.21195699  0.41675359  0.80826057  1
  O  O344  1  0.21233570  0.74993360  0.05849724  1
  O  O345  1  0.21356148  0.74891786  0.30807209  1
  O  O346  1  0.21275200  0.75044294  0.55749119  1
  O  O347  1  0.21208831  0.75226547  0.80683319  1
  O  O348  1  0.71359319  0.08239996  0.05593516  1
  O  O349  1  0.71244617  0.08116022  0.30680181  1
  O  O350  1  0.71274537  0.08336635  0.55883623  1
  O  O351  1  0.71367733  0.08421836  0.80791802  1
  O  O352  1  0.71297254  0.41790480  0.05699233  1
  O  O353  1  0.71227765  0.41655070  0.30845163  1
  O  O354  1  0.71237366  0.41710652  0.55922153  1
  O  O355  1  0.71359201  0.41873356  0.80799233  1
  O  O356  1  0.71308549  0.75088464  0.05562382  1
  O  O357  1  0.71261399  0.75011340  0.30883144  1
  O  O358  1  0.71367171  0.74993485  0.55754439  1
  O  O359  1  0.71312347  0.75009523  0.80679648  1
  O  O360  1  0.28718838  0.25024594  0.19289039  1
  O  O361  1  0.28695531  0.24915514  0.44230815  1
  O  O362  1  0.28736494  0.24850496  0.69123436  1
  O  O363  1  0.28751013  0.24850038  0.94282386  1
  O  O364  1  0.28752873  0.58577339  0.19279367  1
  O  O365  1  0.28701573  0.58382148  0.44120987  1
  O  O366  1  0.28802358  0.58373577  0.69168058  1
  O  O367  1  0.28793863  0.58461739  0.94300651  1
  O  O368  1  0.28807276  0.91827821  0.19290915  1
  O  O369  1  0.28647601  0.91684289  0.44283266  1
  O  O370  1  0.28627828  0.91856714  0.69139916  1
  O  O371  1  0.28798290  0.91806153  0.94149227  1
  O  O372  1  0.78808636  0.24949072  0.19164252  1
  O  O373  1  0.78715816  0.24831115  0.44302060  1
  O  O374  1  0.78701773  0.24809711  0.69211666  1
  O  O375  1  0.78750016  0.24949574  0.94081316  1
  O  O376  1  0.78800621  0.58472659  0.19357794  1
  O  O377  1  0.78601764  0.58434025  0.44393350  1
  O  O378  1  0.78553591  0.58325120  0.69282026  1
  O  O379  1  0.78768147  0.58366436  0.94106141  1
  O  O380  1  0.78735549  0.91569402  0.19267037  1
  O  O381  1  0.78641416  0.91357743  0.44257555  1
  O  O382  1  0.78562305  0.91537888  0.69261306  1
  O  O383  1  0.78626604  0.91803813  0.94119171  1
  O  O384  1  0.22815109  0.24837391  0.05818270  1
  O  O385  1  0.22809382  0.25124148  0.30848912  1
  O  O386  1  0.22809993  0.24737159  0.55791891  1
  O  O387  1  0.22843936  0.24929776  0.80657000  1
  O  O388  1  0.22855232  0.58531315  0.05845308  1
  O  O389  1  0.22832421  0.58517264  0.30835493  1
  O  O390  1  0.22790741  0.58367597  0.55643240  1
  O  O391  1  0.22870048  0.58389155  0.80652375  1
  O  O392  1  0.22902302  0.91736220  0.05683356  1
  O  O393  1  0.22847293  0.91831681  0.30799778  1
  O  O394  1  0.22695489  0.91679553  0.55852354  1
  O  O395  1  0.22753355  0.91920236  0.80742991  1
  O  O396  1  0.72851223  0.24941790  0.05618955  1
  O  O397  1  0.72842008  0.24919543  0.30641766  1
  O  O398  1  0.72793139  0.24833988  0.55851127  1
  O  O399  1  0.72812484  0.24891674  0.80778266  1
  O  O400  1  0.72862929  0.58397717  0.05660190  1
  O  O401  1  0.72822106  0.58550520  0.30868238  1
  O  O402  1  0.72645149  0.58312135  0.55954871  1
  O  O403  1  0.72732284  0.58422107  0.80942661  1
  O  O404  1  0.72769473  0.91833142  0.05729519  1
  O  O405  1  0.72775339  0.91448963  0.30801043  1
  O  O406  1  0.72747661  0.91447920  0.55829846  1
  O  O407  1  0.72668795  0.91717969  0.80864434  1
  O  O408  1  0.27220167  0.08554451  0.19253757  1
  O  O409  1  0.27248690  0.08122596  0.44240239  1
  O  O410  1  0.27262636  0.08331849  0.69044086  1
  O  O411  1  0.27177083  0.08140500  0.94189397  1
  O  O412  1  0.27210830  0.41689371  0.19388909  1
  O  O413  1  0.27182336  0.41471964  0.44228590  1
  O  O414  1  0.27099308  0.41638998  0.69322841  1
  O  O415  1  0.27203188  0.41659137  0.94372951  1
  O  O416  1  0.27226291  0.74887959  0.19214256  1
  O  O417  1  0.27196409  0.74902798  0.44199190  1
  O  O418  1  0.27140374  0.75238842  0.69158683  1
  O  O419  1  0.27123546  0.75120891  0.94313146  1
  O  O420  1  0.77216492  0.08083458  0.19162917  1
  O  O421  1  0.77170712  0.08209744  0.44347276  1
  O  O422  1  0.77216205  0.08384721  0.69181961  1
  O  O423  1  0.77263047  0.08270377  0.93987675  1
  O  O424  1  0.77199963  0.41679401  0.19358402  1
  O  O425  1  0.77135276  0.41667804  0.44388950  1
  O  O426  1  0.77199307  0.41832859  0.69203679  1
  O  O427  1  0.77240366  0.41825936  0.94175848  1
  O  O428  1  0.77160940  0.75068244  0.19330283  1
  O  O429  1  0.77298015  0.74906375  0.44140660  1
  O  O430  1  0.77212327  0.75035954  0.69071256  1
  O  O431  1  0.77259889  0.74951525  0.93996217  1
  O  O432  1  0.02204113  0.08223906  0.18334700  1
  O  O433  1  0.02265124  0.08245158  0.43381866  1
  O  O434  1  0.02217664  0.08037232  0.68239852  1
  O  O435  1  0.02189989  0.08316023  0.93157745  1
  O  O436  1  0.02250049  0.41652547  0.18529224  1
  O  O437  1  0.02129285  0.41789219  0.43358885  1
  O  O438  1  0.02104422  0.41634338  0.68152774  1
  O  O439  1  0.02242925  0.41637586  0.93510988  1
  O  O440  1  0.02161430  0.75132408  0.18395144  1
  O  O441  1  0.02294763  0.75042375  0.43424481  1
  O  O442  1  0.02183105  0.75129133  0.68264794  1
  O  O443  1  0.02153590  0.74961280  0.93191034  1
  O  O444  1  0.52248318  0.08572213  0.18298112  1
  O  O445  1  0.52300478  0.08501797  0.43444389  1
  O  O446  1  0.52309469  0.08351162  0.68430933  1
  O  O447  1  0.52256025  0.08587159  0.93293772  1
  O  O448  1  0.52321356  0.41687333  0.18466377  1
  O  O449  1  0.52197434  0.41771029  0.43312055  1
  O  O450  1  0.52194956  0.41450602  0.68288610  1
  O  O451  1  0.52205595  0.41445573  0.93310284  1
  O  O452  1  0.52174250  0.75018050  0.18213620  1
  O  O453  1  0.52305527  0.75123139  0.43448839  1
  O  O454  1  0.52183175  0.75060077  0.68111497  1
  O  O455  1  0.52247103  0.75259455  0.93277294  1
  O  O456  1  0.47781276  0.25025859  0.06554009  1
  O  O457  1  0.47749578  0.24924618  0.31588160  1
  O  O458  1  0.47805943  0.24869793  0.56670113  1
  O  O459  1  0.47750630  0.25013738  0.81512208  1
  O  O460  1  0.47888059  0.58328485  0.06809187  1
  O  O461  1  0.47788474  0.58140645  0.31680811  1
  O  O462  1  0.47698298  0.58257540  0.56542649  1
  O  O463  1  0.47847436  0.58315661  0.81801873  1
  O  O464  1  0.47858262  0.91630159  0.06659624  1
  O  O465  1  0.47854004  0.91778947  0.31849563  1
  O  O466  1  0.47707800  0.91689537  0.56559090  1
  O  O467  1  0.47785816  0.91908195  0.81632811  1
  O  O468  1  0.97793022  0.25168234  0.06708021  1
  O  O469  1  0.97776985  0.25103339  0.31685802  1
  O  O470  1  0.97777847  0.24795028  0.56680958  1
  O  O471  1  0.97844548  0.24899156  0.81815967  1
  O  O472  1  0.97783754  0.58124008  0.06747835  1
  O  O473  1  0.97741851  0.58201128  0.31725613  1
  O  O474  1  0.97642440  0.58286196  0.56587970  1
  O  O475  1  0.97820458  0.58338427  0.81849696  1
  O  O476  1  0.97859245  0.91652522  0.06877116  1
  O  O477  1  0.97719307  0.91619559  0.31582241  1
  O  O478  1  0.97659248  0.91688244  0.56528484  1
  O  O479  1  0.97731028  0.91613322  0.81472610  1
  O  O480  1  0.07328759  0.31466202  0.07458795  1
  O  O481  1  0.07248040  0.31454630  0.32531348  1
  O  O482  1  0.07341916  0.31125210  0.57452973  1
  O  O483  1  0.07332990  0.31358554  0.82497411  1
  O  O484  1  0.07256974  0.64582698  0.07594989  1
  O  O485  1  0.07267566  0.64574110  0.32562763  1
  O  O486  1  0.07123428  0.64692958  0.57284003  1
  O  O487  1  0.07391168  0.64610439  0.82573737  1
  O  O488  1  0.07409379  0.97977960  0.07578858  1
  O  O489  1  0.07178543  0.98046441  0.32388295  1
  O  O490  1  0.07220104  0.97947265  0.57315130  1
  O  O491  1  0.07222869  0.98000646  0.82211242  1
  O  O492  1  0.57288973  0.31376759  0.07356677  1
  O  O493  1  0.57182846  0.31368516  0.32335817  1
  O  O494  1  0.57347758  0.31206986  0.57492864  1
  O  O495  1  0.57227894  0.31393596  0.82324370  1
  O  O496  1  0.57438739  0.64648400  0.07583450  1
  O  O497  1  0.57263611  0.64603194  0.32572637  1
  O  O498  1  0.57179657  0.64637097  0.57276351  1
  O  O499  1  0.57374094  0.64692291  0.82444286  1
  O  O500  1  0.57381359  0.98009380  0.07411843  1
  O  O501  1  0.57402980  0.98073527  0.32633780  1
  O  O502  1  0.57165166  0.98140028  0.57310095  1
  O  O503  1  0.57282242  0.98231519  0.82404156  1
  O  O504  1  0.42753691  0.02157997  0.17508779  1
  O  O505  1  0.42872379  0.02046328  0.42701870  1
  O  O506  1  0.42834614  0.01969186  0.67602090  1
  O  O507  1  0.42745257  0.02196638  0.92458564  1
  O  O508  1  0.42862490  0.35268748  0.17759332  1
  O  O509  1  0.42687439  0.35381926  0.42471811  1
  O  O510  1  0.42676750  0.35159923  0.67490677  1
  O  O511  1  0.42655673  0.35161607  0.92631906  1
  O  O512  1  0.42609017  0.68751616  0.17468074  1
  O  O513  1  0.42893658  0.68610282  0.42694357  1
  O  O514  1  0.42642521  0.68704953  0.67377865  1
  O  O515  1  0.42723347  0.68855183  0.92507469  1
  O  O516  1  0.92715177  0.01866021  0.17636321  1
  O  O517  1  0.92728410  0.01903642  0.42591161  1
  O  O518  1  0.92665658  0.01785505  0.67465446  1
  O  O519  1  0.92677597  0.01886540  0.92461137  1
  O  O520  1  0.92750485  0.35301434  0.17663457  1
  O  O521  1  0.92603691  0.35401842  0.42522490  1
  O  O522  1  0.92578149  0.35277227  0.67449025  1
  O  O523  1  0.92748766  0.35268606  0.92720540  1
  O  O524  1  0.92649414  0.68722224  0.17594657  1
  O  O525  1  0.92838784  0.68646407  0.42682172  1
  O  O526  1  0.92681878  0.68706236  0.67481718  1
  O  O527  1  0.92587432  0.68703834  0.92426447  1
  O  O528  1  0.17699003  0.02121326  0.19995052  1
  O  O529  1  0.17749399  0.01775144  0.44936347  1
  O  O530  1  0.17749293  0.01950962  0.69736324  1
  O  O531  1  0.17650483  0.01872825  0.94919440  1
  O  O532  1  0.17635212  0.35373685  0.20060855  1
  O  O533  1  0.17686516  0.35095359  0.44917648  1
  O  O534  1  0.17542175  0.35306385  0.70034912  1
  O  O535  1  0.17666534  0.35307357  0.95086042  1
  O  O536  1  0.17690864  0.68582230  0.19947571  1
  O  O537  1  0.17694153  0.68563401  0.44948434  1
  O  O538  1  0.17607140  0.68833183  0.69930641  1
  O  O539  1  0.17608391  0.68697333  0.94985225  1
  O  O540  1  0.67691667  0.01769030  0.19803866  1
  O  O541  1  0.67624251  0.01902407  0.45131192  1
  O  O542  1  0.67659804  0.02077393  0.70020876  1
  O  O543  1  0.67701127  0.01994110  0.94726771  1
  O  O544  1  0.67648530  0.35348571  0.19982039  1
  O  O545  1  0.67619024  0.35283834  0.45135763  1
  O  O546  1  0.67698131  0.35427773  0.70090430  1
  O  O547  1  0.67687238  0.35474437  0.94898750  1
  O  O548  1  0.67649610  0.68663281  0.20026319  1
  O  O549  1  0.67770918  0.68605568  0.44934758  1
  O  O550  1  0.67744034  0.68651708  0.69806598  1
  O  O551  1  0.67701749  0.68693270  0.94774717  1
  O  O552  1  0.32369466  0.31189725  0.05070767  1
  O  O553  1  0.32302724  0.31477487  0.30111357  1
  O  O554  1  0.32326391  0.31185967  0.55052922  1
  O  O555  1  0.32363665  0.31283901  0.79912976  1
  O  O556  1  0.32360006  0.64877593  0.05119656  1
  O  O557  1  0.32349532  0.64867765  0.30192330  1
  O  O558  1  0.32375739  0.64656267  0.54956945  1
  O  O559  1  0.32398050  0.64781511  0.79952378  1
  O  O560  1  0.32464906  0.98083873  0.04991047  1
  O  O561  1  0.32338873  0.98219284  0.30151954  1
  O  O562  1  0.32255582  0.97986588  0.55128014  1
  O  O563  1  0.32264085  0.98236056  0.80005685  1
  O  O564  1  0.82361393  0.31333980  0.04893096  1
  O  O565  1  0.82388570  0.31263366  0.30039978  1
  O  O566  1  0.82355930  0.31157127  0.55079981  1
  O  O567  1  0.82363410  0.31221551  0.79937346  1
  O  O568  1  0.82390302  0.64759892  0.04928691  1
  O  O569  1  0.82364642  0.64826182  0.30232668  1
  O  O570  1  0.82121251  0.64724270  0.55286607  1
  O  O571  1  0.82240066  0.64756764  0.80037090  1
  O  O572  1  0.82278951  0.98133610  0.05014908  1
  O  O573  1  0.82303652  0.97855582  0.30116121  1
  O  O574  1  0.82278601  0.97786107  0.54991780  1
  O  O575  1  0.82209113  0.97998065  0.79992085  1
  O  O576  1  0.42705383  0.14860891  0.17609005  1
  O  O577  1  0.42741872  0.14771828  0.42668177  1
  O  O578  1  0.42810978  0.14689724  0.67600861  1
  O  O579  1  0.42736590  0.14881985  0.92516818  1
  O  O580  1  0.42801443  0.48007965  0.17610113  1
  O  O581  1  0.42676173  0.48074374  0.42574870  1
  O  O582  1  0.42680792  0.47873812  0.67533279  1
  O  O583  1  0.42712339  0.47867940  0.92536700  1
  O  O584  1  0.42656260  0.81431492  0.17547272  1
  O  O585  1  0.42725071  0.81363490  0.42674722  1
  O  O586  1  0.42633159  0.81377858  0.67341689  1
  O  O587  1  0.42741481  0.81598722  0.92526676  1
  O  O588  1  0.92656452  0.14585625  0.17533187  1
  O  O589  1  0.92792899  0.14634948  0.42611797  1
  O  O590  1  0.92726240  0.14477118  0.67470270  1
  O  O591  1  0.92623435  0.14571235  0.92397332  1
  O  O592  1  0.92758720  0.48025539  0.17665828  1
  O  O593  1  0.92609856  0.48096051  0.42596070  1
  O  O594  1  0.92549640  0.47974102  0.67539303  1
  O  O595  1  0.92762571  0.48024239  0.92717285  1
  O  O596  1  0.92649294  0.81444726  0.17648179  1
  O  O597  1  0.92770812  0.81378661  0.42693176  1
  O  O598  1  0.92650543  0.81402307  0.67510420  1
  O  O599  1  0.92649153  0.81390552  0.92473739  1
  O  O600  1  0.07281245  0.18749127  0.07571892  1
  O  O601  1  0.07331675  0.18744299  0.32492871  1
  O  O602  1  0.07257945  0.18402300  0.57352720  1
  O  O603  1  0.07438384  0.18672886  0.82583170  1
  O  O604  1  0.07335175  0.51861141  0.07504569  1
  O  O605  1  0.07252916  0.51882179  0.32497564  1
  O  O606  1  0.07169218  0.51944515  0.57324673  1
  O  O607  1  0.07336757  0.51931138  0.82516729  1
  O  O608  1  0.07393375  0.85307244  0.07588529  1
  O  O609  1  0.07237352  0.85312320  0.32456351  1
  O  O610  1  0.07100533  0.85247322  0.57273857  1
  O  O611  1  0.07236241  0.85254713  0.82230754  1
  O  O612  1  0.57278933  0.18664596  0.07307300  1
  O  O613  1  0.57304173  0.18640290  0.32327925  1
  O  O614  1  0.57292493  0.18520130  0.57463215  1
  O  O615  1  0.57256907  0.18680300  0.82365743  1
  O  O616  1  0.57423751  0.51959062  0.07531506  1
  O  O617  1  0.57332557  0.51898339  0.32481340  1
  O  O618  1  0.57193071  0.51880314  0.57357586  1
  O  O619  1  0.57388323  0.51982926  0.82485070  1
  O  O620  1  0.57358704  0.85284600  0.07355865  1
  O  O621  1  0.57370500  0.85395234  0.32645519  1
  O  O622  1  0.57248898  0.85403728  0.57392188  1
  O  O623  1  0.57320078  0.85529778  0.82350174  1
  O  O624  1  0.32288261  0.18463065  0.05137942  1
  O  O625  1  0.32358248  0.18773793  0.30119869  1
  O  O626  1  0.32333125  0.18468751  0.55023670  1
  O  O627  1  0.32398376  0.18595819  0.79963410  1
  O  O628  1  0.32386982  0.52146022  0.05112097  1
  O  O629  1  0.32361108  0.52154545  0.30013266  1
  O  O630  1  0.32292306  0.51958220  0.54898385  1
  O  O631  1  0.32434125  0.52069110  0.80008482  1
  O  O632  1  0.32431087  0.85408459  0.04963063  1
  O  O633  1  0.32407936  0.85498752  0.30076723  1
  O  O634  1  0.32143746  0.85262053  0.55108166  1
  O  O635  1  0.32287085  0.85540553  0.79943895  1
  O  O636  1  0.82426740  0.18640765  0.04894195  1
  O  O637  1  0.82384969  0.18558705  0.29951687  1
  O  O638  1  0.82266023  0.18429871  0.55131757  1
  O  O639  1  0.82307624  0.18504760  0.80090682  1
  O  O640  1  0.82409173  0.52084927  0.05004282  1
  O  O641  1  0.82320194  0.52111065  0.30165770  1
  O  O642  1  0.82171943  0.51997073  0.55178677  1
  O  O643  1  0.82212629  0.52028005  0.80132800  1
  O  O644  1  0.82283576  0.85438304  0.04907131  1
  O  O645  1  0.82291460  0.85161050  0.30133068  1
  O  O646  1  0.82251471  0.85082554  0.55149163  1
  O  O647  1  0.82109802  0.85264003  0.80146896  1
  O  O648  1  0.17709329  0.14839561  0.19975496  1
  O  O649  1  0.17702503  0.14465318  0.45027726  1
  O  O650  1  0.17763232  0.14674998  0.69814633  1
  O  O651  1  0.17656708  0.14573375  0.94880688  1
  O  O652  1  0.17698800  0.48062163  0.20171593  1
  O  O653  1  0.17638745  0.47830757  0.44951581  1
  O  O654  1  0.17559135  0.48002910  0.69992577  1
  O  O655  1  0.17668200  0.48023577  0.95084400  1
  O  O656  1  0.17735207  0.81309505  0.20072367  1
  O  O657  1  0.17655273  0.81272843  0.44900523  1
  O  O658  1  0.17628543  0.81555554  0.69801860  1
  O  O659  1  0.17549763  0.81382013  0.95064524  1
  O  O660  1  0.67704304  0.14491390  0.19882103  1
  O  O661  1  0.67641135  0.14588444  0.45005419  1
  O  O662  1  0.67744420  0.14779364  0.69930868  1
  O  O663  1  0.67829560  0.14729087  0.94831160  1
  O  O664  1  0.67678780  0.48060517  0.20056913  1
  O  O665  1  0.67575659  0.47978680  0.45066596  1
  O  O666  1  0.67664053  0.48142233  0.69932709  1
  O  O667  1  0.67736007  0.48190964  0.94859538  1
  O  O668  1  0.67581954  0.81324241  0.20020627  1
  O  O669  1  0.67838722  0.81326580  0.44875944  1
  O  O670  1  0.67688293  0.81367204  0.69851393  1
  O  O671  1  0.67833552  0.81433321  0.94707107  1
