# generated using pymatgen
data_Na2MnFe(PO4)2
_symmetry_space_group_name_H-M   'P 1'
_cell_length_a   22.34407869
_cell_length_b   20.10090089
_cell_length_c   19.44952829
_cell_angle_alpha   90.02561106
_cell_angle_beta   90.12029157
_cell_angle_gamma   90.03041866
_symmetry_Int_Tables_number   1
_chemical_formula_structural   Na2MnFe(PO4)2
_chemical_formula_sum   'Na96 Mn48 Fe48 P96 O384'
_cell_volume   8735.46414061
_cell_formula_units_Z   48
loop_
 _symmetry_equiv_pos_site_id
 _symmetry_equiv_pos_as_xyz
  1  'x, y, z'
loop_
 _atom_site_type_symbol
 _atom_site_label
 _atom_site_symmetry_multiplicity
 _atom_site_fract_x
 _atom_site_fract_y
 _atom_site_fract_z
 _atom_site_occupancy
  Na  Na0  1  0.13966060  0.24916636  0.24468209  1
  Na  Na1  1  0.13995180  0.24935416  0.49207288  1
  Na  Na2  1  0.14011731  0.24926978  0.74381147  1
  Na  Na3  1  0.14024168  0.24909270  0.99396197  1
  Na  Na4  1  0.13962236  0.58266440  0.24340599  1
  Na  Na5  1  0.14020056  0.58208038  0.49308099  1
  Na  Na6  1  0.14027794  0.58148199  0.74438873  1
  Na  Na7  1  0.13958825  0.58273892  0.99420748  1
  Na  Na8  1  0.14012971  0.91661407  0.24427409  1
  Na  Na9  1  0.14014928  0.91745103  0.49344801  1
  Na  Na10  1  0.14006349  0.91640027  0.74484251  1
  Na  Na11  1  0.13988188  0.91627891  0.99383622  1
  Na  Na12  1  0.63954036  0.25035086  0.24245505  1
  Na  Na13  1  0.63963179  0.25128955  0.49271530  1
  Na  Na14  1  0.64026061  0.25073571  0.74341445  1
  Na  Na15  1  0.63986378  0.25006664  0.99339925  1
  Na  Na16  1  0.63990527  0.58322086  0.24459690  1
  Na  Na17  1  0.63987848  0.58454153  0.49262818  1
  Na  Na18  1  0.64006302  0.58374657  0.74294924  1
  Na  Na19  1  0.63991807  0.58266688  0.99365272  1
  Na  Na20  1  0.64001946  0.91709379  0.24449095  1
  Na  Na21  1  0.63955478  0.91602490  0.49335437  1
  Na  Na22  1  0.63975195  0.91745872  0.74284993  1
  Na  Na23  1  0.64007066  0.91709138  0.99363493  1
  Na  Na24  1  0.36048711  0.08308468  0.00599643  1
  Na  Na25  1  0.36056589  0.08427714  0.25837467  1
  Na  Na26  1  0.36061452  0.08465788  0.50657697  1
  Na  Na27  1  0.36055396  0.08365508  0.75628231  1
  Na  Na28  1  0.36055764  0.41672499  0.00617458  1
  Na  Na29  1  0.36032436  0.41531105  0.25689487  1
  Na  Na30  1  0.36024301  0.41692892  0.50678594  1
  Na  Na31  1  0.36023711  0.41659605  0.75534469  1
  Na  Na32  1  0.35985310  0.74960734  0.00552809  1
  Na  Na33  1  0.35993367  0.75018176  0.25709895  1
  Na  Na34  1  0.36005465  0.75032956  0.50702338  1
  Na  Na35  1  0.35947269  0.74950886  0.75568996  1
  Na  Na36  1  0.85990808  0.08403456  0.00717707  1
  Na  Na37  1  0.85985159  0.08385686  0.25618591  1
  Na  Na38  1  0.86029329  0.08284324  0.50666633  1
  Na  Na39  1  0.86025524  0.08396543  0.75648815  1
  Na  Na40  1  0.85985959  0.41672734  0.00708110  1
  Na  Na41  1  0.86010363  0.41686183  0.25677695  1
  Na  Na42  1  0.86044422  0.41738737  0.50546729  1
  Na  Na43  1  0.85980845  0.41745994  0.75518159  1
  Na  Na44  1  0.86002835  0.75022306  0.00704763  1
  Na  Na45  1  0.86001595  0.74912490  0.25734899  1
  Na  Na46  1  0.85947276  0.74936381  0.50537324  1
  Na  Na47  1  0.85922629  0.75080174  0.75659469  1
  Na  Na48  1  0.10950129  0.08256444  0.11936289  1
  Na  Na49  1  0.10959487  0.08298523  0.36832456  1
  Na  Na50  1  0.10910719  0.08443444  0.61833931  1
  Na  Na51  1  0.10949709  0.08272168  0.86967227  1
  Na  Na52  1  0.10912742  0.41650473  0.11928890  1
  Na  Na53  1  0.10916857  0.41546451  0.36809168  1
  Na  Na54  1  0.10936157  0.41512428  0.61727979  1
  Na  Na55  1  0.10942540  0.41624937  0.86906322  1
  Na  Na56  1  0.10856868  0.74964851  0.11881750  1
  Na  Na57  1  0.10891818  0.74891233  0.36842583  1
  Na  Na58  1  0.10941243  0.74946627  0.61851730  1
  Na  Na59  1  0.10898937  0.74968310  0.86960176  1
  Na  Na60  1  0.60936752  0.08441990  0.11870949  1
  Na  Na61  1  0.60902685  0.08479652  0.36843617  1
  Na  Na62  1  0.60894014  0.08402101  0.61878561  1
  Na  Na63  1  0.60938778  0.08306711  0.86826159  1
  Na  Na64  1  0.60909962  0.41510029  0.11813375  1
  Na  Na65  1  0.60926966  0.41754709  0.36847836  1
  Na  Na66  1  0.60929667  0.41832186  0.61749339  1
  Na  Na67  1  0.60989575  0.41663206  0.86875618  1
  Na  Na68  1  0.60927692  0.74863969  0.12007757  1
  Na  Na69  1  0.60961455  0.75129644  0.36898194  1
  Na  Na70  1  0.60912587  0.75180170  0.61691309  1
  Na  Na71  1  0.60884109  0.75045247  0.86757880  1
  Na  Na72  1  0.39119972  0.24929085  0.13181026  1
  Na  Na73  1  0.39073541  0.25056671  0.38263267  1
  Na  Na74  1  0.39068911  0.25087847  0.63038103  1
  Na  Na75  1  0.39159428  0.25006331  0.88085310  1
  Na  Na76  1  0.39093957  0.58173168  0.13089002  1
  Na  Na77  1  0.39111152  0.58424169  0.38243457  1
  Na  Na78  1  0.39051641  0.58452896  0.63133192  1
  Na  Na79  1  0.39050601  0.58133761  0.88081330  1
  Na  Na80  1  0.39083434  0.91703123  0.13188527  1
  Na  Na81  1  0.39114488  0.91827278  0.38253768  1
  Na  Na82  1  0.39092403  0.91818769  0.63127053  1
  Na  Na83  1  0.39058139  0.91790727  0.88073854  1
  Na  Na84  1  0.89039703  0.24997096  0.13184496  1
  Na  Na85  1  0.89076768  0.24953615  0.38039509  1
  Na  Na86  1  0.89095423  0.25015997  0.62977763  1
  Na  Na87  1  0.89095952  0.24948599  0.88204991  1
  Na  Na88  1  0.89090913  0.58309565  0.13163298  1
  Na  Na89  1  0.89022523  0.58181909  0.38165171  1
  Na  Na90  1  0.89003700  0.58199525  0.63028894  1
  Na  Na91  1  0.89015221  0.58337177  0.88217174  1
  Na  Na92  1  0.89079911  0.91599402  0.13129899  1
  Na  Na93  1  0.89065798  0.91602941  0.38163239  1
  Na  Na94  1  0.89031152  0.91776377  0.63124071  1
  Na  Na95  1  0.89051503  0.91718242  0.88261962  1
  Mn  Mn96  1  0.74929655  0.83434184  0.87555573  1
  Mn  Mn97  1  0.25062639  0.00003272  0.12556909  1
  Mn  Mn98  1  0.75066791  0.33450442  0.87430355  1
  Mn  Mn99  1  -0.00009392  0.00102547  0.75115038  1
  Mn  Mn100  1  0.24962274  0.66531905  0.87538241  1
  Mn  Mn101  1  0.75032564  0.33439651  0.37428378  1
  Mn  Mn102  1  0.25044801  0.16634214  0.12551849  1
  Mn  Mn103  1  0.24919350  0.83386934  0.37582885  1
  Mn  Mn104  1  0.74991636  0.16722767  0.37463306  1
  Mn  Mn105  1  0.24980146  0.83328893  0.87506810  1
  Mn  Mn106  1  -0.00021281  0.83348870  0.75038549  1
  Mn  Mn107  1  0.49941930  0.66520879  -0.00119513  1
  Mn  Mn108  1  0.50017064  0.66685138  0.74929322  1
  Mn  Mn109  1  0.75012271  0.16720923  0.62507919  1
  Mn  Mn110  1  0.50068624  0.00093374  0.00023213  1
  Mn  Mn111  1  0.74958878  -0.00051379  0.37546763  1
  Mn  Mn112  1  -0.00051952  0.66532228  0.49888982  1
  Mn  Mn113  1  -0.00013014  0.33228431  0.74946708  1
  Mn  Mn114  1  0.75047470  0.49958816  0.12484946  1
  Mn  Mn115  1  0.74929946  0.66663372  0.87464785  1
  Mn  Mn116  1  0.75053143  0.16676217  0.87480234  1
  Mn  Mn117  1  0.24963853  0.16729175  0.62505759  1
  Mn  Mn118  1  0.25085391  0.49910999  0.37529509  1
  Mn  Mn119  1  0.25008891  0.33294189  0.12502495  1
  Mn  Mn120  1  0.74981413  0.66637259  0.12552818  1
  Mn  Mn121  1  0.75010005  0.33500080  0.62410216  1
  Mn  Mn122  1  0.25033900  0.83357637  0.12529879  1
  Mn  Mn123  1  0.25114369  0.16596823  0.87446461  1
  Mn  Mn124  1  0.24974532  0.66659205  0.37506293  1
  Mn  Mn125  1  0.74951593  -0.00050171  0.62507093  1
  Mn  Mn126  1  -0.00030742  -0.00033905  0.24984266  1
  Mn  Mn127  1  -0.00003586  0.49944338  0.75008146  1
  Mn  Mn128  1  -0.00019711  0.66617891  0.75030076  1
  Mn  Mn129  1  0.49982641  0.49987993  0.25048114  1
  Mn  Mn130  1  0.00019086  0.33262759  0.00052619  1
  Mn  Mn131  1  0.74991241  0.66677297  0.62476889  1
  Mn  Mn132  1  0.74964335  0.83331400  0.12512905  1
  Mn  Mn133  1  0.25018420  0.66628633  0.12489442  1
  Mn  Mn134  1  0.25064615  0.33349051  0.87456754  1
  Mn  Mn135  1  0.24960008  0.49919519  0.62445524  1
  Mn  Mn136  1  0.49991743  0.83328791  0.00019099  1
  Mn  Mn137  1  -0.00048389  0.83347351  0.49984108  1
  Mn  Mn138  1  0.75057665  0.00057120  0.12531791  1
  Mn  Mn139  1  0.50050002  0.33381085  0.74976537  1
  Mn  Mn140  1  0.24972513  0.00029554  0.62466059  1
  Mn  Mn141  1  0.49970694  0.83378787  0.25051465  1
  Mn  Mn142  1  0.25044371  0.83281434  0.62496886  1
  Mn  Mn143  1  0.25013243  0.49941448  0.12558912  1
  Fe  Fe144  1  0.24933235  0.66577133  0.62549347  1
  Fe  Fe145  1  0.74948669  0.16677689  0.12460650  1
  Fe  Fe146  1  0.74950661  0.50085533  0.62443531  1
  Fe  Fe147  1  0.50058866  0.49885854  0.00037744  1
  Fe  Fe148  1  0.49991118  0.00062759  0.74951166  1
  Fe  Fe149  1  0.00057008  0.16641375  0.00075363  1
  Fe  Fe150  1  0.24996585  0.16696035  0.37538474  1
  Fe  Fe151  1  0.75039813  0.83300779  0.37490533  1
  Fe  Fe152  1  -0.00010667  -0.00004760  0.00071139  1
  Fe  Fe153  1  0.50011131  0.16743856  0.25037220  1
  Fe  Fe154  1  0.74988358  0.66639111  0.37560737  1
  Fe  Fe155  1  0.49982511  0.16656933  0.00016499  1
  Fe  Fe156  1  -0.00010109  0.33267555  0.49904574  1
  Fe  Fe157  1  0.00048840  0.49912551  0.49920515  1
  Fe  Fe158  1  0.50009648  0.33260681  -0.00016828  1
  Fe  Fe159  1  0.75008918  0.83338167  0.62496105  1
  Fe  Fe160  1  0.75009667  0.00041493  0.87512541  1
  Fe  Fe161  1  0.74934376  0.50010168  0.37470282  1
  Fe  Fe162  1  0.24975339  0.33276585  0.37553536  1
  Fe  Fe163  1  0.50056191  0.16728665  0.74964772  1
  Fe  Fe164  1  0.24991795  0.33305297  0.62476720  1
  Fe  Fe165  1  0.25008602  0.49898063  0.87431035  1
  Fe  Fe166  1  -0.00003702  0.33273267  0.24994908  1
  Fe  Fe167  1  0.75009855  0.50037868  0.87486123  1
  Fe  Fe168  1  0.49952708  0.83416383  0.74867035  1
  Fe  Fe169  1  0.49978886  0.66686910  0.25066294  1
  Fe  Fe170  1  -0.00035169  0.66629220  0.00101158  1
  Fe  Fe171  1  0.25081738  0.00048873  0.37507043  1
  Fe  Fe172  1  -0.00016307  0.83263015  0.00099720  1
  Fe  Fe173  1  0.49981022  0.66798888  0.50048021  1
  Fe  Fe174  1  0.49994956  0.33309827  0.24982154  1
  Fe  Fe175  1  0.00001962  0.16660122  0.74981407  1
  Fe  Fe176  1  0.50022181  0.00149138  0.50055093  1
  Fe  Fe177  1  0.00010680  0.83301127  0.24977986  1
  Fe  Fe178  1  0.00003653  0.49941581  0.00057726  1
  Fe  Fe179  1  0.50032062  0.00105562  0.25083143  1
  Fe  Fe180  1  0.74952820  0.33365275  0.12498143  1
  Fe  Fe181  1  0.50020606  0.50104760  0.49936736  1
  Fe  Fe182  1  -0.00034530  0.49950372  0.24981979  1
  Fe  Fe183  1  -0.00031846  0.66581210  0.24964446  1
  Fe  Fe184  1  -0.00040284  0.16597432  0.25014170  1
  Fe  Fe185  1  -0.00013513  0.16661960  0.49929947  1
  Fe  Fe186  1  0.49979616  0.83477265  0.49949582  1
  Fe  Fe187  1  0.00030474  0.00018317  0.49981417  1
  Fe  Fe188  1  0.50065383  0.16740122  0.49976447  1
  Fe  Fe189  1  0.50021256  0.33387684  0.50000911  1
  Fe  Fe190  1  0.25011172  -0.00024175  0.87493321  1
  Fe  Fe191  1  0.50025317  0.50020134  0.74912928  1
  P  P192  1  0.04224135  0.24840489  0.10359054  1
  P  P193  1  0.04068751  0.24919226  0.35203936  1
  P  P194  1  0.04154258  0.24941474  0.60096357  1
  P  P195  1  0.04217778  0.24808407  0.85275276  1
  P  P196  1  0.04075680  0.58271325  0.10273950  1
  P  P197  1  0.04101579  0.58193533  0.35138111  1
  P  P198  1  0.04222718  0.58152775  0.60177682  1
  P  P199  1  0.04222203  0.58291579  0.85448812  1
  P  P200  1  0.04110441  0.91600730  0.10220657  1
  P  P201  1  0.04198265  0.91563375  0.35255279  1
  P  P202  1  0.04221081  0.91823442  0.60244214  1
  P  P203  1  0.04227404  0.91666448  0.85466237  1
  P  P204  1  0.54121537  0.24956582  0.10203523  1
  P  P205  1  0.54137609  0.25096515  0.35219541  1
  P  P206  1  0.54150994  0.25059600  0.60154638  1
  P  P207  1  0.54258681  0.24899980  0.85276038  1
  P  P208  1  0.54221190  0.58158407  0.10267299  1
  P  P209  1  0.54164989  0.58522716  0.35355832  1
  P  P210  1  0.54129825  0.58416317  0.60132995  1
  P  P211  1  0.54215468  0.58152572  0.85206297  1
  P  P212  1  0.54278135  0.91719392  0.10383901  1
  P  P213  1  0.54181848  0.91889954  0.35351091  1
  P  P214  1  0.54084274  0.91779358  0.60198576  1
  P  P215  1  0.54111750  0.91688631  0.85083620  1
  P  P216  1  0.45874631  0.08388576  0.14895223  1
  P  P217  1  0.45924952  0.08416991  0.39821767  1
  P  P218  1  0.45907749  0.08430102  0.64768996  1
  P  P219  1  0.45834898  0.08482807  0.89678201  1
  P  P220  1  0.45800478  0.41490440  0.14728506  1
  P  P221  1  0.45894132  0.41672615  0.39845195  1
  P  P222  1  0.45835555  0.41830525  0.64635736  1
  P  P223  1  0.45922511  0.41629700  0.89814158  1
  P  P224  1  0.45757294  0.74837847  0.14785984  1
  P  P225  1  0.45870797  0.75066704  0.39840749  1
  P  P226  1  0.45796165  0.75172024  0.64627170  1
  P  P227  1  0.45735714  0.75035353  0.89579360  1
  P  P228  1  0.95790878  0.08421643  0.14706099  1
  P  P229  1  0.95846393  0.08328241  0.39796468  1
  P  P230  1  0.95796361  0.08487418  0.64694345  1
  P  P231  1  0.95872039  0.08376176  0.89903945  1
  P  P232  1  0.95865112  0.41634985  0.14830401  1
  P  P233  1  0.95896915  0.41622956  0.39709108  1
  P  P234  1  0.95775580  0.41606140  0.64557052  1
  P  P235  1  0.95769050  0.41708460  0.89814309  1
  P  P236  1  0.95863058  0.74965603  0.14803135  1
  P  P237  1  0.95735518  0.74950207  0.39561153  1
  P  P238  1  0.95688150  0.74970213  0.64687508  1
  P  P239  1  0.95839443  0.74988526  0.89925806  1
  P  P240  1  0.20781437  0.08341441  0.22957793  1
  P  P241  1  0.20873633  0.08348841  0.47638280  1
  P  P242  1  0.20729469  0.08302737  0.72838191  1
  P  P243  1  0.20812324  0.08196032  0.97740802  1
  P  P244  1  0.20727422  0.41544746  0.22902862  1
  P  P245  1  0.20782000  0.41487558  0.47766278  1
  P  P246  1  0.20745957  0.41504250  0.72724818  1
  P  P247  1  0.20772359  0.41734689  0.97731762  1
  P  P248  1  0.20684308  0.74997278  0.22822762  1
  P  P249  1  0.20674870  0.74939589  0.47888999  1
  P  P250  1  0.20742145  0.74822079  0.72748892  1
  P  P251  1  0.20697479  0.74964927  0.97819484  1
  P  P252  1  0.70753467  0.08474031  0.22730675  1
  P  P253  1  0.70707467  0.08343462  0.47802049  1
  P  P254  1  0.70727725  0.08340845  0.72850159  1
  P  P255  1  0.70792251  0.08283642  0.97767501  1
  P  P256  1  0.70748386  0.41606990  0.22745783  1
  P  P257  1  0.70753729  0.41880699  0.47729090  1
  P  P258  1  0.70757179  0.41900995  0.72709852  1
  P  P259  1  0.70806450  0.41755942  0.97745657  1
  P  P260  1  0.70749612  0.74991642  0.22945256  1
  P  P261  1  0.70878870  0.75044149  0.47676590  1
  P  P262  1  0.70727682  0.75150675  0.72695985  1
  P  P263  1  0.70638332  0.74996425  0.97804938  1
  P  P264  1  0.29332347  0.24960889  0.02197079  1
  P  P265  1  0.29169678  0.25007319  0.27415048  1
  P  P266  1  0.29176148  0.25140578  0.52169142  1
  P  P267  1  0.29357717  0.25034935  0.77115590  1
  P  P268  1  0.29293396  0.58224387  0.02143177  1
  P  P269  1  0.29332165  0.58288537  0.27223409  1
  P  P270  1  0.29229812  0.58422157  0.52288943  1
  P  P271  1  0.29221295  0.58153410  0.77200734  1
  P  P272  1  0.29332385  0.91694508  0.02153190  1
  P  P273  1  0.29285977  0.91769222  0.27331563  1
  P  P274  1  0.29277929  0.91726204  0.52143321  1
  P  P275  1  0.29240012  0.91757430  0.77247075  1
  P  P276  1  0.79127181  0.25054154  0.02364935  1
  P  P277  1  0.79228431  0.25050194  0.27048963  1
  P  P278  1  0.79272640  0.25083689  0.52142049  1
  P  P279  1  0.79342870  0.25075556  0.77170081  1
  P  P280  1  0.79285930  0.58323243  0.02159222  1
  P  P281  1  0.79121635  0.58305714  0.27379368  1
  P  P282  1  0.79164745  0.58244260  0.52145567  1
  P  P283  1  0.79212494  0.58227962  0.77207754  1
  P  P284  1  0.79278777  0.91725544  0.02181695  1
  P  P285  1  0.79237437  0.91572916  0.27294963  1
  P  P286  1  0.79189753  0.91466148  0.52214326  1
  P  P287  1  0.79227907  0.91810335  0.77263626  1
  O  O288  1  0.03679133  0.24851388  0.18340569  1
  O  O289  1  0.03557472  0.24953306  0.43190184  1
  O  O290  1  0.03689242  0.24935142  0.68093536  1
  O  O291  1  0.03713812  0.24813136  0.93268468  1
  O  O292  1  0.03565779  0.58270364  0.18265112  1
  O  O293  1  0.03625906  0.58166025  0.43133260  1
  O  O294  1  0.03719522  0.58193186  0.68173369  1
  O  O295  1  0.03693818  0.58285261  0.93439066  1
  O  O296  1  0.03603821  0.91586201  0.18217409  1
  O  O297  1  0.03666929  0.91660670  0.43244924  1
  O  O298  1  0.03710949  0.91831165  0.68241528  1
  O  O299  1  0.03693668  0.91634245  0.93452101  1
  O  O300  1  0.53634411  0.24995160  0.18190086  1
  O  O301  1  0.53664084  0.25089963  0.43206059  1
  O  O302  1  0.53686491  0.25013844  0.68147784  1
  O  O303  1  0.53700930  0.24904126  0.93256294  1
  O  O304  1  0.53688452  0.58226690  0.18255875  1
  O  O305  1  0.53612248  0.58538480  0.43339173  1
  O  O306  1  0.53670766  0.58340480  0.68129058  1
  O  O307  1  0.53680639  0.58125767  0.93196627  1
  O  O308  1  0.53751527  0.91762339  0.18376106  1
  O  O309  1  0.53620998  0.91903972  0.43335760  1
  O  O310  1  0.53568148  0.91703977  0.68185977  1
  O  O311  1  0.53668804  0.91706572  0.93086296  1
  O  O312  1  0.46352526  0.08447178  0.06899127  1
  O  O313  1  0.46404555  0.08408192  0.31834798  1
  O  O314  1  0.46411177  0.08373077  0.56782597  1
  O  O315  1  0.46372241  0.08478720  0.81696808  1
  O  O316  1  0.46351517  0.41508916  0.06747884  1
  O  O317  1  0.46352095  0.41643324  0.31852032  1
  O  O318  1  0.46368053  0.41813111  0.56654989  1
  O  O319  1  0.46392614  0.41638978  0.81819964  1
  O  O320  1  0.46280292  0.74837119  0.06789859  1
  O  O321  1  0.46341732  0.75027515  0.31844030  1
  O  O322  1  0.46348660  0.75142947  0.56639673  1
  O  O323  1  0.46280375  0.75095352  0.81585000  1
  O  O324  1  0.96330561  0.08397104  0.06726278  1
  O  O325  1  0.96339278  0.08325249  0.31800732  1
  O  O326  1  0.96337128  0.08446994  0.56710227  1
  O  O327  1  0.96339019  0.08398161  0.81905747  1
  O  O328  1  0.96375993  0.41642702  0.06838461  1
  O  O329  1  0.96383881  0.41622614  0.31719220  1
  O  O330  1  0.96324304  0.41616062  0.56569798  1
  O  O331  1  0.96275687  0.41647300  0.81819797  1
  O  O332  1  0.96367766  0.74950263  0.06810796  1
  O  O333  1  0.96284386  0.74970835  0.31574847  1
  O  O334  1  0.96185681  0.74967512  0.56690821  1
  O  O335  1  0.96309174  0.74968255  0.81925214  1
  O  O336  1  0.21325187  0.08239041  0.05743041  1
  O  O337  1  0.21295501  0.08334199  0.30952743  1
  O  O338  1  0.21278260  0.08396374  0.55643019  1
  O  O339  1  0.21269879  0.08240134  0.80830277  1
  O  O340  1  0.21268748  0.41703019  0.05734260  1
  O  O341  1  0.21246647  0.41495372  0.30899556  1
  O  O342  1  0.21277962  0.41478783  0.55763522  1
  O  O343  1  0.21296409  0.41591043  0.80718277  1
  O  O344  1  0.21214111  0.74987042  0.05815872  1
  O  O345  1  0.21156102  0.75016924  0.30827271  1
  O  O346  1  0.21203453  0.74876973  0.55886992  1
  O  O347  1  0.21269466  0.74847276  0.80745928  1
  O  O348  1  0.71338195  0.08371891  0.05764429  1
  O  O349  1  0.71219848  0.08455370  0.30730008  1
  O  O350  1  0.71217255  0.08345573  0.55798022  1
  O  O351  1  0.71258685  0.08293722  0.80846541  1
  O  O352  1  0.71315199  0.41658653  0.05744006  1
  O  O353  1  0.71257893  0.41680724  0.30743068  1
  O  O354  1  0.71264445  0.41906572  0.55723972  1
  O  O355  1  0.71289198  0.41909747  0.80705469  1
  O  O356  1  0.71141367  0.74978122  0.05805879  1
  O  O357  1  0.71304292  0.75011602  0.30936826  1
  O  O358  1  0.71356376  0.75064077  0.55677338  1
  O  O359  1  0.71206365  0.75128991  0.80693970  1
  O  O360  1  0.28762148  0.24963045  0.19410201  1
  O  O361  1  0.28617206  0.25105539  0.44178870  1
  O  O362  1  0.28824584  0.25073565  0.69119239  1
  O  O363  1  0.28859625  0.24958434  0.94198712  1
  O  O364  1  0.28829478  0.58277784  0.19224131  1
  O  O365  1  0.28747903  0.58380515  0.44290907  1
  O  O366  1  0.28662315  0.58242393  0.69206255  1
  O  O367  1  0.28767327  0.58142241  0.94144673  1
  O  O368  1  0.28817281  0.91737144  0.19325150  1
  O  O369  1  0.28753168  0.91785133  0.44147459  1
  O  O370  1  0.28725571  0.91706546  0.69247930  1
  O  O371  1  0.28802102  0.91743978  0.94155330  1
  O  O372  1  0.78676395  0.25040158  0.19057948  1
  O  O373  1  0.78764501  0.25087059  0.44143112  1
  O  O374  1  0.78828781  0.25085584  0.69176385  1
  O  O375  1  0.78685668  0.25041927  0.94360262  1
  O  O376  1  0.78677092  0.58309754  0.19377444  1
  O  O377  1  0.78616341  0.58258178  0.44159022  1
  O  O378  1  0.78683069  0.58237405  0.69206543  1
  O  O379  1  0.78775549  0.58297617  0.94162863  1
  O  O380  1  0.78751265  0.91626326  0.19296655  1
  O  O381  1  0.78666722  0.91431006  0.44217609  1
  O  O382  1  0.78709007  0.91727580  0.69264616  1
  O  O383  1  0.78760721  0.91784700  0.94185699  1
  O  O384  1  0.22876030  0.24942358  0.05658411  1
  O  O385  1  0.22723333  0.25045463  0.30898860  1
  O  O386  1  0.22764619  0.25177630  0.55782631  1
  O  O387  1  0.22926310  0.24980542  0.80631929  1
  O  O388  1  0.22853754  0.58261264  0.05657120  1
  O  O389  1  0.22876966  0.58245444  0.30679952  1
  O  O390  1  0.22784963  0.58414238  0.55791214  1
  O  O391  1  0.22802762  0.58070440  0.80786490  1
  O  O392  1  0.22890546  0.91687099  0.05662918  1
  O  O393  1  0.22833424  0.91828378  0.30808837  1
  O  O394  1  0.22841263  0.91651740  0.55646005  1
  O  O395  1  0.22808654  0.91817499  0.80789013  1
  O  O396  1  0.72696399  0.25083271  0.05903207  1
  O  O397  1  0.72805808  0.25083059  0.30606076  1
  O  O398  1  0.72831756  0.25094449  0.55633399  1
  O  O399  1  0.72899719  0.25061403  0.80654132  1
  O  O400  1  0.72846724  0.58297715  0.05661810  1
  O  O401  1  0.72696448  0.58287409  0.30916887  1
  O  O402  1  0.72753264  0.58239587  0.55757935  1
  O  O403  1  0.72779921  0.58197316  0.80759832  1
  O  O404  1  0.72841531  0.91722848  0.05686476  1
  O  O405  1  0.72794173  0.91549774  0.30793496  1
  O  O406  1  0.72762775  0.91470684  0.55773165  1
  O  O407  1  0.72789924  0.91895614  0.80806991  1
  O  O408  1  0.27220832  0.08333028  0.19439031  1
  O  O409  1  0.27318463  0.08324698  0.44157214  1
  O  O410  1  0.27162792  0.08367990  0.69317337  1
  O  O411  1  0.27244842  0.08135657  0.94197337  1
  O  O412  1  0.27171705  0.41576027  0.19408519  1
  O  O413  1  0.27224146  0.41462309  0.44252332  1
  O  O414  1  0.27168833  0.41481008  0.69148261  1
  O  O415  1  0.27214308  0.41790003  0.94210061  1
  O  O416  1  0.27146290  0.74983599  0.19380563  1
  O  O417  1  0.27114334  0.75000316  0.44384611  1
  O  O418  1  0.27174087  0.74786057  0.69204254  1
  O  O419  1  0.27134352  0.74949572  0.94319390  1
  O  O420  1  0.77199747  0.08511840  0.19242974  1
  O  O421  1  0.77153036  0.08332187  0.44321214  1
  O  O422  1  0.77160970  0.08329328  0.69329222  1
  O  O423  1  0.77218372  0.08192272  0.94196962  1
  O  O424  1  0.77185188  0.41512754  0.19215458  1
  O  O425  1  0.77187409  0.41892133  0.44187133  1
  O  O426  1  0.77185749  0.41914538  0.69154284  1
  O  O427  1  0.77237229  0.41857551  0.94198065  1
  O  O428  1  0.77169862  0.74996914  0.19372804  1
  O  O429  1  0.77284450  0.75039958  0.44088403  1
  O  O430  1  0.77170958  0.75141056  0.69189748  1
  O  O431  1  0.77086329  0.75016396  0.94333083  1
  O  O432  1  0.02202637  0.08434631  0.18341083  1
  O  O433  1  0.02266944  0.08363378  0.43405557  1
  O  O434  1  0.02209746  0.08501792  0.68334713  1
  O  O435  1  0.02289623  0.08393729  0.93506548  1
  O  O436  1  0.02270757  0.41702584  0.18457330  1
  O  O437  1  0.02298270  0.41671560  0.43356265  1
  O  O438  1  0.02189403  0.41583327  0.68171222  1
  O  O439  1  0.02203587  0.41728487  0.93379989  1
  O  O440  1  0.02260912  0.75005415  0.18457727  1
  O  O441  1  0.02145598  0.74953074  0.43174430  1
  O  O442  1  0.02136777  0.74982743  0.68200368  1
  O  O443  1  0.02255597  0.75039208  0.93520824  1
  O  O444  1  0.52296775  0.08342592  0.18487500  1
  O  O445  1  0.52331816  0.08376950  0.43458174  1
  O  O446  1  0.52305091  0.08456469  0.68425011  1
  O  O447  1  0.52244760  0.08556347  0.93329027  1
  O  O448  1  0.52209229  0.41487612  0.18379736  1
  O  O449  1  0.52313171  0.41672907  0.43429033  1
  O  O450  1  0.52247919  0.41832047  0.68273302  1
  O  O451  1  0.52330505  0.41674353  0.93440162  1
  O  O452  1  0.52181638  0.74876018  0.18378296  1
  O  O453  1  0.52285685  0.75024249  0.43443499  1
  O  O454  1  0.52206245  0.75189168  0.68264878  1
  O  O455  1  0.52156961  0.74977276  0.93162531  1
  O  O456  1  0.47718217  0.24899389  0.06558002  1
  O  O457  1  0.47722774  0.25125946  0.31594202  1
  O  O458  1  0.47738074  0.25099638  0.56546549  1
  O  O459  1  0.47854773  0.24901759  0.81613578  1
  O  O460  1  0.47803191  0.58077718  0.06647957  1
  O  O461  1  0.47761176  0.58494628  0.31705985  1
  O  O462  1  0.47708201  0.58491140  0.56552981  1
  O  O463  1  0.47795750  0.58191113  0.81595848  1
  O  O464  1  0.47849371  0.91728823  0.06820449  1
  O  O465  1  0.47780867  0.91904868  0.31689568  1
  O  O466  1  0.47692230  0.91848410  0.56536621  1
  O  O467  1  0.47689258  0.91651407  0.81505534  1
  O  O468  1  0.97808151  0.24807957  0.06729664  1
  O  O469  1  0.97680957  0.24880914  0.31527773  1
  O  O470  1  0.97736040  0.24883719  0.56495324  1
  O  O471  1  0.97788514  0.24809391  0.81685635  1
  O  O472  1  0.97683190  0.58201269  0.06614352  1
  O  O473  1  0.97678167  0.58160261  0.31549820  1
  O  O474  1  0.97786652  0.58069940  0.56617413  1
  O  O475  1  0.97795488  0.58288961  0.81861665  1
  O  O476  1  0.97703106  0.91560109  0.06600953  1
  O  O477  1  0.97779631  0.91489898  0.31646614  1
  O  O478  1  0.97786368  0.91840116  0.56683076  1
  O  O479  1  0.97805059  0.91680997  0.81864295  1
  O  O480  1  0.07317221  0.31212227  0.07547148  1
  O  O481  1  0.07120494  0.31301635  0.32346034  1
  O  O482  1  0.07146038  0.31352088  0.57234102  1
  O  O483  1  0.07309495  0.31187925  0.82493002  1
  O  O484  1  0.07102528  0.64676894  0.07436670  1
  O  O485  1  0.07111627  0.64612584  0.32319935  1
  O  O486  1  0.07269669  0.64539588  0.57376457  1
  O  O487  1  0.07326066  0.64635081  0.82594847  1
  O  O488  1  0.07125146  0.98026452  0.07425668  1
  O  O489  1  0.07289109  0.97917738  0.32426756  1
  O  O490  1  0.07299632  0.98168020  0.57376345  1
  O  O491  1  0.07348739  0.98003328  0.82635453  1
  O  O492  1  0.57157921  0.31337124  0.07316350  1
  O  O493  1  0.57261358  0.31425315  0.32363397  1
  O  O494  1  0.57257160  0.31425626  0.57363664  1
  O  O495  1  0.57381211  0.31260332  0.82480678  1
  O  O496  1  0.57313050  0.64508405  0.07435401  1
  O  O497  1  0.57237651  0.64866950  0.32474002  1
  O  O498  1  0.57264347  0.64780250  0.57386828  1
  O  O499  1  0.57337886  0.64526993  0.82459517  1
  O  O500  1  0.57409395  0.98035041  0.07521546  1
  O  O501  1  0.57300324  0.98212193  0.32484724  1
  O  O502  1  0.57251070  0.98121338  0.57446563  1
  O  O503  1  0.57134351  0.98093332  0.82255706  1
  O  O504  1  0.42767995  0.02031491  0.17693695  1
  O  O505  1  0.42768289  0.02117032  0.42685736  1
  O  O506  1  0.42841692  0.02064593  0.67658319  1
  O  O507  1  0.42786511  0.02089402  0.92498885  1
  O  O508  1  0.42706214  0.35150000  0.17597832  1
  O  O509  1  0.42784937  0.35342987  0.42706584  1
  O  O510  1  0.42719811  0.35481749  0.67455586  1
  O  O511  1  0.42909151  0.35209215  0.92632911  1
  O  O512  1  0.42711773  0.68473529  0.17636383  1
  O  O513  1  0.42697026  0.68778939  0.42696996  1
  O  O514  1  0.42682589  0.68815347  0.67431901  1
  O  O515  1  0.42611398  0.68662801  0.92317456  1
  O  O516  1  0.92668759  0.02065554  0.17510528  1
  O  O517  1  0.92819325  0.01924761  0.42623024  1
  O  O518  1  0.92664499  0.02148814  0.67524587  1
  O  O519  1  0.92851846  0.01965946  0.92727745  1
  O  O520  1  0.92870167  0.35210507  0.17651379  1
  O  O521  1  0.92859123  0.35227096  0.42559115  1
  O  O522  1  0.92645639  0.35270415  0.67386064  1
  O  O523  1  0.92677931  0.35340674  0.92614154  1
  O  O524  1  0.92816340  0.68570766  0.17648482  1
  O  O525  1  0.92625523  0.68589338  0.42357997  1
  O  O526  1  0.92602450  0.68610237  0.67493066  1
  O  O527  1  0.92814469  0.68590476  0.92762187  1
  O  O528  1  0.17645330  0.02019659  0.20086522  1
  O  O529  1  0.17784493  0.01990706  0.44815179  1
  O  O530  1  0.17612636  0.01982434  0.69964731  1
  O  O531  1  0.17709890  0.01847558  0.94927977  1
  O  O532  1  0.17619232  0.35223982  0.20013906  1
  O  O533  1  0.17664751  0.35180504  0.44864350  1
  O  O534  1  0.17681144  0.35123557  0.69915299  1
  O  O535  1  0.17703017  0.35340184  0.94955069  1
  O  O536  1  0.17591235  0.68640729  0.20004999  1
  O  O537  1  0.17566207  0.68615321  0.45003758  1
  O  O538  1  0.17651442  0.68463716  0.69925921  1
  O  O539  1  0.17584588  0.68611716  0.95033790  1
  O  O540  1  0.67669928  0.02096826  0.19948198  1
  O  O541  1  0.67612715  0.01982602  0.44997324  1
  O  O542  1  0.67576752  0.02037880  0.69985444  1
  O  O543  1  0.67679268  0.01931267  0.94955429  1
  O  O544  1  0.67640058  0.35267299  0.19891937  1
  O  O545  1  0.67674296  0.35489687  0.44956117  1
  O  O546  1  0.67673560  0.35499916  0.69945605  1
  O  O547  1  0.67732985  0.35391411  0.94896438  1
  O  O548  1  0.67639879  0.68635114  0.20116091  1
  O  O549  1  0.67841852  0.68631725  0.44861036  1
  O  O550  1  0.67617917  0.68790232  0.69897195  1
  O  O551  1  0.67541976  0.68655907  0.94953114  1
  O  O552  1  0.32397942  0.31326117  0.05031022  1
  O  O553  1  0.32276326  0.31354548  0.30238138  1
  O  O554  1  0.32297291  0.31464790  0.55036258  1
  O  O555  1  0.32470099  0.31370124  0.79966441  1
  O  O556  1  0.32393120  0.64607348  0.04907225  1
  O  O557  1  0.32405273  0.64650888  0.30044349  1
  O  O558  1  0.32277632  0.64781816  0.55152238  1
  O  O559  1  0.32332329  0.64498985  0.80027484  1
  O  O560  1  0.32474584  0.98000966  0.05031487  1
  O  O561  1  0.32373845  0.98121178  0.30177128  1
  O  O562  1  0.32371427  0.98067047  0.55005711  1
  O  O563  1  0.32336705  0.98112045  0.80055534  1
  O  O564  1  0.82227296  0.31413826  0.05181752  1
  O  O565  1  0.82377570  0.31371848  0.29902960  1
  O  O566  1  0.82377243  0.31440465  0.54935187  1
  O  O567  1  0.82432508  0.31433210  0.79996517  1
  O  O568  1  0.82352260  0.64692519  0.05004922  1
  O  O569  1  0.82158604  0.64688874  0.30233375  1
  O  O570  1  0.82284089  0.64605082  0.54960563  1
  O  O571  1  0.82282681  0.64632974  0.79978641  1
  O  O572  1  0.82421518  0.98029750  0.05055499  1
  O  O573  1  0.82325660  0.97947190  0.30105428  1
  O  O574  1  0.82284252  0.97861681  0.54963551  1
  O  O575  1  0.82331101  0.98162706  0.80093240  1
  O  O576  1  0.42831421  0.14756491  0.17789234  1
  O  O577  1  0.42908810  0.14825949  0.42672534  1
  O  O578  1  0.42791222  0.14787071  0.67559296  1
  O  O579  1  0.42684939  0.14775450  0.92563063  1
  O  O580  1  0.42676080  0.47831387  0.17551711  1
  O  O581  1  0.42854470  0.48077908  0.42658596  1
  O  O582  1  0.42756425  0.48175906  0.67511479  1
  O  O583  1  0.42780445  0.47941047  0.92655003  1
  O  O584  1  0.42630865  0.81198576  0.17538701  1
  O  O585  1  0.42877000  0.81508461  0.42627961  1
  O  O586  1  0.42686213  0.81510209  0.67464020  1
  O  O587  1  0.42634092  0.81356544  0.92457632  1
  O  O588  1  0.92694584  0.14750065  0.17587026  1
  O  O589  1  0.92708209  0.14657990  0.42596257  1
  O  O590  1  0.92722239  0.14835898  0.67570215  1
  O  O591  1  0.92745636  0.14699877  0.92747986  1
  O  O592  1  0.92679136  0.47935926  0.17638544  1
  O  O593  1  0.92762027  0.47946201  0.42559327  1
  O  O594  1  0.92657068  0.47936335  0.67407252  1
  O  O595  1  0.92692818  0.48054455  0.92643754  1
  O  O596  1  0.92730624  0.81302476  0.17619423  1
  O  O597  1  0.92601137  0.81264377  0.42419919  1
  O  O598  1  0.92598401  0.81320902  0.67509883  1
  O  O599  1  0.92704377  0.81327264  0.92713917  1
  O  O600  1  0.07350298  0.18527504  0.07483375  1
  O  O601  1  0.07202090  0.18573400  0.32409362  1
  O  O602  1  0.07313645  0.18637610  0.57254123  1
  O  O603  1  0.07298074  0.18481607  0.82391162  1
  O  O604  1  0.07235114  0.51946386  0.07456028  1
  O  O605  1  0.07260402  0.51888415  0.32305285  1
  O  O606  1  0.07343793  0.51824395  0.57350499  1
  O  O607  1  0.07343546  0.51963193  0.82595231  1
  O  O608  1  0.07267717  0.85287761  0.07408110  1
  O  O609  1  0.07302210  0.85212745  0.32456375  1
  O  O610  1  0.07314458  0.85447438  0.57491824  1
  O  O611  1  0.07337086  0.85335426  0.82590983  1
  O  O612  1  0.57256274  0.18627542  0.07371213  1
  O  O613  1  0.57177611  0.18713546  0.32342130  1
  O  O614  1  0.57208717  0.18697266  0.57279782  1
  O  O615  1  0.57353044  0.18575322  0.82388052  1
  O  O616  1  0.57317748  0.51796484  0.07466707  1
  O  O617  1  0.57296732  0.52166885  0.32580879  1
  O  O618  1  0.57153601  0.52048370  0.57219887  1
  O  O619  1  0.57285622  0.51822682  0.82315000  1
  O  O620  1  0.57356250  0.85343779  0.07592592  1
  O  O621  1  0.57284567  0.85512448  0.32590985  1
  O  O622  1  0.57120521  0.85406618  0.57283394  1
  O  O623  1  0.57225289  0.85349658  0.82266160  1
  O  O624  1  0.32426866  0.18622033  0.05042751  1
  O  O625  1  0.32182673  0.18621861  0.30313331  1
  O  O626  1  0.32275537  0.18770437  0.54966902  1
  O  O627  1  0.32481269  0.18692563  0.79918832  1
  O  O628  1  0.32409766  0.51920154  0.05040232  1
  O  O629  1  0.32455361  0.51956143  0.30053682  1
  O  O630  1  0.32334581  0.52056000  0.55060014  1
  O  O631  1  0.32306454  0.51781078  0.79994462  1
  O  O632  1  0.32413128  0.85322494  0.04960006  1
  O  O633  1  0.32350975  0.85394323  0.30134083  1
  O  O634  1  0.32400595  0.85380575  0.54937932  1
  O  O635  1  0.32306187  0.85371248  0.80022265  1
  O  O636  1  0.82154730  0.18655799  0.05188891  1
  O  O637  1  0.82334218  0.18711295  0.29906598  1
  O  O638  1  0.82367499  0.18731547  0.54942885  1
  O  O639  1  0.82454527  0.18745471  0.80010474  1
  O  O640  1  0.82424459  0.52015390  0.05022298  1
  O  O641  1  0.82204479  0.51931116  0.30169500  1
  O  O642  1  0.82264715  0.51916592  0.55022855  1
  O  O643  1  0.82322917  0.51915959  0.80090294  1
  O  O644  1  0.82351756  0.85347028  0.04977915  1
  O  O645  1  0.82313007  0.85222109  0.30125924  1
  O  O646  1  0.82284897  0.85152480  0.55122915  1
  O  O647  1  0.82307995  0.85450018  0.80096971  1
  O  O648  1  0.17692298  0.14686166  0.20088982  1
  O  O649  1  0.17845545  0.14738540  0.44777847  1
  O  O650  1  0.17616428  0.14661220  0.70045350  1
  O  O651  1  0.17748463  0.14578140  0.94950974  1
  O  O652  1  0.17627060  0.47904799  0.20105329  1
  O  O653  1  0.17726036  0.47889078  0.44996172  1
  O  O654  1  0.17606089  0.47828352  0.69897941  1
  O  O655  1  0.17680204  0.48062232  0.94871386  1
  O  O656  1  0.17612823  0.81355085  0.19993012  1
  O  O657  1  0.17556430  0.81298566  0.45107384  1
  O  O658  1  0.17662152  0.81206364  0.69981385  1
  O  O659  1  0.17604694  0.81308638  0.94987208  1
  O  O660  1  0.67684105  0.14817401  0.19848068  1
  O  O661  1  0.67606447  0.14688201  0.44985487  1
  O  O662  1  0.67655013  0.14723934  0.70061574  1
  O  O663  1  0.67716644  0.14646951  0.94944048  1
  O  O664  1  0.67674193  0.47970834  0.19927395  1
  O  O665  1  0.67646569  0.48191499  0.44831327  1
  O  O666  1  0.67649851  0.48206766  0.69801267  1
  O  O667  1  0.67704723  0.48099631  0.94918131  1
  O  O668  1  0.67610994  0.81311058  0.20091959  1
  O  O669  1  0.67756142  0.81368374  0.44824851  1
  O  O670  1  0.67683991  0.81512057  0.69832805  1
  O  O671  1  0.67526295  0.81344382  0.95005542  1
