# generated using pymatgen
data_Na2MnFe(PO4)2
_symmetry_space_group_name_H-M   'P 1'
_cell_length_a   22.33829081
_cell_length_b   20.09000554
_cell_length_c   19.45301755
_cell_angle_alpha   90.09258466
_cell_angle_beta   89.95698956
_cell_angle_gamma   89.99561702
_symmetry_Int_Tables_number   1
_chemical_formula_structural   Na2MnFe(PO4)2
_chemical_formula_sum   'Na96 Mn48 Fe48 P96 O384'
_cell_volume   8730.04103098
_cell_formula_units_Z   48
loop_
 _symmetry_equiv_pos_site_id
 _symmetry_equiv_pos_as_xyz
  1  'x, y, z'
loop_
 _atom_site_type_symbol
 _atom_site_label
 _atom_site_symmetry_multiplicity
 _atom_site_fract_x
 _atom_site_fract_y
 _atom_site_fract_z
 _atom_site_occupancy
  Na  Na0  1  0.13989555  0.24912447  0.24227526  1
  Na  Na1  1  0.14032955  0.24809163  0.49346102  1
  Na  Na2  1  0.14022754  0.25041017  0.74483203  1
  Na  Na3  1  0.14056752  0.24942264  0.99311147  1
  Na  Na4  1  0.14036925  0.58385295  0.24411176  1
  Na  Na5  1  0.14014346  0.58324372  0.49467562  1
  Na  Na6  1  0.14026713  0.58306846  0.74533442  1
  Na  Na7  1  0.14033296  0.58401481  0.99270514  1
  Na  Na8  1  0.14033200  0.91727729  0.24223923  1
  Na  Na9  1  0.14059168  0.91591826  0.49304870  1
  Na  Na10  1  0.14029294  0.91622587  0.74416907  1
  Na  Na11  1  0.14075018  0.91735107  0.99329557  1
  Na  Na12  1  0.64066776  0.24922244  0.24361502  1
  Na  Na13  1  0.64028442  0.24873406  0.49307163  1
  Na  Na14  1  0.64065796  0.25034428  0.74332293  1
  Na  Na15  1  0.64099117  0.24894057  0.99506961  1
  Na  Na16  1  0.64079291  0.58360077  0.24457549  1
  Na  Na17  1  0.64077217  0.58251537  0.49443933  1
  Na  Na18  1  0.64065401  0.58378042  0.74384350  1
  Na  Na19  1  0.64053509  0.58397535  0.99451723  1
  Na  Na20  1  0.64057777  0.91690190  0.24164217  1
  Na  Na21  1  0.64045073  0.91530485  0.49294024  1
  Na  Na22  1  0.64029666  0.91674295  0.74349129  1
  Na  Na23  1  0.64016646  0.91590806  0.99342269  1
  Na  Na24  1  0.35967690  0.08288395  0.00550540  1
  Na  Na25  1  0.36048831  0.08335558  0.25554344  1
  Na  Na26  1  0.35984936  0.08274408  0.50558205  1
  Na  Na27  1  0.35931718  0.08288510  0.75672011  1
  Na  Na28  1  0.35906437  0.41697565  0.00545711  1
  Na  Na29  1  0.35897447  0.41739088  0.25598661  1
  Na  Na30  1  0.35920576  0.41654106  0.50715277  1
  Na  Na31  1  0.35912108  0.41702118  0.75788839  1
  Na  Na32  1  0.35964020  0.75168272  0.00573984  1
  Na  Na33  1  0.35973635  0.75150199  0.25590555  1
  Na  Na34  1  0.35965908  0.75035533  0.50575391  1
  Na  Na35  1  0.35912212  0.75039816  0.75727106  1
  Na  Na36  1  0.85946724  0.08325981  0.00769137  1
  Na  Na37  1  0.86030201  0.08418208  0.25639970  1
  Na  Na38  1  0.85995396  0.08313489  0.50470245  1
  Na  Na39  1  0.85947087  0.08423220  0.75580697  1
  Na  Na40  1  0.85935325  0.41701603  0.00781723  1
  Na  Na41  1  0.85904017  0.41687628  0.25721730  1
  Na  Na42  1  0.85937273  0.41678669  0.50640244  1
  Na  Na43  1  0.85930500  0.41772741  0.75620508  1
  Na  Na44  1  0.85940105  0.75024200  0.00698180  1
  Na  Na45  1  0.85943748  0.75030686  0.25601014  1
  Na  Na46  1  0.85944001  0.74884859  0.50588373  1
  Na  Na47  1  0.85985517  0.75086323  0.75672398  1
  Na  Na48  1  0.11064082  0.08331116  0.11813749  1
  Na  Na49  1  0.10969945  0.08350554  0.36698397  1
  Na  Na50  1  0.11007100  0.08343692  0.61909415  1
  Na  Na51  1  0.10997251  0.08428372  0.86863638  1
  Na  Na52  1  0.10900489  0.41609207  0.11820048  1
  Na  Na53  1  0.10937241  0.41636345  0.36941208  1
  Na  Na54  1  0.10945108  0.41520902  0.62000208  1
  Na  Na55  1  0.10954682  0.41700997  0.86939885  1
  Na  Na56  1  0.10986254  0.74938792  0.11827885  1
  Na  Na57  1  0.10973925  0.75014258  0.36837542  1
  Na  Na58  1  0.10981305  0.74915978  0.61932376  1
  Na  Na59  1  0.10997002  0.74944856  0.86853175  1
  Na  Na60  1  0.61063222  0.08215526  0.11805256  1
  Na  Na61  1  0.60967491  0.08248379  0.36743769  1
  Na  Na62  1  0.60976654  0.08202006  0.61840414  1
  Na  Na63  1  0.61050298  0.08116226  0.86864983  1
  Na  Na64  1  0.60959691  0.41606757  0.11991431  1
  Na  Na65  1  0.60986451  0.41573366  0.36867782  1
  Na  Na66  1  0.60926993  0.41666059  0.61837413  1
  Na  Na67  1  0.60979700  0.41650706  0.86929288  1
  Na  Na68  1  0.61045164  0.75127014  0.11805217  1
  Na  Na69  1  0.60983753  0.75102017  0.36805188  1
  Na  Na70  1  0.60981321  0.74983236  0.61954363  1
  Na  Na71  1  0.60982340  0.74998933  0.86863424  1
  Na  Na72  1  0.39011301  0.24840552  0.13084745  1
  Na  Na73  1  0.39027801  0.24885374  0.38075467  1
  Na  Na74  1  0.39027264  0.24862470  0.63228091  1
  Na  Na75  1  0.39017262  0.24867929  0.88139992  1
  Na  Na76  1  0.38996383  0.58534299  0.13085293  1
  Na  Na77  1  0.39003857  0.58517938  0.38145011  1
  Na  Na78  1  0.38980272  0.58445548  0.63237376  1
  Na  Na79  1  0.38991613  0.58379848  0.88187068  1
  Na  Na80  1  0.39046701  0.91818346  0.13038065  1
  Na  Na81  1  0.39048479  0.91811533  0.37982891  1
  Na  Na82  1  0.39062242  0.91621584  0.63062410  1
  Na  Na83  1  0.39001303  0.91664590  0.88086790  1
  Na  Na84  1  0.89036511  0.24924717  0.13272628  1
  Na  Na85  1  0.89052510  0.25090226  0.38051664  1
  Na  Na86  1  0.89013778  0.24934102  0.63030823  1
  Na  Na87  1  0.89022761  0.25108953  0.88174713  1
  Na  Na88  1  0.89036771  0.58393443  0.13173884  1
  Na  Na89  1  0.88960614  0.58337875  0.38232909  1
  Na  Na90  1  0.88953784  0.58278989  0.63200701  1
  Na  Na91  1  0.88995792  0.58393891  0.88191910  1
  Na  Na92  1  0.89037447  0.91770457  0.13228552  1
  Na  Na93  1  0.89048289  0.91797154  0.37947202  1
  Na  Na94  1  0.89057482  0.91675145  0.63059965  1
  Na  Na95  1  0.89018584  0.91679635  0.88206133  1
  Mn  Mn96  1  0.25007263  0.83245417  0.62456201  1
  Mn  Mn97  1  0.75065525  0.00044108  0.62424951  1
  Mn  Mn98  1  0.50099303  0.16487765  0.00005848  1
  Mn  Mn99  1  0.25013349  0.00016940  0.62499476  1
  Mn  Mn100  1  0.24976598  0.83331294  0.37432012  1
  Mn  Mn101  1  0.75070876  0.16615194  0.87552270  1
  Mn  Mn102  1  0.75005337  0.83341651  0.87514109  1
  Mn  Mn103  1  -0.00084341  0.66631701  0.50002348  1
  Mn  Mn104  1  0.50083367  0.16464934  0.75073026  1
  Mn  Mn105  1  0.49929944  0.33202913  0.49966164  1
  Mn  Mn106  1  0.49951178  0.50038334  0.25029099  1
  Mn  Mn107  1  -0.00065134  -0.00037562  0.74967514  1
  Mn  Mn108  1  0.74993303  0.33358918  0.62483072  1
  Mn  Mn109  1  0.50026364  0.66839770  0.50088966  1
  Mn  Mn110  1  -0.00009103  0.49916649  0.75082333  1
  Mn  Mn111  1  0.75081501  0.83254049  0.62425616  1
  Mn  Mn112  1  0.25028451  0.16542217  0.37408441  1
  Mn  Mn113  1  0.00049338  0.00075459  0.00059487  1
  Mn  Mn114  1  0.50077863  -0.00020721  0.49940574  1
  Mn  Mn115  1  0.74991523  0.50013012  0.12586310  1
  Mn  Mn116  1  0.49907205  0.33218497  0.24999217  1
  Mn  Mn117  1  0.00004737  0.66669660  0.75039275  1
  Mn  Mn118  1  0.75013984  0.83289288  0.37422064  1
  Mn  Mn119  1  0.24979880  0.33284190  0.37508222  1
  Mn  Mn120  1  0.50031181  0.33303029  0.75013006  1
  Mn  Mn121  1  0.00129431  0.00094037  0.49959763  1
  Mn  Mn122  1  -0.00034199  0.33313159  0.00056343  1
  Mn  Mn123  1  0.00037428  0.49967203  0.25003289  1
  Mn  Mn124  1  0.24952385  0.50051746  0.62606293  1
  Mn  Mn125  1  0.49973818  0.33267998  0.00016394  1
  Mn  Mn126  1  0.24971396  0.33229769  0.62625629  1
  Mn  Mn127  1  0.24988276  0.50128377  0.37597182  1
  Mn  Mn128  1  0.50038711  0.66864921  0.25035027  1
  Mn  Mn129  1  0.24989944  0.83393506  0.12473897  1
  Mn  Mn130  1  0.50056003  0.66801727  0.00022391  1
  Mn  Mn131  1  0.74990566  0.16613797  0.37419223  1
  Mn  Mn132  1  0.00056812  0.66697251  0.25030834  1
  Mn  Mn133  1  0.00008571  0.83392919  0.49941972  1
  Mn  Mn134  1  0.49975583  0.50017800  0.00030731  1
  Mn  Mn135  1  0.49951173  0.66702235  0.75020542  1
  Mn  Mn136  1  0.00058820  0.83310131  0.00071460  1
  Mn  Mn137  1  0.00027861  0.33292934  0.49943584  1
  Mn  Mn138  1  0.24953142  0.50137299  0.12528079  1
  Mn  Mn139  1  0.74968258  0.50141181  0.87619409  1
  Mn  Mn140  1  0.24962584  0.33304036  0.12468999  1
  Mn  Mn141  1  0.49947693  0.50024819  0.50011420  1
  Mn  Mn142  1  0.74992705  0.33367375  0.87525614  1
  Mn  Mn143  1  -0.00046304  0.16734630  0.74968269  1
  Fe  Fe144  1  0.00059201  0.00074098  0.24980347  1
  Fe  Fe145  1  0.75006834  0.33297817  0.37530074  1
  Fe  Fe146  1  -0.00049774  0.33324437  0.25000040  1
  Fe  Fe147  1  0.24967082  0.83364153  0.87512949  1
  Fe  Fe148  1  0.00015015  0.83301408  0.75042136  1
  Fe  Fe149  1  0.50012547  0.83426439  0.49967131  1
  Fe  Fe150  1  0.49993933  0.83436219  -0.00076268  1
  Fe  Fe151  1  -0.00018408  0.83364345  0.24953167  1
  Fe  Fe152  1  0.24966977  0.00060755  0.87459880  1
  Fe  Fe153  1  0.75016048  0.83319189  0.12472044  1
  Fe  Fe154  1  0.00080480  0.16689130  0.24971645  1
  Fe  Fe155  1  0.74999255  -0.00023142  0.37404764  1
  Fe  Fe156  1  0.74996155  0.49985042  0.37521317  1
  Fe  Fe157  1  0.25005102  0.66714971  0.87538258  1
  Fe  Fe158  1  0.24975785  0.16647018  0.62579029  1
  Fe  Fe159  1  0.75040482  0.66660241  0.12556532  1
  Fe  Fe160  1  0.75026805  -0.00024308  0.87524256  1
  Fe  Fe161  1  0.50068528  0.16563589  0.24986821  1
  Fe  Fe162  1  0.49979503  -0.00133534  0.74937619  1
  Fe  Fe163  1  -0.00001193  0.16708302  0.49924189  1
  Fe  Fe164  1  0.49976861  0.16571706  0.50003417  1
  Fe  Fe165  1  0.74970450  0.50002989  0.62464315  1
  Fe  Fe166  1  0.24995148  0.50058965  0.87560981  1
  Fe  Fe167  1  0.50023751  0.83457171  0.24908629  1
  Fe  Fe168  1  0.74970638  0.33334724  0.12594405  1
  Fe  Fe169  1  -0.00042678  0.49931872  0.50062445  1
  Fe  Fe170  1  0.25084855  0.16621753  0.12373274  1
  Fe  Fe171  1  0.25017390  0.16655501  0.87532612  1
  Fe  Fe172  1  0.49972574  0.50001636  0.75033793  1
  Fe  Fe173  1  0.75008276  0.66610867  0.62520988  1
  Fe  Fe174  1  0.25001629  0.33305196  0.87529535  1
  Fe  Fe175  1  -0.00052849  0.66680430  0.00014345  1
  Fe  Fe176  1  0.25040015  0.00058393  0.12359869  1
  Fe  Fe177  1  0.24965273  0.00017841  0.37403235  1
  Fe  Fe178  1  -0.00013909  0.16673044  0.00049104  1
  Fe  Fe179  1  0.75021874  -0.00016561  0.12461610  1
  Fe  Fe180  1  0.50006218  -0.00095005  -0.00011089  1
  Fe  Fe181  1  0.24989550  0.66709146  0.37508897  1
  Fe  Fe182  1  0.25003208  0.66752992  0.12438769  1
  Fe  Fe183  1  0.74956894  0.16644993  0.62431086  1
  Fe  Fe184  1  -0.00061665  0.33329060  0.75030992  1
  Fe  Fe185  1  0.75021683  0.66719569  0.87510621  1
  Fe  Fe186  1  -0.00069330  0.49975694  0.00039140  1
  Fe  Fe187  1  0.75039833  0.16634345  0.12538265  1
  Fe  Fe188  1  0.50076892  -0.00017128  0.24960511  1
  Fe  Fe189  1  0.24984800  0.66656197  0.62607172  1
  Fe  Fe190  1  0.74979371  0.66596487  0.37544912  1
  Fe  Fe191  1  0.49988925  0.83359638  0.74987703  1
  P  P192  1  0.04225425  0.24844533  0.10315226  1
  P  P193  1  0.04178311  0.25021665  0.35134171  1
  P  P194  1  0.04225510  0.24891272  0.60235052  1
  P  P195  1  0.04176482  0.25148701  0.85292060  1
  P  P196  1  0.04141690  0.58314526  0.10139568  1
  P  P197  1  0.04254617  0.58294568  0.35380153  1
  P  P198  1  0.04171893  0.58165306  0.60275744  1
  P  P199  1  0.04204799  0.58323507  0.85451876  1
  P  P200  1  0.04297325  0.91701785  0.10417942  1
  P  P201  1  0.04177148  0.91700123  0.35084200  1
  P  P202  1  0.04326195  0.91650260  0.60328379  1
  P  P203  1  0.04207116  0.91570292  0.85260190  1
  P  P204  1  0.54270122  0.24875081  0.10373149  1
  P  P205  1  0.54213476  0.24779388  0.35261996  1
  P  P206  1  0.54225808  0.24791175  0.60232761  1
  P  P207  1  0.54342165  0.24897211  0.85330004  1
  P  P208  1  0.54292322  0.58420738  0.10348570  1
  P  P209  1  0.54268159  0.58432614  0.35346180  1
  P  P210  1  0.54224164  0.58351607  0.60399340  1
  P  P211  1  0.54218241  0.58258339  0.85252175  1
  P  P212  1  0.54188523  0.91661980  0.10180770  1
  P  P213  1  0.54209659  0.91661780  0.35114477  1
  P  P214  1  0.54268542  0.91531899  0.60269872  1
  P  P215  1  0.54153278  0.91632540  0.85188968  1
  P  P216  1  0.45949145  0.08240526  0.14787014  1
  P  P217  1  0.45825456  0.08413248  0.39658370  1
  P  P218  1  0.45777103  0.08128797  0.64735083  1
  P  P219  1  0.45829459  0.08049136  0.89712873  1
  P  P220  1  0.45649999  0.41643113  0.14701638  1
  P  P221  1  0.45641232  0.41618369  0.39707250  1
  P  P222  1  0.45735157  0.41753373  0.64799448  1
  P  P223  1  0.45725015  0.41667961  0.89644708  1
  P  P224  1  0.45804899  0.75283492  0.14680521  1
  P  P225  1  0.45801316  0.75275445  0.39717256  1
  P  P226  1  0.45735307  0.75195192  0.64752890  1
  P  P227  1  0.45789603  0.75196928  0.89708051  1
  P  P228  1  0.95917046  0.08395748  0.14825936  1
  P  P229  1  0.95862520  0.08506856  0.39606641  1
  P  P230  1  0.95702276  0.08364678  0.64616206  1
  P  P231  1  0.95761395  0.08480566  0.89795080  1
  P  P232  1  0.95731089  0.41547434  0.14765697  1
  P  P233  1  0.95752682  0.41748443  0.39744551  1
  P  P234  1  0.95744718  0.41514353  0.64741356  1
  P  P235  1  0.95715835  0.41751188  0.89803372  1
  P  P236  1  0.95802313  0.75076900  0.14735579  1
  P  P237  1  0.95708588  0.75068548  0.39618863  1
  P  P238  1  0.95764081  0.75105875  0.64776639  1
  P  P239  1  0.95775500  0.74938436  0.89779627  1
  P  P240  1  0.20916679  0.08314663  0.22572415  1
  P  P241  1  0.20739070  0.08177542  0.47706433  1
  P  P242  1  0.20786771  0.08452055  0.72850204  1
  P  P243  1  0.20868399  0.08348907  0.97689241  1
  P  P244  1  0.20670874  0.41708657  0.22808797  1
  P  P245  1  0.20706426  0.41651065  0.47870051  1
  P  P246  1  0.20749414  0.41660530  0.72997367  1
  P  P247  1  0.20853222  0.41667120  0.97669437  1
  P  P248  1  0.20781170  0.74898757  0.22732707  1
  P  P249  1  0.20749322  0.74872275  0.47767222  1
  P  P250  1  0.20788110  0.74881717  0.72864025  1
  P  P251  1  0.20855735  0.75031168  0.97685016  1
  P  P252  1  0.70917888  0.08274301  0.22649457  1
  P  P253  1  0.70758100  0.08184031  0.47673068  1
  P  P254  1  0.70783435  0.08439825  0.72741069  1
  P  P255  1  0.70844925  0.08144803  0.97839032  1
  P  P256  1  0.70779100  0.41551832  0.22879091  1
  P  P257  1  0.70872017  0.41652393  0.47684665  1
  P  P258  1  0.70745618  0.41849034  0.72730582  1
  P  P259  1  0.70733989  0.41662249  0.97931247  1
  P  P260  1  0.70885662  0.74989623  0.22668427  1
  P  P261  1  0.70786971  0.74807719  0.47747791  1
  P  P262  1  0.70837462  0.74890068  0.72760632  1
  P  P263  1  0.70801110  0.74904645  0.97824154  1
  P  P264  1  0.29214909  0.24875452  0.02129436  1
  P  P265  1  0.29249509  0.24932370  0.27092856  1
  P  P266  1  0.29224458  0.24798782  0.52312847  1
  P  P267  1  0.29155985  0.24940275  0.77372902  1
  P  P268  1  0.29181176  0.58534966  0.02169556  1
  P  P269  1  0.29225054  0.58551202  0.27228082  1
  P  P270  1  0.29209588  0.58514193  0.52306738  1
  P  P271  1  0.29127556  0.58397766  0.77386066  1
  P  P272  1  0.29187273  0.91812222  0.02114943  1
  P  P273  1  0.29180401  0.91838765  0.27139022  1
  P  P274  1  0.29272769  0.91655470  0.52123038  1
  P  P275  1  0.29090777  0.91684038  0.77343711  1
  P  P276  1  0.79159851  0.25003773  0.02434741  1
  P  P277  1  0.79189706  0.25132113  0.27197052  1
  P  P278  1  0.79170487  0.24883994  0.52189774  1
  P  P279  1  0.79265136  0.25009844  0.77172901  1
  P  P280  1  0.79234710  0.58488562  0.02298935  1
  P  P281  1  0.79140292  0.58362247  0.27356967  1
  P  P282  1  0.79139919  0.58301872  0.52293112  1
  P  P283  1  0.79229077  0.58499421  0.77231013  1
  P  P284  1  0.79160550  0.91666242  0.02321910  1
  P  P285  1  0.79181898  0.91794331  0.27106184  1
  P  P286  1  0.79312028  0.91642822  0.52069615  1
  P  P287  1  0.79249221  0.91797690  0.77261397  1
  O  O288  1  0.03710201  0.24873332  0.18302559  1
  O  O289  1  0.03665245  0.24974117  0.43128921  1
  O  O290  1  0.03682891  0.24988632  0.68222260  1
  O  O291  1  0.03674775  0.25089256  0.93282504  1
  O  O292  1  0.03669459  0.58330447  0.18143165  1
  O  O293  1  0.03703664  0.58245178  0.43368094  1
  O  O294  1  0.03664088  0.58205135  0.68273590  1
  O  O295  1  0.03667575  0.58355256  0.93439028  1
  O  O296  1  0.03770163  0.91701031  0.18404159  1
  O  O297  1  0.03714780  0.91760043  0.43083759  1
  O  O298  1  0.03786351  0.91588735  0.68322090  1
  O  O299  1  0.03724066  0.91612676  0.93259435  1
  O  O300  1  0.53731308  0.24824376  0.18366061  1
  O  O301  1  0.53676584  0.24752416  0.43256682  1
  O  O302  1  0.53745560  0.24842801  0.68231637  1
  O  O303  1  0.53826523  0.24901363  0.93326873  1
  O  O304  1  0.53773359  0.58456898  0.18343453  1
  O  O305  1  0.53755220  0.58456984  0.43343343  1
  O  O306  1  0.53676871  0.58278884  0.68394042  1
  O  O307  1  0.53720620  0.58315320  0.93250541  1
  O  O308  1  0.53701919  0.91670873  0.18167847  1
  O  O309  1  0.53752129  0.91652218  0.43108826  1
  O  O310  1  0.53711099  0.91568527  0.68251636  1
  O  O311  1  0.53615650  0.91656007  0.93177353  1
  O  O312  1  0.46426120  0.08150208  0.06793274  1
  O  O313  1  0.46380151  0.08421669  0.31674760  1
  O  O314  1  0.46296855  0.08197526  0.56740824  1
  O  O315  1  0.46325823  0.08018664  0.81720010  1
  O  O316  1  0.46180301  0.41637881  0.06704876  1
  O  O317  1  0.46137749  0.41602698  0.31710149  1
  O  O318  1  0.46228454  0.41705002  0.56797717  1
  O  O319  1  0.46264447  0.41733709  0.81648355  1
  O  O320  1  0.46322486  0.75254736  0.06685974  1
  O  O321  1  0.46346625  0.75282429  0.31723280  1
  O  O322  1  0.46273998  0.75209861  0.56759435  1
  O  O323  1  0.46300940  0.75166979  0.81714976  1
  O  O324  1  0.96360073  0.08396766  0.06826562  1
  O  O325  1  0.96427636  0.08496816  0.31617938  1
  O  O326  1  0.96241073  0.08391558  0.56622155  1
  O  O327  1  0.96245573  0.08446447  0.81798723  1
  O  O328  1  0.96241856  0.41606431  0.06774319  1
  O  O329  1  0.96274698  0.41682428  0.31755248  1
  O  O330  1  0.96281299  0.41576345  0.56749036  1
  O  O331  1  0.96236409  0.41661491  0.81811876  1
  O  O332  1  0.96335636  0.74967064  0.06743603  1
  O  O333  1  0.96238734  0.75111771  0.31624829  1
  O  O334  1  0.96254849  0.75063182  0.56778339  1
  O  O335  1  0.96276623  0.75010110  0.81783102  1
  O  O336  1  0.21434026  0.08358603  0.05674367  1
  O  O337  1  0.21380006  0.08250135  0.30569624  1
  O  O338  1  0.21222211  0.08244606  0.55696196  1
  O  O339  1  0.21336360  0.08434450  0.80836272  1
  O  O340  1  0.21330614  0.41702769  0.05667088  1
  O  O341  1  0.21184571  0.41713185  0.30803998  1
  O  O342  1  0.21215060  0.41640318  0.55869650  1
  O  O343  1  0.21308755  0.41660743  0.80982008  1
  O  O344  1  0.21331958  0.75045124  0.05682429  1
  O  O345  1  0.21310753  0.74897180  0.30723891  1
  O  O346  1  0.21266566  0.74887139  0.55762988  1
  O  O347  1  0.21339406  0.74938446  0.80849610  1
  O  O348  1  0.71394759  0.08146993  0.05822700  1
  O  O349  1  0.71379550  0.08265300  0.30644083  1
  O  O350  1  0.71277094  0.08272595  0.55661750  1
  O  O351  1  0.71311450  0.08376494  0.80732009  1
  O  O352  1  0.71274607  0.41612532  0.05923314  1
  O  O353  1  0.71318484  0.41557425  0.30865425  1
  O  O354  1  0.71365025  0.41724320  0.55680599  1
  O  O355  1  0.71238530  0.41851837  0.80727108  1
  O  O356  1  0.71351628  0.74945167  0.05806689  1
  O  O357  1  0.71360934  0.75011431  0.30659014  1
  O  O358  1  0.71333111  0.74819746  0.55737473  1
  O  O359  1  0.71349527  0.74914897  0.80754895  1
  O  O360  1  0.28743207  0.24897134  0.19097806  1
  O  O361  1  0.28730241  0.24820181  0.44314880  1
  O  O362  1  0.28632899  0.24881780  0.69379264  1
  O  O363  1  0.28656436  0.24896226  0.94142768  1
  O  O364  1  0.28692989  0.58543050  0.19232062  1
  O  O365  1  0.28687374  0.58524806  0.44310962  1
  O  O366  1  0.28643672  0.58388011  0.69390210  1
  O  O367  1  0.28632145  0.58489883  0.94182762  1
  O  O368  1  0.28651678  0.91846995  0.19145472  1
  O  O369  1  0.28751871  0.91676757  0.44130512  1
  O  O370  1  0.28614201  0.91629986  0.69349378  1
  O  O371  1  0.28624572  0.91789632  0.94135086  1
  O  O372  1  0.78643087  0.25133872  0.19215374  1
  O  O373  1  0.78636046  0.24940483  0.44199235  1
  O  O374  1  0.78726996  0.24967384  0.69182863  1
  O  O375  1  0.78697780  0.24955957  0.94434907  1
  O  O376  1  0.78659622  0.58347228  0.19362983  1
  O  O377  1  0.78615360  0.58291857  0.44307540  1
  O  O378  1  0.78699106  0.58440510  0.69245815  1
  O  O379  1  0.78710640  0.58499844  0.94308504  1
  O  O380  1  0.78637912  0.91780916  0.19119896  1
  O  O381  1  0.78767282  0.91654743  0.44078327  1
  O  O382  1  0.78776150  0.91753296  0.69266874  1
  O  O383  1  0.78690704  0.91673419  0.94322846  1
  O  O384  1  0.22804684  0.24815337  0.05757047  1
  O  O385  1  0.22813354  0.24920466  0.30629502  1
  O  O386  1  0.22778779  0.24787970  0.55850545  1
  O  O387  1  0.22746047  0.24968626  0.80996648  1
  O  O388  1  0.22762761  0.58578680  0.05788109  1
  O  O389  1  0.22797274  0.58561225  0.30816907  1
  O  O390  1  0.22778309  0.58510987  0.55888214  1
  O  O391  1  0.22715100  0.58451893  0.80986145  1
  O  O392  1  0.22784810  0.91833307  0.05760129  1
  O  O393  1  0.22760132  0.91820857  0.30737458  1
  O  O394  1  0.22843563  0.91640015  0.55673971  1
  O  O395  1  0.22675841  0.91753549  0.80930696  1
  O  O396  1  0.72734257  0.25008287  0.05994733  1
  O  O397  1  0.72781726  0.25120006  0.30829402  1
  O  O398  1  0.72754375  0.24882213  0.55798758  1
  O  O399  1  0.72838880  0.24984281  0.80736899  1
  O  O400  1  0.72807921  0.58490185  0.05878476  1
  O  O401  1  0.72722501  0.58379662  0.30950685  1
  O  O402  1  0.72741707  0.58327720  0.55962956  1
  O  O403  1  0.72806176  0.58556546  0.80850711  1
  O  O404  1  0.72737423  0.91704676  0.05893065  1
  O  O405  1  0.72773156  0.91797629  0.30743199  1
  O  O406  1  0.72889378  0.91628232  0.55635496  1
  O  O407  1  0.72807878  0.91803196  0.80803675  1
  O  O408  1  0.27341013  0.08348904  0.18982180  1
  O  O409  1  0.27186789  0.08115347  0.44166031  1
  O  O410  1  0.27198408  0.08476115  0.69215755  1
  O  O411  1  0.27265410  0.08317763  0.94024380  1
  O  O412  1  0.27109642  0.41719051  0.19287279  1
  O  O413  1  0.27146932  0.41667248  0.44351024  1
  O  O414  1  0.27157481  0.41663563  0.69380049  1
  O  O415  1  0.27265377  0.41607051  0.94079399  1
  O  O416  1  0.27204894  0.74913089  0.19139264  1
  O  O417  1  0.27177032  0.74884733  0.44182225  1
  O  O418  1  0.27202995  0.74839915  0.69233702  1
  O  O419  1  0.27272302  0.74996401  0.94097341  1
  O  O420  1  0.77338830  0.08238576  0.19072876  1
  O  O421  1  0.77189942  0.08146758  0.44096032  1
  O  O422  1  0.77208305  0.08533097  0.69146316  1
  O  O423  1  0.77262311  0.08127851  0.94221064  1
  O  O424  1  0.77194077  0.41547835  0.19258383  1
  O  O425  1  0.77283384  0.41595450  0.44076792  1
  O  O426  1  0.77180923  0.41829249  0.69177184  1
  O  O427  1  0.77161426  0.41718774  0.94371653  1
  O  O428  1  0.77302369  0.74948448  0.19067779  1
  O  O429  1  0.77204761  0.74815464  0.44137673  1
  O  O430  1  0.77262244  0.74846788  0.69177485  1
  O  O431  1  0.77212881  0.74880733  0.94186554  1
  O  O432  1  0.02346657  0.08425654  0.18368341  1
  O  O433  1  0.02269566  0.08567587  0.43242101  1
  O  O434  1  0.02128286  0.08334190  0.68165579  1
  O  O435  1  0.02209945  0.08522534  0.93310188  1
  O  O436  1  0.02169149  0.41483754  0.18305456  1
  O  O437  1  0.02177169  0.41808049  0.43323414  1
  O  O438  1  0.02166288  0.41454934  0.68332480  1
  O  O439  1  0.02144172  0.41801142  0.93375022  1
  O  O440  1  0.02227212  0.75159526  0.18308050  1
  O  O441  1  0.02140098  0.74984324  0.43148779  1
  O  O442  1  0.02201903  0.75135329  0.68318417  1
  O  O443  1  0.02211277  0.74871686  0.93316862  1
  O  O444  1  0.52367022  0.08301233  0.18367019  1
  O  O445  1  0.52237175  0.08450722  0.43282911  1
  O  O446  1  0.52213429  0.08045585  0.68285701  1
  O  O447  1  0.52261388  0.08026310  0.93265973  1
  O  O448  1  0.52090479  0.41618471  0.18210945  1
  O  O449  1  0.52094398  0.41600788  0.43184123  1
  O  O450  1  0.52181876  0.41783917  0.68310779  1
  O  O451  1  0.52155840  0.41644501  0.93184348  1
  O  O452  1  0.52238083  0.75300209  0.18237277  1
  O  O453  1  0.52226675  0.75268216  0.43300836  1
  O  O454  1  0.52161868  0.75164333  0.68326195  1
  O  O455  1  0.52218727  0.75231598  0.93273006  1
  O  O456  1  0.47844059  0.24842088  0.06822864  1
  O  O457  1  0.47787573  0.24727870  0.31690907  1
  O  O458  1  0.47778462  0.24758424  0.56715288  1
  O  O459  1  0.47899269  0.24892378  0.81832573  1
  O  O460  1  0.47850666  0.58450580  0.06844871  1
  O  O461  1  0.47825584  0.58478041  0.31843810  1
  O  O462  1  0.47797026  0.58417609  0.56855606  1
  O  O463  1  0.47775762  0.58255528  0.81730331  1
  O  O464  1  0.47769686  0.91666847  0.06564695  1
  O  O465  1  0.47784044  0.91640622  0.31546764  1
  O  O466  1  0.47853830  0.91561331  0.56648804  1
  O  O467  1  0.47743093  0.91632951  0.81549004  1
  O  O468  1  0.97792164  0.24840196  0.06748119  1
  O  O469  1  0.97763522  0.25012851  0.31530283  1
  O  O470  1  0.97804334  0.24847106  0.56638890  1
  O  O471  1  0.97746146  0.25169211  0.81731719  1
  O  O472  1  0.97708067  0.58286058  0.06590936  1
  O  O473  1  0.97829115  0.58331483  0.31828135  1
  O  O474  1  0.97737774  0.58137996  0.56724811  1
  O  O475  1  0.97791432  0.58322836  0.81866761  1
  O  O476  1  0.97870234  0.91704440  0.06865504  1
  O  O477  1  0.97754248  0.91652440  0.31522308  1
  O  O478  1  0.97896476  0.91751139  0.56789740  1
  O  O479  1  0.97770190  0.91523355  0.81726421  1
  O  O480  1  0.07350757  0.31189958  0.07495695  1
  O  O481  1  0.07205132  0.31437059  0.32348726  1
  O  O482  1  0.07353285  0.31224135  0.57406298  1
  O  O483  1  0.07214238  0.31529940  0.82452676  1
  O  O484  1  0.07185777  0.64704142  0.07333088  1
  O  O485  1  0.07373867  0.64650204  0.32586121  1
  O  O486  1  0.07259266  0.64541257  0.57503314  1
  O  O487  1  0.07337749  0.64639290  0.82573695  1
  O  O488  1  0.07407997  0.98036449  0.07554634  1
  O  O489  1  0.07204616  0.98098764  0.32247456  1
  O  O490  1  0.07479951  0.97986522  0.57541188  1
  O  O491  1  0.07288283  0.97944784  0.82479404  1
  O  O492  1  0.57339273  0.31262412  0.07605077  1
  O  O493  1  0.57269241  0.31195747  0.32526266  1
  O  O494  1  0.57306722  0.31165370  0.57428225  1
  O  O495  1  0.57447743  0.31237470  0.82506846  1
  O  O496  1  0.57413162  0.64751913  0.07518494  1
  O  O497  1  0.57405805  0.64756814  0.32527952  1
  O  O498  1  0.57346543  0.64720285  0.57653783  1
  O  O499  1  0.57325778  0.64622293  0.82475419  1
  O  O500  1  0.57275275  0.98017000  0.07325126  1
  O  O501  1  0.57220439  0.98074196  0.32277021  1
  O  O502  1  0.57417899  0.97857606  0.57436386  1
  O  O503  1  0.57252528  0.97970808  0.82318271  1
  O  O504  1  0.42905924  0.01876050  0.17687089  1
  O  O505  1  0.42742263  0.02025591  0.42433147  1
  O  O506  1  0.42674790  0.01773596  0.67538451  1
  O  O507  1  0.42706037  0.01756999  0.92622325  1
  O  O508  1  0.42523231  0.35300375  0.17485107  1
  O  O509  1  0.42537042  0.35270593  0.42529677  1
  O  O510  1  0.42651277  0.35370605  0.67572410  1
  O  O511  1  0.42629572  0.35289190  0.92406160  1
  O  O512  1  0.42713600  0.68917215  0.17490663  1
  O  O513  1  0.42698887  0.68905520  0.42499649  1
  O  O514  1  0.42617553  0.68830378  0.67525774  1
  O  O515  1  0.42713658  0.68819023  0.92506673  1
  O  O516  1  0.92904034  0.01987680  0.17676583  1
  O  O517  1  0.92776009  0.02124398  0.42380250  1
  O  O518  1  0.92586272  0.02013859  0.67426780  1
  O  O519  1  0.92694065  0.02102715  0.92596364  1
  O  O520  1  0.92661113  0.35191326  0.17616461  1
  O  O521  1  0.92659751  0.35385584  0.42546443  1
  O  O522  1  0.92664833  0.35149503  0.67559029  1
  O  O523  1  0.92599903  0.35415105  0.92634153  1
  O  O524  1  0.92704008  0.68732015  0.17571904  1
  O  O525  1  0.92564645  0.68732979  0.42422160  1
  O  O526  1  0.92674990  0.68734404  0.67555128  1
  O  O527  1  0.92691629  0.68582564  0.92617958  1
  O  O528  1  0.17834874  0.01963112  0.19700157  1
  O  O529  1  0.17662584  0.01824078  0.44831983  1
  O  O530  1  0.17676920  0.02085610  0.70050340  1
  O  O531  1  0.17732872  0.02000341  0.94875033  1
  O  O532  1  0.17579231  0.35357084  0.19975021  1
  O  O533  1  0.17617798  0.35285373  0.45056129  1
  O  O534  1  0.17627676  0.35314002  0.70161700  1
  O  O535  1  0.17717736  0.35311122  0.94903220  1
  O  O536  1  0.17682449  0.68572747  0.19844091  1
  O  O537  1  0.17654574  0.68537007  0.44910034  1
  O  O538  1  0.17687804  0.68526006  0.70021771  1
  O  O539  1  0.17709644  0.68706470  0.94865834  1
  O  O540  1  0.67758134  0.01968004  0.19808151  1
  O  O541  1  0.67696907  0.01803585  0.44847413  1
  O  O542  1  0.67709807  0.02064868  0.69918694  1
  O  O543  1  0.67754766  0.01810831  0.94923612  1
  O  O544  1  0.67683558  0.35215317  0.19988086  1
  O  O545  1  0.67758361  0.35270536  0.44927716  1
  O  O546  1  0.67629633  0.35480018  0.69954614  1
  O  O547  1  0.67635162  0.35322020  0.95068366  1
  O  O548  1  0.67754168  0.68645869  0.19866716  1
  O  O549  1  0.67696178  0.68461737  0.44901006  1
  O  O550  1  0.67711900  0.68570560  0.69902352  1
  O  O551  1  0.67690566  0.68572714  0.94957453  1
  O  O552  1  0.32308034  0.31248074  0.04934886  1
  O  O553  1  0.32326815  0.31303071  0.29919965  1
  O  O554  1  0.32320134  0.31167407  0.55117436  1
  O  O555  1  0.32239300  0.31332886  0.80144761  1
  O  O556  1  0.32296517  0.64878454  0.05018699  1
  O  O557  1  0.32328821  0.64886817  0.30084582  1
  O  O558  1  0.32300212  0.64847697  0.55188740  1
  O  O559  1  0.32295455  0.64718198  0.80196345  1
  O  O560  1  0.32303367  0.98150814  0.04978244  1
  O  O561  1  0.32265398  0.98176161  0.30014906  1
  O  O562  1  0.32394266  0.97982048  0.54981807  1
  O  O563  1  0.32225186  0.98039511  0.80105520  1
  O  O564  1  0.82247857  0.31373652  0.05227138  1
  O  O565  1  0.82280667  0.31457195  0.30117826  1
  O  O566  1  0.82319482  0.31219499  0.54993809  1
  O  O567  1  0.82325347  0.31406400  0.79972486  1
  O  O568  1  0.82336348  0.64813415  0.05183291  1
  O  O569  1  0.82260000  0.64708865  0.30173778  1
  O  O570  1  0.82266014  0.64649635  0.55126178  1
  O  O571  1  0.82339304  0.64839358  0.80092050  1
  O  O572  1  0.82321863  0.97979733  0.05158551  1
  O  O573  1  0.82272916  0.98140311  0.29985049  1
  O  O574  1  0.82447384  0.97971992  0.54895966  1
  O  O575  1  0.82302167  0.98167496  0.80110352  1
  O  O576  1  0.42826941  0.14603882  0.17566006  1
  O  O577  1  0.42691640  0.14715345  0.42580740  1
  O  O578  1  0.42697612  0.14482762  0.67603058  1
  O  O579  1  0.42769512  0.14461051  0.92480019  1
  O  O580  1  0.42569574  0.48021963  0.17497114  1
  O  O581  1  0.42548683  0.47983179  0.42512899  1
  O  O582  1  0.42657448  0.48114791  0.67645944  1
  O  O583  1  0.42595030  0.47990879  0.92508363  1
  O  O584  1  0.42702519  0.81623495  0.17535852  1
  O  O585  1  0.42707906  0.81620557  0.42571896  1
  O  O586  1  0.42650186  0.81532071  0.67638377  1
  O  O587  1  0.42680386  0.81533085  0.92557167  1
  O  O588  1  0.92778131  0.14714046  0.17677731  1
  O  O589  1  0.92734803  0.14836974  0.42476305  1
  O  O590  1  0.92581187  0.14692958  0.67467134  1
  O  O591  1  0.92682619  0.14832438  0.92658765  1
  O  O592  1  0.92633508  0.47912229  0.17582505  1
  O  O593  1  0.92661092  0.48098484  0.42599631  1
  O  O594  1  0.92639980  0.47869081  0.67568318  1
  O  O595  1  0.92638205  0.48123481  0.92630660  1
  O  O596  1  0.92706010  0.81453854  0.17516348  1
  O  O597  1  0.92626043  0.81423633  0.42465215  1
  O  O598  1  0.92698512  0.81471446  0.67622084  1
  O  O599  1  0.92670642  0.81290010  0.92624324  1
  O  O600  1  0.07289889  0.18497882  0.07396682  1
  O  O601  1  0.07319530  0.18694213  0.32290534  1
  O  O602  1  0.07295769  0.18519266  0.57404208  1
  O  O603  1  0.07308056  0.18810770  0.82465378  1
  O  O604  1  0.07222623  0.51931282  0.07343278  1
  O  O605  1  0.07382426  0.51975915  0.32508174  1
  O  O606  1  0.07249203  0.51794501  0.57463447  1
  O  O607  1  0.07323056  0.51971194  0.82627007  1
  O  O608  1  0.07428284  0.85366576  0.07567649  1
  O  O609  1  0.07283893  0.85331356  0.32310724  1
  O  O610  1  0.07404831  0.85302817  0.57445562  1
  O  O611  1  0.07281221  0.85201590  0.82433645  1
  O  O612  1  0.57431000  0.18566930  0.07519095  1
  O  O613  1  0.57359360  0.18483754  0.32352845  1
  O  O614  1  0.57296635  0.18430082  0.57395224  1
  O  O615  1  0.57443860  0.18529959  0.82543381  1
  O  O616  1  0.57376314  0.52044495  0.07565910  1
  O  O617  1  0.57325759  0.52041329  0.32555033  1
  O  O618  1  0.57338900  0.52026595  0.57519083  1
  O  O619  1  0.57273153  0.51883469  0.82415487  1
  O  O620  1  0.57269362  0.85305594  0.07301467  1
  O  O621  1  0.57345299  0.85348076  0.32238535  1
  O  O622  1  0.57335812  0.85170358  0.57397635  1
  O  O623  1  0.57248304  0.85257543  0.82366828  1
  O  O624  1  0.32349563  0.18540918  0.04961069  1
  O  O625  1  0.32387898  0.18613577  0.29927323  1
  O  O626  1  0.32283396  0.18441249  0.55161779  1
  O  O627  1  0.32270259  0.18597105  0.80199546  1
  O  O628  1  0.32281603  0.52172843  0.04981320  1
  O  O629  1  0.32312575  0.52170121  0.30010725  1
  O  O630  1  0.32302645  0.52131244  0.55072483  1
  O  O631  1  0.32131672  0.51983506  0.80228924  1
  O  O632  1  0.32303215  0.85462189  0.04929605  1
  O  O633  1  0.32284885  0.85460836  0.29887091  1
  O  O634  1  0.32373119  0.85299861  0.54935361  1
  O  O635  1  0.32107304  0.85287147  0.80190208  1
  O  O636  1  0.82203899  0.18612375  0.05273843  1
  O  O637  1  0.82319319  0.18762741  0.29948370  1
  O  O638  1  0.82210375  0.18493580  0.54992902  1
  O  O639  1  0.82429660  0.18717876  0.80031331  1
  O  O640  1  0.82327217  0.52111368  0.05071716  1
  O  O641  1  0.82173429  0.51969724  0.30209261  1
  O  O642  1  0.82197564  0.51919566  0.55134274  1
  O  O643  1  0.82315374  0.52135988  0.80071354  1
  O  O644  1  0.82171700  0.85252899  0.05155362  1
  O  O645  1  0.82308634  0.85436732  0.29877441  1
  O  O646  1  0.82418396  0.85284204  0.54871693  1
  O  O647  1  0.82349079  0.85445028  0.80072367  1
  O  O648  1  0.17840190  0.14695112  0.19780869  1
  O  O649  1  0.17653774  0.14525266  0.44847697  1
  O  O650  1  0.17697293  0.14796750  0.69988212  1
  O  O651  1  0.17776038  0.14711461  0.94866376  1
  O  O652  1  0.17563312  0.48057497  0.20003617  1
  O  O653  1  0.17601552  0.48002554  0.45080661  1
  O  O654  1  0.17610439  0.47994718  0.70182674  1
  O  O655  1  0.17836180  0.48079065  0.94859046  1
  O  O656  1  0.17683397  0.81280118  0.19978166  1
  O  O657  1  0.17651855  0.81242805  0.44964089  1
  O  O658  1  0.17681848  0.81229143  0.70030994  1
  O  O659  1  0.17837955  0.81442417  0.94848046  1
  O  O660  1  0.67916448  0.14698983  0.19829012  1
  O  O661  1  0.67641436  0.14517858  0.44841492  1
  O  O662  1  0.67677219  0.14782142  0.69907418  1
  O  O663  1  0.67729584  0.14513207  0.95075023  1
  O  O664  1  0.67660003  0.47917029  0.20096701  1
  O  O665  1  0.67819294  0.48020340  0.44812926  1
  O  O666  1  0.67696089  0.48198618  0.69859511  1
  O  O667  1  0.67606564  0.48020152  0.95170509  1
  O  O668  1  0.67870724  0.81391648  0.19804139  1
  O  O669  1  0.67680886  0.81173804  0.44960918  1
  O  O670  1  0.67772127  0.81283416  0.69975881  1
  O  O671  1  0.67698116  0.81266906  0.95002650  1
