# generated using pymatgen
data_Na2MnFe(PO4)2
_symmetry_space_group_name_H-M   'P 1'
_cell_length_a   22.34658619
_cell_length_b   20.09731762
_cell_length_c   19.44657959
_cell_angle_alpha   89.98128379
_cell_angle_beta   89.98511368
_cell_angle_gamma   89.96842701
_symmetry_Int_Tables_number   1
_chemical_formula_structural   Na2MnFe(PO4)2
_chemical_formula_sum   'Na96 Mn48 Fe48 P96 O384'
_cell_volume   8733.58205024
_cell_formula_units_Z   48
loop_
 _symmetry_equiv_pos_site_id
 _symmetry_equiv_pos_as_xyz
  1  'x, y, z'
loop_
 _atom_site_type_symbol
 _atom_site_label
 _atom_site_symmetry_multiplicity
 _atom_site_fract_x
 _atom_site_fract_y
 _atom_site_fract_z
 _atom_site_occupancy
  Na  Na0  1  0.14090521  0.25040882  0.24307153  1
  Na  Na1  1  0.13993760  0.24993111  0.49393239  1
  Na  Na2  1  0.14033552  0.25150397  0.74398164  1
  Na  Na3  1  0.14038562  0.24979242  0.99455229  1
  Na  Na4  1  0.14000952  0.58411789  0.24320938  1
  Na  Na5  1  0.13998413  0.58389164  0.49395507  1
  Na  Na6  1  0.14066842  0.58526717  0.74267507  1
  Na  Na7  1  0.14064609  0.58245540  0.99425569  1
  Na  Na8  1  0.14020587  0.91793595  0.24347630  1
  Na  Na9  1  0.13963370  0.91545928  0.49389310  1
  Na  Na10  1  0.14005305  0.91795324  0.74202755  1
  Na  Na11  1  0.14020176  0.91675868  0.99419937  1
  Na  Na12  1  0.64083201  0.25009939  0.24386504  1
  Na  Na13  1  0.64037382  0.24986348  0.49502885  1
  Na  Na14  1  0.64049960  0.25108220  0.74422941  1
  Na  Na15  1  0.64066125  0.25038729  0.99406821  1
  Na  Na16  1  0.64011251  0.58290502  0.24225579  1
  Na  Na17  1  0.64024707  0.58170739  0.49376724  1
  Na  Na18  1  0.64069971  0.58273600  0.74446077  1
  Na  Na19  1  0.64121786  0.58318305  0.99365162  1
  Na  Na20  1  0.64062358  0.91666516  0.24191862  1
  Na  Na21  1  0.64038390  0.91670917  0.49440921  1
  Na  Na22  1  0.64013542  0.91531435  0.74394008  1
  Na  Na23  1  0.64006057  0.91470971  0.99302548  1
  Na  Na24  1  0.35960052  0.08280588  0.00759208  1
  Na  Na25  1  0.36017613  0.08299477  0.25438955  1
  Na  Na26  1  0.35949076  0.08300058  0.50619603  1
  Na  Na27  1  0.35899371  0.08525379  0.75701901  1
  Na  Na28  1  0.35941078  0.41604465  0.00692651  1
  Na  Na29  1  0.35984472  0.41811120  0.25617262  1
  Na  Na30  1  0.36005074  0.41692283  0.50752987  1
  Na  Na31  1  0.35938489  0.41734739  0.75561007  1
  Na  Na32  1  0.35950505  0.75038597  0.00658995  1
  Na  Na33  1  0.35962357  0.75032448  0.25507519  1
  Na  Na34  1  0.35935591  0.74892704  0.50629608  1
  Na  Na35  1  0.35946943  0.75198300  0.75611824  1
  Na  Na36  1  0.85920282  0.08292230  0.00665890  1
  Na  Na37  1  0.85966169  0.08379444  0.25655752  1
  Na  Na38  1  0.86003589  0.08272554  0.50761594  1
  Na  Na39  1  0.85959463  0.08258537  0.75529603  1
  Na  Na40  1  0.85983140  0.41649700  0.00682993  1
  Na  Na41  1  0.86003815  0.41656393  0.25615848  1
  Na  Na42  1  0.85959339  0.41562126  0.50694371  1
  Na  Na43  1  0.85918109  0.41736000  0.75655341  1
  Na  Na44  1  0.85967028  0.74949584  0.00482240  1
  Na  Na45  1  0.85976743  0.74953502  0.25616450  1
  Na  Na46  1  0.85986376  0.74941225  0.50763861  1
  Na  Na47  1  0.85962775  0.74865764  0.75632370  1
  Na  Na48  1  0.10974748  0.08349651  0.11839053  1
  Na  Na49  1  0.10956131  0.08349034  0.36976796  1
  Na  Na50  1  0.10917714  0.08318302  0.61800989  1
  Na  Na51  1  0.10961436  0.08253303  0.86862615  1
  Na  Na52  1  0.11023796  0.41716743  0.11857044  1
  Na  Na53  1  0.10928626  0.41719823  0.36903059  1
  Na  Na54  1  0.10916459  0.41744637  0.61805826  1
  Na  Na55  1  0.10997121  0.41671821  0.86927125  1
  Na  Na56  1  0.10957843  0.75023746  0.11965151  1
  Na  Na57  1  0.10955372  0.74975602  0.36930323  1
  Na  Na58  1  0.10967086  0.75098745  0.61782519  1
  Na  Na59  1  0.10968214  0.75106461  0.86720856  1
  Na  Na60  1  0.60953271  0.08205350  0.11767718  1
  Na  Na61  1  0.60974052  0.08347093  0.36958927  1
  Na  Na62  1  0.60977380  0.08406593  0.61886959  1
  Na  Na63  1  0.60935163  0.08330648  0.86922912  1
  Na  Na64  1  0.61013346  0.41584729  0.11839216  1
  Na  Na65  1  0.60964251  0.41664124  0.36910426  1
  Na  Na66  1  0.60967313  0.41652213  0.61890033  1
  Na  Na67  1  0.61025010  0.41694059  0.86921037  1
  Na  Na68  1  0.61002672  0.74898951  0.11725445  1
  Na  Na69  1  0.60965605  0.74948338  0.36749151  1
  Na  Na70  1  0.60977140  0.74916141  0.61922627  1
  Na  Na71  1  0.61006596  0.75009004  0.86909626  1
  Na  Na72  1  0.39027117  0.24940300  0.13163112  1
  Na  Na73  1  0.39050416  0.25088835  0.38080497  1
  Na  Na74  1  0.39001856  0.25033975  0.63176045  1
  Na  Na75  1  0.39018183  0.25125073  0.88224068  1
  Na  Na76  1  0.39076212  0.58263548  0.13126788  1
  Na  Na77  1  0.39038483  0.58322857  0.38089524  1
  Na  Na78  1  0.39002543  0.58301283  0.63150238  1
  Na  Na79  1  0.39025554  0.58396447  0.88068713  1
  Na  Na80  1  0.39010586  0.91603483  0.13064161  1
  Na  Na81  1  0.39061553  0.91687221  0.37937680  1
  Na  Na82  1  0.39012210  0.91665879  0.63189303  1
  Na  Na83  1  0.39018316  0.91789942  0.88246183  1
  Na  Na84  1  0.88987235  0.25069225  0.13221669  1
  Na  Na85  1  0.89068469  0.24952820  0.38191396  1
  Na  Na86  1  0.89027249  0.24853729  0.63094499  1
  Na  Na87  1  0.88988916  0.25020255  0.88188402  1
  Na  Na88  1  0.89056434  0.58357586  0.13120793  1
  Na  Na89  1  0.89055129  0.58345688  0.38132198  1
  Na  Na90  1  0.88971634  0.58455108  0.63201031  1
  Na  Na91  1  0.89015495  0.58341027  0.88095894  1
  Na  Na92  1  0.89002889  0.91531987  0.13151585  1
  Na  Na93  1  0.89099202  0.91685858  0.38196864  1
  Na  Na94  1  0.89046607  0.91610445  0.63167401  1
  Na  Na95  1  0.89003745  0.91577495  0.87965729  1
  Mn  Mn96  1  0.24974601  0.16731233  0.87601393  1
  Mn  Mn97  1  0.00033597  0.83339993  0.25100112  1
  Mn  Mn98  1  0.50017294  0.83347303  0.49876461  1
  Mn  Mn99  1  0.00096040  0.49993241  0.00017764  1
  Mn  Mn100  1  -0.00020968  -0.00044739  -0.00058076  1
  Mn  Mn101  1  -0.00052681  0.50070413  0.50015867  1
  Mn  Mn102  1  0.00006242  0.83335478  -0.00014355  1
  Mn  Mn103  1  0.75061342  -0.00060745  0.12475853  1
  Mn  Mn104  1  0.74995203  0.33326813  0.62569015  1
  Mn  Mn105  1  0.49900506  0.16766297  0.49971070  1
  Mn  Mn106  1  0.24952939  0.50103975  0.37540782  1
  Mn  Mn107  1  0.24927519  0.83489873  0.87520835  1
  Mn  Mn108  1  0.50024258  0.49927777  0.75014215  1
  Mn  Mn109  1  0.74959897  0.83227664  0.62505464  1
  Mn  Mn110  1  0.74983851  0.00022271  0.37458989  1
  Mn  Mn111  1  0.00082788  0.33397695  0.25088165  1
  Mn  Mn112  1  0.00073046  0.16617256  0.25072622  1
  Mn  Mn113  1  0.49981384  0.33361452  0.00080290  1
  Mn  Mn114  1  0.25034822  0.33375719  0.37496480  1
  Mn  Mn115  1  0.25000991  0.66696571  0.12462511  1
  Mn  Mn116  1  0.49957454  -0.00019908  0.75046750  1
  Mn  Mn117  1  0.00047426  0.66681085  -0.00025517  1
  Mn  Mn118  1  0.49966824  0.16779332  0.75003017  1
  Mn  Mn119  1  0.50003582  0.00010211  0.50031097  1
  Mn  Mn120  1  0.24953154  0.33375587  0.62498970  1
  Mn  Mn121  1  0.75030660  0.49960525  0.12453360  1
  Mn  Mn122  1  0.74976483  0.16717081  0.37565376  1
  Mn  Mn123  1  0.24992481  -0.00017211  0.37499188  1
  Mn  Mn124  1  0.74960667  0.16697090  0.87539956  1
  Mn  Mn125  1  0.74963533  0.66603437  0.37493823  1
  Mn  Mn126  1  0.74943541  -0.00111061  0.87564226  1
  Mn  Mn127  1  0.25034838  0.16661078  0.37405154  1
  Mn  Mn128  1  0.75064478  0.49885931  0.37423658  1
  Mn  Mn129  1  0.50070991  0.83301436  0.24906525  1
  Mn  Mn130  1  -0.00048880  0.50070384  0.74953534  1
  Mn  Mn131  1  0.75007453  0.83293671  0.37528479  1
  Mn  Mn132  1  0.25046287  0.49962454  0.87431630  1
  Mn  Mn133  1  0.24989446  0.00067603  0.62499013  1
  Mn  Mn134  1  0.50026688  0.66738955  0.75071859  1
  Mn  Mn135  1  0.49957512  0.66595315  0.49950936  1
  Mn  Mn136  1  0.00063158  0.16584094  0.75007259  1
  Mn  Mn137  1  -0.00121157  0.16700535  -0.00016399  1
  Mn  Mn138  1  0.50040720  0.33386355  0.25022137  1
  Mn  Mn139  1  0.50055974  0.16557245  0.25057140  1
  Mn  Mn140  1  0.25001030  0.66731992  0.87489175  1
  Mn  Mn141  1  0.25057724  0.83256258  0.37449679  1
  Mn  Mn142  1  -0.00038933  0.33303157  0.74968136  1
  Mn  Mn143  1  0.50015934  0.66616809  -0.00041413  1
  Fe  Fe144  1  0.00055609  0.66734831  0.74973352  1
  Fe  Fe145  1  0.74964917  0.49965302  0.62577249  1
  Fe  Fe146  1  0.50009339  0.16660606  0.00034652  1
  Fe  Fe147  1  0.75050662  0.33337696  0.87490424  1
  Fe  Fe148  1  0.75009531  0.83201898  0.87412412  1
  Fe  Fe149  1  0.50030823  -0.00063353  0.24887549  1
  Fe  Fe150  1  -0.00004415  0.83334980  0.74873162  1
  Fe  Fe151  1  0.24934775  0.50074471  0.62512230  1
  Fe  Fe152  1  -0.00013077  0.66707186  0.50010032  1
  Fe  Fe153  1  0.50001974  0.50013900  0.49993493  1
  Fe  Fe154  1  0.75000852  0.16704877  0.12535074  1
  Fe  Fe155  1  0.49948744  0.83280201  0.00027136  1
  Fe  Fe156  1  0.75028630  0.66623465  0.87485807  1
  Fe  Fe157  1  0.00009723  -0.00044170  0.50014855  1
  Fe  Fe158  1  0.50026209  0.49994761  0.00008351  1
  Fe  Fe159  1  0.50020098  0.33406801  0.50007667  1
  Fe  Fe160  1  -0.00014418  0.66696339  0.25068209  1
  Fe  Fe161  1  0.75014119  0.33321249  0.12497457  1
  Fe  Fe162  1  -0.00012400  0.00024438  0.25095006  1
  Fe  Fe163  1  0.25026313  0.16650735  0.12436043  1
  Fe  Fe164  1  0.24974613  0.00000615  0.12477200  1
  Fe  Fe165  1  0.24975820  0.00062064  0.87528163  1
  Fe  Fe166  1  0.25041278  0.50005977  0.12469952  1
  Fe  Fe167  1  -0.00029193  0.33331033  0.49975586  1
  Fe  Fe168  1  0.75051315  0.33279898  0.37544358  1
  Fe  Fe169  1  0.49969615  0.33364912  0.75059669  1
  Fe  Fe170  1  0.75070016  0.66671044  0.12380337  1
  Fe  Fe171  1  0.49987348  0.83340139  0.75034919  1
  Fe  Fe172  1  -0.00047787  0.83314071  0.50038912  1
  Fe  Fe173  1  0.24979112  0.33353720  0.87542938  1
  Fe  Fe174  1  0.50018004  -0.00053686  -0.00064596  1
  Fe  Fe175  1  0.50001438  0.66575074  0.24910954  1
  Fe  Fe176  1  0.25006165  0.66728548  0.62460516  1
  Fe  Fe177  1  -0.00005446  0.16614904  0.50013768  1
  Fe  Fe178  1  -0.00021645  0.33369072  0.00047980  1
  Fe  Fe179  1  0.25025174  0.33355399  0.12495744  1
  Fe  Fe180  1  0.74945159  0.66546027  0.62603776  1
  Fe  Fe181  1  -0.00063625  -0.00053132  0.74897291  1
  Fe  Fe182  1  0.24918827  0.83381446  0.12507468  1
  Fe  Fe183  1  -0.00004986  0.50033567  0.25024819  1
  Fe  Fe184  1  0.75007841  0.16642515  0.62538132  1
  Fe  Fe185  1  0.24985979  0.66661501  0.37479175  1
  Fe  Fe186  1  0.75040216  0.50007474  0.87550700  1
  Fe  Fe187  1  0.25034073  0.83371832  0.62457524  1
  Fe  Fe188  1  0.75045269  0.83239408  0.12392114  1
  Fe  Fe189  1  0.24962895  0.16738788  0.62549121  1
  Fe  Fe190  1  0.50004547  0.49968241  0.25036842  1
  Fe  Fe191  1  0.74982714  -0.00054272  0.62558625  1
  P  P192  1  0.04191193  0.25122634  0.10257651  1
  P  P193  1  0.04311791  0.24988640  0.35439977  1
  P  P194  1  0.04111290  0.24993060  0.60135363  1
  P  P195  1  0.04255172  0.25009243  0.85359953  1
  P  P196  1  0.04286789  0.58367711  0.10420736  1
  P  P197  1  0.04125759  0.58356007  0.35214830  1
  P  P198  1  0.04167277  0.58561531  0.60283210  1
  P  P199  1  0.04268620  0.58454035  0.85193066  1
  P  P200  1  0.04259810  0.91687651  0.10371150  1
  P  P201  1  0.04226974  0.91820736  0.35367279  1
  P  P202  1  0.04086595  0.91647391  0.60204203  1
  P  P203  1  0.04150763  0.91668054  0.85037974  1
  P  P204  1  0.54234030  0.24844431  0.10264978  1
  P  P205  1  0.54288972  0.25066697  0.35367924  1
  P  P206  1  0.54169199  0.25190745  0.60283537  1
  P  P207  1  0.54209397  0.25132491  0.85326535  1
  P  P208  1  0.54251275  0.58159026  0.10289125  1
  P  P209  1  0.54168221  0.58289079  0.35148260  1
  P  P210  1  0.54215467  0.58199668  0.60245340  1
  P  P211  1  0.54277776  0.58303847  0.85357667  1
  P  P212  1  0.54137647  0.91613377  0.10128641  1
  P  P213  1  0.54306116  0.91775607  0.35151782  1
  P  P214  1  0.54266626  0.91598198  0.60366309  1
  P  P215  1  0.54173367  0.91534972  0.85344785  1
  P  P216  1  0.45863163  0.08168173  0.14624832  1
  P  P217  1  0.45694906  0.08294216  0.39638762  1
  P  P218  1  0.45679216  0.08379199  0.64743253  1
  P  P219  1  0.45848744  0.08390554  0.89881123  1
  P  P220  1  0.45824833  0.41800664  0.14748982  1
  P  P221  1  0.45839666  0.41748806  0.39830244  1
  P  P222  1  0.45777472  0.41518154  0.64705758  1
  P  P223  1  0.45767679  0.41783392  0.89781171  1
  P  P224  1  0.45818577  0.74851645  0.14674447  1
  P  P225  1  0.45734987  0.74935217  0.39552787  1
  P  P226  1  0.45799464  0.75100896  0.64751081  1
  P  P227  1  0.45744329  0.75164161  0.89738989  1
  P  P228  1  0.95763336  0.08212559  0.14807585  1
  P  P229  1  0.95859881  0.08262612  0.39865579  1
  P  P230  1  0.95808693  0.08188221  0.64646929  1
  P  P231  1  0.95662062  0.08262948  0.89610578  1
  P  P232  1  0.95821502  0.41784595  0.14764493  1
  P  P233  1  0.95764899  0.41619237  0.39752872  1
  P  P234  1  0.95690998  0.41656082  0.64621565  1
  P  P235  1  0.95772694  0.41586311  0.89776917  1
  P  P236  1  0.95791404  0.74904063  0.14822072  1
  P  P237  1  0.95835216  0.74972335  0.39851521  1
  P  P238  1  0.95859173  0.75003449  0.64737865  1
  P  P239  1  0.95794943  0.75026859  0.89541479  1
  P  P240  1  0.20866224  0.08358700  0.22603649  1
  P  P241  1  0.20746293  0.08375974  0.47853089  1
  P  P242  1  0.20730510  0.08537585  0.72782382  1
  P  P243  1  0.20787274  0.08200409  0.97845074  1
  P  P244  1  0.20882222  0.41724594  0.22638610  1
  P  P245  1  0.20718561  0.41726504  0.47859898  1
  P  P246  1  0.20718587  0.41835019  0.72747954  1
  P  P247  1  0.20822908  0.41547508  0.97831755  1
  P  P248  1  0.20765488  0.75118732  0.22756446  1
  P  P249  1  0.20814093  0.74821479  0.47791930  1
  P  P250  1  0.20856410  0.75115096  0.72609833  1
  P  P251  1  0.20683804  0.75071790  0.97843942  1
  P  P252  1  0.70786103  0.08456578  0.22711917  1
  P  P253  1  0.70748606  0.08311997  0.47939244  1
  P  P254  1  0.70830656  0.08326773  0.72708307  1
  P  P255  1  0.70727470  0.08340998  0.97887527  1
  P  P256  1  0.70818175  0.41500403  0.22748539  1
  P  P257  1  0.70820470  0.41531598  0.47778501  1
  P  P258  1  0.70788106  0.41787911  0.72871371  1
  P  P259  1  0.70924047  0.41604532  0.97686225  1
  P  P260  1  0.70856837  0.74962359  0.22561733  1
  P  P261  1  0.70698530  0.74905760  0.47863559  1
  P  P262  1  0.70791148  0.74783690  0.72845399  1
  P  P263  1  0.70898128  0.74927888  0.97678705  1
  P  P264  1  0.29149056  0.25038901  0.02325768  1
  P  P265  1  0.29297201  0.25063202  0.27054822  1
  P  P266  1  0.29227567  0.24898889  0.52276529  1
  P  P267  1  0.29194722  0.25165947  0.77286521  1
  P  P268  1  0.29260577  0.58211159  0.02235068  1
  P  P269  1  0.29193660  0.58467111  0.27208315  1
  P  P270  1  0.29127701  0.58362368  0.52326296  1
  P  P271  1  0.29263394  0.58421383  0.77072068  1
  P  P272  1  0.29096444  0.91690129  0.02321865  1
  P  P273  1  0.29237151  0.91685734  0.27060123  1
  P  P274  1  0.29242714  0.91547789  0.52248442  1
  P  P275  1  0.29202935  0.91899588  0.77252118  1
  P  P276  1  0.79152954  0.25027806  0.02338003  1
  P  P277  1  0.79253502  0.25117853  0.27217113  1
  P  P278  1  0.79227720  0.24885675  0.52290212  1
  P  P279  1  0.79229231  0.25073098  0.77245209  1
  P  P280  1  0.79245471  0.58425222  0.02148328  1
  P  P281  1  0.79269404  0.58340632  0.27097846  1
  P  P282  1  0.79129453  0.58261833  0.52399902  1
  P  P283  1  0.79116246  0.58303622  0.77299512  1
  P  P284  1  0.79225288  0.91437315  0.02160556  1
  P  P285  1  0.79282116  0.91599132  0.27134716  1
  P  P286  1  0.79206286  0.91728572  0.52305157  1
  P  P287  1  0.79145235  0.91522677  0.77192477  1
  O  O288  1  0.03739912  0.25095223  0.18262203  1
  O  O289  1  0.03764027  0.24986949  0.43428400  1
  O  O290  1  0.03647569  0.24949872  0.68138078  1
  O  O291  1  0.03710013  0.25063708  0.93354299  1
  O  O292  1  0.03742642  0.58357254  0.18411950  1
  O  O293  1  0.03610030  0.58399343  0.43213848  1
  O  O294  1  0.03652992  0.58580941  0.68278523  1
  O  O295  1  0.03801160  0.58407903  0.93197941  1
  O  O296  1  0.03771453  0.91736237  0.18368674  1
  O  O297  1  0.03669445  0.91799361  0.43353655  1
  O  O298  1  0.03566631  0.91603379  0.68193346  1
  O  O299  1  0.03665468  0.91644785  0.93041849  1
  O  O300  1  0.53741743  0.24859643  0.18260286  1
  O  O301  1  0.53734624  0.25144162  0.43360493  1
  O  O302  1  0.53649717  0.25207974  0.68282713  1
  O  O303  1  0.53681668  0.25037404  0.93322407  1
  O  O304  1  0.53689990  0.58189977  0.18278730  1
  O  O305  1  0.53650658  0.58268415  0.43147757  1
  O  O306  1  0.53718384  0.58224227  0.68238721  1
  O  O307  1  0.53755837  0.58267464  0.93349889  1
  O  O308  1  0.53687201  0.91678744  0.18130714  1
  O  O309  1  0.53794521  0.91738232  0.43151026  1
  O  O310  1  0.53735501  0.91542089  0.68365916  1
  O  O311  1  0.53632968  0.91532626  0.93335149  1
  O  O312  1  0.46410472  0.08231313  0.06636849  1
  O  O313  1  0.46240692  0.08230163  0.31642100  1
  O  O314  1  0.46165866  0.08387854  0.56746707  1
  O  O315  1  0.46296178  0.08375388  0.81878675  1
  O  O316  1  0.46341497  0.41806675  0.06756426  1
  O  O317  1  0.46348333  0.41796856  0.31831457  1
  O  O318  1  0.46309850  0.41530220  0.56716515  1
  O  O319  1  0.46295003  0.41675222  0.81789389  1
  O  O320  1  0.46339228  0.74909563  0.06678044  1
  O  O321  1  0.46284129  0.74866229  0.31558115  1
  O  O322  1  0.46293784  0.75055090  0.56747944  1
  O  O323  1  0.46273378  0.75213359  0.81742089  1
  O  O324  1  0.96238147  0.08264832  0.06804751  1
  O  O325  1  0.96350632  0.08255422  0.31865140  1
  O  O326  1  0.96359121  0.08213340  0.56660519  1
  O  O327  1  0.96195774  0.08244592  0.81614042  1
  O  O328  1  0.96350794  0.41703347  0.06766948  1
  O  O329  1  0.96308156  0.41697772  0.31759717  1
  O  O330  1  0.96230389  0.41617772  0.56626132  1
  O  O331  1  0.96236790  0.41625456  0.81774323  1
  O  O332  1  0.96298663  0.74935015  0.06824563  1
  O  O333  1  0.96336454  0.74966277  0.31855310  1
  O  O334  1  0.96354314  0.74982305  0.56742108  1
  O  O335  1  0.96343153  0.75033525  0.81548012  1
  O  O336  1  0.21329017  0.08175717  0.05832841  1
  O  O337  1  0.21342493  0.08368388  0.30603962  1
  O  O338  1  0.21267296  0.08436103  0.55849097  1
  O  O339  1  0.21241466  0.08492785  0.80778325  1
  O  O340  1  0.21389216  0.41580369  0.05820942  1
  O  O341  1  0.21371379  0.41730368  0.30640977  1
  O  O342  1  0.21198208  0.41784502  0.55856546  1
  O  O343  1  0.21257582  0.41758810  0.80739289  1
  O  O344  1  0.21199974  0.75108203  0.05838930  1
  O  O345  1  0.21302159  0.75045208  0.30747557  1
  O  O346  1  0.21344107  0.74804961  0.55779547  1
  O  O347  1  0.21318756  0.75135947  0.80613176  1
  O  O348  1  0.71284023  0.08388112  0.05876613  1
  O  O349  1  0.71285370  0.08432896  0.30714089  1
  O  O350  1  0.71281419  0.08287275  0.55934092  1
  O  O351  1  0.71322016  0.08311253  0.80713124  1
  O  O352  1  0.71411827  0.41593668  0.05684945  1
  O  O353  1  0.71353600  0.41477769  0.30740813  1
  O  O354  1  0.71329882  0.41622882  0.55774492  1
  O  O355  1  0.71341633  0.41756106  0.80855345  1
  O  O356  1  0.71451902  0.74935842  0.05668707  1
  O  O357  1  0.71305728  0.74957862  0.30568697  1
  O  O358  1  0.71187646  0.74858592  0.55861280  1
  O  O359  1  0.71370808  0.74823462  0.80830934  1
  O  O360  1  0.28759785  0.25084265  0.19062592  1
  O  O361  1  0.28740988  0.24929429  0.44275572  1
  O  O362  1  0.28668793  0.25093650  0.69294229  1
  O  O363  1  0.28654409  0.25068204  0.94328140  1
  O  O364  1  0.28682057  0.58376557  0.19214885  1
  O  O365  1  0.28632281  0.58414922  0.44325205  1
  O  O366  1  0.28705386  0.58432186  0.69081973  1
  O  O367  1  0.28756211  0.58236946  0.94237512  1
  O  O368  1  0.28672536  0.91696831  0.19070700  1
  O  O369  1  0.28746638  0.91550782  0.44251243  1
  O  O370  1  0.28732814  0.91854675  0.69260666  1
  O  O371  1  0.28591977  0.91769956  0.94322761  1
  O  O372  1  0.78714240  0.25080586  0.19225735  1
  O  O373  1  0.78705676  0.24966039  0.44297318  1
  O  O374  1  0.78678144  0.24995686  0.69254560  1
  O  O375  1  0.78637698  0.25070037  0.94340766  1
  O  O376  1  0.78769675  0.58401736  0.19102803  1
  O  O377  1  0.78640619  0.58250706  0.44396913  1
  O  O378  1  0.78581674  0.58258967  0.69308781  1
  O  O379  1  0.78699657  0.58407422  0.94159657  1
  O  O380  1  0.78785957  0.91532957  0.19131521  1
  O  O381  1  0.78724709  0.91725738  0.44302559  1
  O  O382  1  0.78582508  0.91603614  0.69202343  1
  O  O383  1  0.78661342  0.91422571  0.94167695  1
  O  O384  1  0.22741507  0.25078242  0.05929056  1
  O  O385  1  0.22870749  0.25069806  0.30625144  1
  O  O386  1  0.22785683  0.24886904  0.55811239  1
  O  O387  1  0.22771033  0.25175843  0.80868479  1
  O  O388  1  0.22828156  0.58230640  0.05775916  1
  O  O389  1  0.22762979  0.58513609  0.30778023  1
  O  O390  1  0.22710422  0.58356619  0.55925571  1
  O  O391  1  0.22847020  0.58388921  0.80661212  1
  O  O392  1  0.22684157  0.91671592  0.05927192  1
  O  O393  1  0.22826877  0.91652980  0.30666292  1
  O  O394  1  0.22805259  0.91562059  0.55790309  1
  O  O395  1  0.22753422  0.91936843  0.80775507  1
  O  O396  1  0.72741555  0.25001646  0.05955551  1
  O  O397  1  0.72833967  0.25173309  0.30828624  1
  O  O398  1  0.72809883  0.24837593  0.55884585  1
  O  O399  1  0.72809343  0.25173363  0.80842474  1
  O  O400  1  0.72840249  0.58427086  0.05777792  1
  O  O401  1  0.72833612  0.58270061  0.30627864  1
  O  O402  1  0.72708326  0.58282119  0.55990659  1
  O  O403  1  0.72732994  0.58363303  0.80968025  1
  O  O404  1  0.72814767  0.91459348  0.05776482  1
  O  O405  1  0.72835672  0.91612207  0.30638913  1
  O  O406  1  0.72772564  0.91706812  0.55836614  1
  O  O407  1  0.72742701  0.91455708  0.80823071  1
  O  O408  1  0.27283970  0.08326488  0.19031203  1
  O  O409  1  0.27178411  0.08331311  0.44313655  1
  O  O410  1  0.27163218  0.08559030  0.69218502  1
  O  O411  1  0.27199734  0.08208923  0.94225056  1
  O  O412  1  0.27303032  0.41679244  0.19063566  1
  O  O413  1  0.27161909  0.41755281  0.44353279  1
  O  O414  1  0.27140290  0.41861931  0.69162757  1
  O  O415  1  0.27229117  0.41513919  0.94192544  1
  O  O416  1  0.27179259  0.75165968  0.19150954  1
  O  O417  1  0.27228471  0.74787785  0.44174516  1
  O  O418  1  0.27283564  0.75091015  0.69052988  1
  O  O419  1  0.27122139  0.75089382  0.94317198  1
  O  O420  1  0.77220831  0.08457847  0.19169719  1
  O  O421  1  0.77169805  0.08326775  0.44359140  1
  O  O422  1  0.77244672  0.08340055  0.69112896  1
  O  O423  1  0.77145801  0.08299636  0.94319749  1
  O  O424  1  0.77237708  0.41512449  0.19155635  1
  O  O425  1  0.77249150  0.41470536  0.44200351  1
  O  O426  1  0.77194105  0.41796800  0.69238732  1
  O  O427  1  0.77331287  0.41545189  0.94082631  1
  O  O428  1  0.77293999  0.75001716  0.19018831  1
  O  O429  1  0.77150814  0.74919693  0.44367364  1
  O  O430  1  0.77190882  0.74754990  0.69197171  1
  O  O431  1  0.77286796  0.74928263  0.93999577  1
  O  O432  1  0.02208077  0.08138122  0.18336641  1
  O  O433  1  0.02275940  0.08240408  0.43445918  1
  O  O434  1  0.02216909  0.08127577  0.68272163  1
  O  O435  1  0.02093904  0.08336975  0.93145677  1
  O  O436  1  0.02242234  0.41880840  0.18349598  1
  O  O437  1  0.02181999  0.41605629  0.43339987  1
  O  O438  1  0.02122641  0.41701220  0.68157071  1
  O  O439  1  0.02218538  0.41526704  0.93287107  1
  O  O440  1  0.02215530  0.74888685  0.18387330  1
  O  O441  1  0.02252002  0.74951282  0.43440495  1
  O  O442  1  0.02272326  0.75045273  0.68350470  1
  O  O443  1  0.02213204  0.75038072  0.93124320  1
  O  O444  1  0.52265927  0.08131783  0.18270498  1
  O  O445  1  0.52122324  0.08370135  0.43184769  1
  O  O446  1  0.52125825  0.08374261  0.68231124  1
  O  O447  1  0.52279494  0.08419198  0.93411660  1
  O  O448  1  0.52252174  0.41834001  0.18314638  1
  O  O449  1  0.52256937  0.41760540  0.43429744  1
  O  O450  1  0.52195213  0.41456561  0.68316097  1
  O  O451  1  0.52197963  0.41813524  0.93354001  1
  O  O452  1  0.52239770  0.74803753  0.18251263  1
  O  O453  1  0.52162150  0.74929561  0.43103745  1
  O  O454  1  0.52229730  0.75145865  0.68304696  1
  O  O455  1  0.52173899  0.75139570  0.93299527  1
  O  O456  1  0.47797057  0.24865069  0.06729318  1
  O  O457  1  0.47868270  0.25006141  0.31810178  1
  O  O458  1  0.47748233  0.25221703  0.56703033  1
  O  O459  1  0.47777399  0.25194567  0.81760368  1
  O  O460  1  0.47835690  0.58135973  0.06673347  1
  O  O461  1  0.47751427  0.58323696  0.31544003  1
  O  O462  1  0.47779858  0.58159792  0.56699374  1
  O  O463  1  0.47852402  0.58323051  0.81821271  1
  O  O464  1  0.47716272  0.91569978  0.06562108  1
  O  O465  1  0.47872058  0.91765360  0.31602551  1
  O  O466  1  0.47834289  0.91612093  0.56824234  1
  O  O467  1  0.47758543  0.91526481  0.81735590  1
  O  O468  1  0.97746734  0.25164532  0.06743838  1
  O  O469  1  0.97892522  0.24997372  0.31867581  1
  O  O470  1  0.97697651  0.25041297  0.56560502  1
  O  O471  1  0.97825703  0.24943017  0.81818915  1
  O  O472  1  0.97871938  0.58337627  0.06831604  1
  O  O473  1  0.97717632  0.58297478  0.31600524  1
  O  O474  1  0.97741287  0.58546503  0.56715870  1
  O  O475  1  0.97820772  0.58497905  0.81690532  1
  O  O476  1  0.97818331  0.91656127  0.06854750  1
  O  O477  1  0.97816899  0.91826704  0.31736341  1
  O  O478  1  0.97691428  0.91699745  0.56565334  1
  O  O479  1  0.97724072  0.91634412  0.81467631  1
  O  O480  1  0.07259942  0.31478628  0.07414337  1
  O  O481  1  0.07448837  0.31317872  0.32601388  1
  O  O482  1  0.07220453  0.31358171  0.57362430  1
  O  O483  1  0.07349989  0.31335540  0.82475287  1
  O  O484  1  0.07390430  0.64711787  0.07578861  1
  O  O485  1  0.07174291  0.64735874  0.32372392  1
  O  O486  1  0.07263012  0.64876994  0.57384506  1
  O  O487  1  0.07347552  0.64805839  0.82350923  1
  O  O488  1  0.07362267  0.98000702  0.07467215  1
  O  O489  1  0.07307922  0.98158060  0.32477331  1
  O  O490  1  0.07257064  0.97972199  0.57417413  1
  O  O491  1  0.07185056  0.98074363  0.82254247  1
  O  O492  1  0.57338448  0.31217171  0.07503844  1
  O  O493  1  0.57381710  0.31399069  0.32493511  1
  O  O494  1  0.57298976  0.31494783  0.57398407  1
  O  O495  1  0.57287686  0.31496462  0.82516923  1
  O  O496  1  0.57356857  0.64516840  0.07467227  1
  O  O497  1  0.57258546  0.64648845  0.32311203  1
  O  O498  1  0.57292643  0.64569108  0.57448064  1
  O  O499  1  0.57358779  0.64682026  0.82567419  1
  O  O500  1  0.57193878  0.97965168  0.07224831  1
  O  O501  1  0.57357128  0.98138032  0.32311412  1
  O  O502  1  0.57342820  0.97991597  0.57604990  1
  O  O503  1  0.57283129  0.97914619  0.82570217  1
  O  O504  1  0.42781904  0.01802609  0.17453152  1
  O  O505  1  0.42601288  0.01961308  0.42504779  1
  O  O506  1  0.42581042  0.02035707  0.67569895  1
  O  O507  1  0.42825883  0.01990051  0.92722141  1
  O  O508  1  0.42771090  0.35391131  0.17509633  1
  O  O509  1  0.42780613  0.35351776  0.42608748  1
  O  O510  1  0.42653444  0.35217412  0.67623603  1
  O  O511  1  0.42650865  0.35454110  0.92639223  1
  O  O512  1  0.42736720  0.68491534  0.17496408  1
  O  O513  1  0.42590088  0.68641380  0.42444481  1
  O  O514  1  0.42738805  0.68713424  0.67541818  1
  O  O515  1  0.42652002  0.68766351  0.92469924  1
  O  O516  1  0.92656197  0.01881998  0.17644132  1
  O  O517  1  0.92714058  0.01948920  0.42703101  1
  O  O518  1  0.92683282  0.01859891  0.67504818  1
  O  O519  1  0.92579307  0.01906796  0.92433885  1
  O  O520  1  0.92740769  0.35427735  0.17596264  1
  O  O521  1  0.92714684  0.35235611  0.42570979  1
  O  O522  1  0.92582643  0.35326697  0.67467609  1
  O  O523  1  0.92695831  0.35242646  0.92640747  1
  O  O524  1  0.92719726  0.68547352  0.17658551  1
  O  O525  1  0.92697441  0.68643857  0.42677876  1
  O  O526  1  0.92800094  0.68642486  0.67622609  1
  O  O527  1  0.92685341  0.68685258  0.92380637  1
  O  O528  1  0.17748965  0.02008409  0.19822454  1
  O  O529  1  0.17654198  0.01995671  0.45084324  1
  O  O530  1  0.17619824  0.02195558  0.69959971  1
  O  O531  1  0.17696630  0.01880468  0.94922712  1
  O  O532  1  0.17759203  0.35379283  0.19846859  1
  O  O533  1  0.17675647  0.35339396  0.45051952  1
  O  O534  1  0.17587384  0.35496164  0.69941807  1
  O  O535  1  0.17731402  0.35201923  0.94975986  1
  O  O536  1  0.17654235  0.68774158  0.19951036  1
  O  O537  1  0.17713067  0.68506714  0.44870073  1
  O  O538  1  0.17758751  0.68761664  0.69811930  1
  O  O539  1  0.17623357  0.68692264  0.95035472  1
  O  O540  1  0.67685315  0.02094690  0.19929534  1
  O  O541  1  0.67628062  0.01989833  0.45060296  1
  O  O542  1  0.67772758  0.01937447  0.69919003  1
  O  O543  1  0.67607495  0.01980902  0.95121739  1
  O  O544  1  0.67717921  0.35184373  0.19857783  1
  O  O545  1  0.67746118  0.35163154  0.44981620  1
  O  O546  1  0.67665641  0.35440991  0.70056909  1
  O  O547  1  0.67763514  0.35295701  0.94861095  1
  O  O548  1  0.67829687  0.68570433  0.19728165  1
  O  O549  1  0.67586585  0.68589864  0.44980257  1
  O  O550  1  0.67683891  0.68442759  0.70006944  1
  O  O551  1  0.67784413  0.68572299  0.94875068  1
  O  O552  1  0.32316897  0.31334280  0.05163777  1
  O  O553  1  0.32417001  0.31387568  0.29935918  1
  O  O554  1  0.32309552  0.31273930  0.55056421  1
  O  O555  1  0.32237256  0.31549158  0.80107640  1
  O  O556  1  0.32386833  0.64564061  0.05002991  1
  O  O557  1  0.32257810  0.64837468  0.30020138  1
  O  O558  1  0.32236746  0.64697182  0.55178528  1
  O  O559  1  0.32362772  0.64765852  0.79929275  1
  O  O560  1  0.32201809  0.98024906  0.05175041  1
  O  O561  1  0.32342133  0.98025198  0.29909196  1
  O  O562  1  0.32364104  0.97892085  0.55028370  1
  O  O563  1  0.32258925  0.98255019  0.80136177  1
  O  O564  1  0.82242340  0.31377667  0.05181612  1
  O  O565  1  0.82361436  0.31444089  0.30092006  1
  O  O566  1  0.82341174  0.31221961  0.55110397  1
  O  O567  1  0.82340510  0.31420882  0.80052884  1
  O  O568  1  0.82337202  0.64770704  0.05001840  1
  O  O569  1  0.82353786  0.64662766  0.29998072  1
  O  O570  1  0.82206146  0.64634316  0.55205943  1
  O  O571  1  0.82276249  0.64635787  0.80087609  1
  O  O572  1  0.82344694  0.97812087  0.04904623  1
  O  O573  1  0.82356173  0.97977480  0.29923298  1
  O  O574  1  0.82248313  0.98080564  0.55189712  1
  O  O575  1  0.82253017  0.97869660  0.80002021  1
  O  O576  1  0.42737332  0.14510685  0.17451005  1
  O  O577  1  0.42557230  0.14652726  0.42404973  1
  O  O578  1  0.42581549  0.14725674  0.67573661  1
  O  O579  1  0.42732908  0.14738367  0.92696485  1
  O  O580  1  0.42693423  0.48097521  0.17643735  1
  O  O581  1  0.42734895  0.48092342  0.42687440  1
  O  O582  1  0.42696832  0.47905950  0.67495468  1
  O  O583  1  0.42700954  0.48163597  0.92571003  1
  O  O584  1  0.42706166  0.81207945  0.17464053  1
  O  O585  1  0.42655018  0.81330772  0.42300323  1
  O  O586  1  0.42699088  0.81440406  0.67586336  1
  O  O587  1  0.42636541  0.81467307  0.92661548  1
  O  O588  1  0.92729856  0.14612973  0.17617936  1
  O  O589  1  0.92835102  0.14677382  0.42694722  1
  O  O590  1  0.92719849  0.14557322  0.67458146  1
  O  O591  1  0.92516530  0.14589066  0.92446992  1
  O  O592  1  0.92705208  0.48134678  0.17569772  1
  O  O593  1  0.92613479  0.47950657  0.42558170  1
  O  O594  1  0.92586406  0.48021510  0.67415955  1
  O  O595  1  0.92711985  0.47971610  0.92570767  1
  O  O596  1  0.92689425  0.81262074  0.17618725  1
  O  O597  1  0.92805238  0.81375516  0.42688913  1
  O  O598  1  0.92734162  0.81358212  0.67544025  1
  O  O599  1  0.92669238  0.81359465  0.92391815  1
  O  O600  1  0.07257850  0.18739426  0.07469351  1
  O  O601  1  0.07424184  0.18650343  0.32571408  1
  O  O602  1  0.07138312  0.18588194  0.57313259  1
  O  O603  1  0.07392592  0.18657098  0.82579415  1
  O  O604  1  0.07429413  0.52044545  0.07560037  1
  O  O605  1  0.07236869  0.51989429  0.32428108  1
  O  O606  1  0.07264471  0.52179653  0.57517729  1
  O  O607  1  0.07339338  0.52075032  0.82395024  1
  O  O608  1  0.07346178  0.85318470  0.07558623  1
  O  O609  1  0.07350528  0.85451203  0.32595084  1
  O  O610  1  0.07121959  0.85261364  0.57311804  1
  O  O611  1  0.07269516  0.85333785  0.82199298  1
  O  O612  1  0.57290756  0.18493024  0.07405893  1
  O  O613  1  0.57429696  0.18713017  0.32612421  1
  O  O614  1  0.57238797  0.18784570  0.57533616  1
  O  O615  1  0.57317490  0.18790587  0.82473151  1
  O  O616  1  0.57363611  0.51827089  0.07424108  1
  O  O617  1  0.57252498  0.51917665  0.32335630  1
  O  O618  1  0.57297839  0.51849006  0.57400663  1
  O  O619  1  0.57413778  0.51990886  0.82513667  1
  O  O620  1  0.57228707  0.85224504  0.07365200  1
  O  O621  1  0.57422194  0.85413637  0.32367035  1
  O  O622  1  0.57408316  0.85300044  0.57481342  1
  O  O623  1  0.57276103  0.85209807  0.82452179  1
  O  O624  1  0.32151844  0.18595235  0.05111636  1
  O  O625  1  0.32405948  0.18705278  0.29865666  1
  O  O626  1  0.32294897  0.18549987  0.55136141  1
  O  O627  1  0.32336172  0.18842690  0.80128913  1
  O  O628  1  0.32306764  0.51843038  0.05086760  1
  O  O629  1  0.32303369  0.52131782  0.30071053  1
  O  O630  1  0.32184203  0.51963608  0.55118048  1
  O  O631  1  0.32416510  0.52092028  0.79888403  1
  O  O632  1  0.32159204  0.85286686  0.05089953  1
  O  O633  1  0.32387954  0.85353764  0.29873204  1
  O  O634  1  0.32284651  0.85171289  0.55102010  1
  O  O635  1  0.32297136  0.85546401  0.80091054  1
  O  O636  1  0.82232433  0.18639526  0.05129367  1
  O  O637  1  0.82347528  0.18749797  0.30047608  1
  O  O638  1  0.82302762  0.18514956  0.55108411  1
  O  O639  1  0.82310789  0.18706960  0.80063068  1
  O  O640  1  0.82370092  0.52067659  0.04944939  1
  O  O641  1  0.82385858  0.51981532  0.29887920  1
  O  O642  1  0.82196899  0.51884159  0.55212837  1
  O  O643  1  0.82168620  0.51923423  0.80180994  1
  O  O644  1  0.82328683  0.85106209  0.05018336  1
  O  O645  1  0.82402876  0.85287280  0.30032122  1
  O  O646  1  0.82329074  0.85361649  0.55058306  1
  O  O647  1  0.82249744  0.85146095  0.79949606  1
  O  O648  1  0.17825387  0.14752881  0.19770170  1
  O  O649  1  0.17634902  0.14689158  0.44970397  1
  O  O650  1  0.17667793  0.14908100  0.69940720  1
  O  O651  1  0.17663646  0.14576149  0.95094248  1
  O  O652  1  0.17847918  0.48128299  0.19830707  1
  O  O653  1  0.17557791  0.48023158  0.44983831  1
  O  O654  1  0.17647089  0.48205188  0.69923733  1
  O  O655  1  0.17702283  0.47902090  0.95020415  1
  O  O656  1  0.17675560  0.81486621  0.19950459  1
  O  O657  1  0.17714975  0.81202046  0.45018269  1
  O  O658  1  0.17817260  0.81509465  0.69773577  1
  O  O659  1  0.17540797  0.81380818  0.94977807  1
  O  O660  1  0.67723642  0.14826586  0.19894601  1
  O  O661  1  0.67622328  0.14657762  0.45115370  1
  O  O662  1  0.67750497  0.14712327  0.69926656  1
  O  O663  1  0.67612910  0.14666965  0.95026520  1
  O  O664  1  0.67716415  0.47879880  0.19979258  1
  O  O665  1  0.67727654  0.47878579  0.44919526  1
  O  O666  1  0.67694831  0.48127689  0.69990427  1
  O  O667  1  0.67919257  0.48035537  0.94876602  1
  O  O668  1  0.67755820  0.81316207  0.19732768  1
  O  O669  1  0.67621027  0.81276773  0.45039815  1
  O  O670  1  0.67663890  0.81134882  0.70050161  1
  O  O671  1  0.67793912  0.81286469  0.94842780  1
