# generated using pymatgen
data_Na2MnFe(PO4)2
_symmetry_space_group_name_H-M   'P 1'
_cell_length_a   22.34309299
_cell_length_b   20.09277981
_cell_length_c   19.44927791
_cell_angle_alpha   90.01266684
_cell_angle_beta   89.98549328
_cell_angle_gamma   89.94438598
_symmetry_Int_Tables_number   1
_chemical_formula_structural   Na2MnFe(PO4)2
_chemical_formula_sum   'Na96 Mn48 Fe48 P96 O384'
_cell_volume   8731.45401158
_cell_formula_units_Z   48
loop_
 _symmetry_equiv_pos_site_id
 _symmetry_equiv_pos_as_xyz
  1  'x, y, z'
loop_
 _atom_site_type_symbol
 _atom_site_label
 _atom_site_symmetry_multiplicity
 _atom_site_fract_x
 _atom_site_fract_y
 _atom_site_fract_z
 _atom_site_occupancy
  Na  Na0  1  0.14010974  0.25085036  0.24328782  1
  Na  Na1  1  0.14036892  0.25077519  0.49447527  1
  Na  Na2  1  0.14067381  0.24996165  0.74312249  1
  Na  Na3  1  0.14047384  0.24848331  0.99518396  1
  Na  Na4  1  0.14032155  0.58455975  0.24361598  1
  Na  Na5  1  0.14001172  0.58291888  0.49401711  1
  Na  Na6  1  0.14053235  0.58211029  0.74321417  1
  Na  Na7  1  0.14010334  0.58283867  0.99554421  1
  Na  Na8  1  0.14072190  0.91692616  0.24325891  1
  Na  Na9  1  0.14042851  0.91602989  0.49398162  1
  Na  Na10  1  0.14033792  0.91613642  0.74364274  1
  Na  Na11  1  0.14083048  0.91509572  0.99434804  1
  Na  Na12  1  0.64014131  0.24972788  0.24431665  1
  Na  Na13  1  0.64062367  0.24935652  0.49375608  1
  Na  Na14  1  0.64040616  0.24955518  0.74275007  1
  Na  Na15  1  0.64049037  0.24875005  0.99296548  1
  Na  Na16  1  0.64018108  0.58464164  0.24392519  1
  Na  Na17  1  0.63992004  0.58269186  0.49305779  1
  Na  Na18  1  0.64009877  0.58326094  0.74264092  1
  Na  Na19  1  0.64030488  0.58359604  0.99310898  1
  Na  Na20  1  0.64075090  0.91830617  0.24324813  1
  Na  Na21  1  0.64038232  0.91782114  0.49333922  1
  Na  Na22  1  0.64054991  0.91802802  0.74255060  1
  Na  Na23  1  0.64063165  0.91673186  0.99405322  1
  Na  Na24  1  0.36050757  0.08141586  0.00677158  1
  Na  Na25  1  0.36071112  0.08375551  0.25599915  1
  Na  Na26  1  0.35999090  0.08345686  0.50630196  1
  Na  Na27  1  0.35987117  0.08299540  0.75642437  1
  Na  Na28  1  0.35954436  0.41633907  0.00606927  1
  Na  Na29  1  0.35949091  0.41808462  0.25627186  1
  Na  Na30  1  0.35993036  0.41773150  0.50806184  1
  Na  Na31  1  0.36000230  0.41698677  0.75538535  1
  Na  Na32  1  0.35946306  0.74832420  0.00578207  1
  Na  Na33  1  0.35974483  0.74999403  0.25543591  1
  Na  Na34  1  0.35981421  0.74921977  0.50768359  1
  Na  Na35  1  0.36028350  0.74986711  0.75662610  1
  Na  Na36  1  0.85949300  0.08240073  0.00641182  1
  Na  Na37  1  0.85982195  0.08463367  0.25746765  1
  Na  Na38  1  0.85919180  0.08366527  0.50603163  1
  Na  Na39  1  0.85938764  0.08385520  0.75571398  1
  Na  Na40  1  0.85910946  0.41644001  0.00595009  1
  Na  Na41  1  0.85910927  0.41701768  0.25772210  1
  Na  Na42  1  0.85984758  0.41600303  0.50648994  1
  Na  Na43  1  0.85959249  0.41621951  0.75674290  1
  Na  Na44  1  0.85906510  0.74965961  0.00645221  1
  Na  Na45  1  0.85933492  0.75102372  0.25618342  1
  Na  Na46  1  0.85926396  0.75084547  0.50592051  1
  Na  Na47  1  0.85881334  0.75060181  0.75541296  1
  Na  Na48  1  0.10985209  0.08363959  0.11941015  1
  Na  Na49  1  0.10958838  0.08435101  0.36847429  1
  Na  Na50  1  0.10967478  0.08155998  0.61932463  1
  Na  Na51  1  0.10991724  0.08316364  0.86877173  1
  Na  Na52  1  0.10918043  0.41697013  0.12058126  1
  Na  Na53  1  0.10939158  0.41778150  0.36889572  1
  Na  Na54  1  0.10996920  0.41644489  0.61925259  1
  Na  Na55  1  0.10968671  0.41650723  0.86881024  1
  Na  Na56  1  0.11015543  0.74912745  0.11899677  1
  Na  Na57  1  0.10980864  0.75020596  0.36848844  1
  Na  Na58  1  0.10929510  0.74847811  0.61882142  1
  Na  Na59  1  0.10948349  0.74897918  0.86870182  1
  Na  Na60  1  0.61023172  0.08366486  0.11891660  1
  Na  Na61  1  0.61028628  0.08339459  0.36864339  1
  Na  Na62  1  0.61005999  0.08489536  0.61776303  1
  Na  Na63  1  0.60997418  0.08301165  0.86809223  1
  Na  Na64  1  0.60943147  0.41643732  0.11790488  1
  Na  Na65  1  0.60909555  0.41544993  0.36986048  1
  Na  Na66  1  0.60976808  0.41648152  0.61830203  1
  Na  Na67  1  0.60984887  0.41646787  0.86723486  1
  Na  Na68  1  0.61027466  0.75096809  0.11786866  1
  Na  Na69  1  0.60969983  0.74999781  0.36859261  1
  Na  Na70  1  0.60928824  0.75066035  0.61816667  1
  Na  Na71  1  0.60929950  0.75001457  0.86879680  1
  Na  Na72  1  0.39084810  0.24828925  0.13100125  1
  Na  Na73  1  0.39061002  0.24938708  0.38125266  1
  Na  Na74  1  0.39078845  0.25073277  0.63155267  1
  Na  Na75  1  0.39068483  0.24887410  0.88046019  1
  Na  Na76  1  0.38993634  0.58413122  0.13105740  1
  Na  Na77  1  0.39020593  0.58319263  0.38271584  1
  Na  Na78  1  0.39036673  0.58378544  0.63180573  1
  Na  Na79  1  0.39005743  0.58408667  0.88081198  1
  Na  Na80  1  0.39082635  0.91724893  0.13105729  1
  Na  Na81  1  0.39081325  0.91648062  0.38116137  1
  Na  Na82  1  0.39074481  0.91744858  0.63178718  1
  Na  Na83  1  0.39076508  0.91628193  0.88115219  1
  Na  Na84  1  0.88998688  0.24965433  0.13306220  1
  Na  Na85  1  0.88984941  0.25084927  0.38152915  1
  Na  Na86  1  0.88973507  0.25005780  0.63241993  1
  Na  Na87  1  0.89020849  0.25049419  0.88059678  1
  Na  Na88  1  0.88960841  0.58332211  0.13228156  1
  Na  Na89  1  0.89018184  0.58470197  0.38044921  1
  Na  Na90  1  0.89017741  0.58168151  0.63091505  1
  Na  Na91  1  0.88978131  0.58219045  0.88087937  1
  Na  Na92  1  0.89035294  0.91665976  0.13208484  1
  Na  Na93  1  0.89043023  0.91780859  0.38107094  1
  Na  Na94  1  0.88959432  0.91611821  0.63083224  1
  Na  Na95  1  0.88967354  0.91751155  0.88011230  1
  Mn  Mn96  1  0.49981427  0.83365034  0.00005874  1
  Mn  Mn97  1  0.50020167  0.50042355  0.74940003  1
  Mn  Mn98  1  0.25018681  0.00018262  0.37437443  1
  Mn  Mn99  1  0.00025095  0.16620504  0.75015792  1
  Mn  Mn100  1  -0.00056834  0.49941387  0.00092677  1
  Mn  Mn101  1  0.00012440  0.33413671  0.50041008  1
  Mn  Mn102  1  -0.00033014  0.83326547  0.00004082  1
  Mn  Mn103  1  0.49997469  0.16675548  0.49990344  1
  Mn  Mn104  1  0.24974333  0.83224629  0.87468790  1
  Mn  Mn105  1  0.75048280  0.00054752  0.12514785  1
  Mn  Mn106  1  0.50019085  0.66662304  0.25055281  1
  Mn  Mn107  1  0.50019727  0.00056646  0.75034828  1
  Mn  Mn108  1  0.74915839  0.66639786  0.87470229  1
  Mn  Mn109  1  -0.00032163  0.66589903  -0.00055295  1
  Mn  Mn110  1  0.49982324  0.33216619  -0.00105860  1
  Mn  Mn111  1  0.00049376  0.83358904  0.24977038  1
  Mn  Mn112  1  0.74966446  0.83394440  0.37477946  1
  Mn  Mn113  1  -0.00019267  0.33348283  0.00101723  1
  Mn  Mn114  1  0.75007480  0.49884742  0.62395459  1
  Mn  Mn115  1  0.50030560  0.83394164  0.49993640  1
  Mn  Mn116  1  0.74972223  0.50008958  0.37481015  1
  Mn  Mn117  1  -0.00052890  -0.00068921  0.49923796  1
  Mn  Mn118  1  0.74904499  0.50068384  0.12555499  1
  Mn  Mn119  1  0.25061189  0.16492695  0.87414693  1
  Mn  Mn120  1  0.25046905  0.33453649  0.37462668  1
  Mn  Mn121  1  0.74941234  0.33282120  0.12519459  1
  Mn  Mn122  1  0.25080994  0.83253162  0.37516993  1
  Mn  Mn123  1  0.25051095  -0.00057188  0.12514161  1
  Mn  Mn124  1  0.25008139  0.16757244  0.37610064  1
  Mn  Mn125  1  -0.00085547  0.83318537  0.74965641  1
  Mn  Mn126  1  0.49910138  0.33229930  0.24925855  1
  Mn  Mn127  1  0.00012609  0.00031813  0.00052834  1
  Mn  Mn128  1  0.49952107  0.50083192  -0.00139411  1
  Mn  Mn129  1  0.25055346  0.33339241  0.12511347  1
  Mn  Mn130  1  0.24952587  0.50050945  0.87547585  1
  Mn  Mn131  1  0.24986827  0.83296649  0.62545056  1
  Mn  Mn132  1  0.49996313  0.83440386  0.24946714  1
  Mn  Mn133  1  0.50026492  0.49969073  0.25005696  1
  Mn  Mn134  1  -0.00008490  0.16679441  0.50033306  1
  Mn  Mn135  1  0.75008362  0.16630861  0.87428945  1
  Mn  Mn136  1  -0.00026629  0.16695663  0.00049280  1
  Mn  Mn137  1  0.24990032  0.33279129  0.87569877  1
  Mn  Mn138  1  -0.00114197  0.66512045  0.74890185  1
  Mn  Mn139  1  0.24991015  0.50164127  0.37633996  1
  Mn  Mn140  1  0.75023089  0.66693081  0.62477946  1
  Mn  Mn141  1  0.24990216  0.16620562  0.62512810  1
  Mn  Mn142  1  0.74927511  0.83435742  0.87495143  1
  Mn  Mn143  1  -0.00022689  0.66629057  0.49968169  1
  Fe  Fe144  1  0.74992513  0.33283619  0.62525749  1
  Fe  Fe145  1  0.50088927  0.00050295  -0.00016940  1
  Fe  Fe146  1  0.49998133  0.00045579  0.50008813  1
  Fe  Fe147  1  0.74973396  0.49957041  0.87470209  1
  Fe  Fe148  1  0.00058909  0.00030352  0.25061625  1
  Fe  Fe149  1  -0.00005211  0.49908938  0.75025638  1
  Fe  Fe150  1  0.74991522  0.66728046  0.12445625  1
  Fe  Fe151  1  -0.00016450  -0.00067984  0.74963774  1
  Fe  Fe152  1  0.25017132  0.66663895  0.12509211  1
  Fe  Fe153  1  0.75044505  0.16709781  0.12548502  1
  Fe  Fe154  1  0.75014218  0.00026461  0.87447395  1
  Fe  Fe155  1  0.50013931  0.33321234  0.74946116  1
  Fe  Fe156  1  0.25011861  0.50057148  0.62547558  1
  Fe  Fe157  1  0.00006983  0.16721649  0.25062867  1
  Fe  Fe158  1  0.75036895  0.83381879  0.12501376  1
  Fe  Fe159  1  0.49984604  0.66705419  0.50048684  1
  Fe  Fe160  1  -0.00046260  0.66717592  0.25036955  1
  Fe  Fe161  1  0.24999444  0.50068216  0.12555535  1
  Fe  Fe162  1  0.49989560  0.49972402  0.50062348  1
  Fe  Fe163  1  0.75035574  0.00060765  0.37494724  1
  Fe  Fe164  1  0.74983027  0.00065045  0.62405718  1
  Fe  Fe165  1  -0.00048434  0.49991286  0.49950586  1
  Fe  Fe166  1  0.74955647  0.33282717  0.37544048  1
  Fe  Fe167  1  0.25029236  -0.00134679  0.87573334  1
  Fe  Fe168  1  0.50041066  0.66685555  0.74949816  1
  Fe  Fe169  1  0.24982367  0.66604523  0.87533584  1
  Fe  Fe170  1  0.50024568  0.66711073  -0.00035957  1
  Fe  Fe171  1  0.25064699  0.16607783  0.12475801  1
  Fe  Fe172  1  0.25048332  0.33370198  0.62502340  1
  Fe  Fe173  1  0.00003299  0.83328929  0.49944787  1
  Fe  Fe174  1  0.50008630  0.16664558  0.74961186  1
  Fe  Fe175  1  0.74996071  0.33277651  0.87486906  1
  Fe  Fe176  1  -0.00045826  0.33392715  0.25104089  1
  Fe  Fe177  1  0.75022542  0.16672513  0.62435275  1
  Fe  Fe178  1  0.50050873  0.16582411  0.25011960  1
  Fe  Fe179  1  0.50022512  0.33298648  0.49994297  1
  Fe  Fe180  1  0.24961130  0.66656741  0.62556869  1
  Fe  Fe181  1  0.50052498  0.83340363  0.75024267  1
  Fe  Fe182  1  -0.00048836  0.50046777  0.25029095  1
  Fe  Fe183  1  0.25015120  0.66721074  0.37485716  1
  Fe  Fe184  1  0.25022884  -0.00033225  0.62501394  1
  Fe  Fe185  1  0.25053968  0.83249658  0.12452621  1
  Fe  Fe186  1  0.74954635  0.66746183  0.37477369  1
  Fe  Fe187  1  0.74931173  0.83411861  0.62459451  1
  Fe  Fe188  1  0.50062542  0.00052905  0.24998676  1
  Fe  Fe189  1  0.00021033  0.33324448  0.75035189  1
  Fe  Fe190  1  0.75025856  0.16705333  0.37571603  1
  Fe  Fe191  1  0.50049202  0.16611772  -0.00021536  1
  P  P192  1  0.04213460  0.25014165  0.10506715  1
  P  P193  1  0.04164243  0.25080207  0.35203997  1
  P  P194  1  0.04247251  0.25028167  0.60394507  1
  P  P195  1  0.04267405  0.25097432  0.85251545  1
  P  P196  1  0.04181265  0.58325957  0.10453180  1
  P  P197  1  0.04120424  0.58352418  0.35173417  1
  P  P198  1  0.04158033  0.58099267  0.60247150  1
  P  P199  1  0.04227003  0.58167498  0.85204698  1
  P  P200  1  0.04305405  0.91681552  0.10382204  1
  P  P201  1  0.04275317  0.91768644  0.35270873  1
  P  P202  1  0.04198222  0.91515923  0.60242981  1
  P  P203  1  0.04232093  0.91751654  0.85230299  1
  P  P204  1  0.54246514  0.24798854  0.10229365  1
  P  P205  1  0.54186398  0.24876939  0.35251792  1
  P  P206  1  0.54216938  0.25132498  0.60287950  1
  P  P207  1  0.54154398  0.24924522  0.85130061  1
  P  P208  1  0.54234826  0.58451979  0.10193107  1
  P  P209  1  0.54239743  0.58274677  0.35454545  1
  P  P210  1  0.54139022  0.58371230  0.60177402  1
  P  P211  1  0.54229563  0.58505044  0.85210411  1
  P  P212  1  0.54240795  0.91879987  0.10256714  1
  P  P213  1  0.54247143  0.91823640  0.35257704  1
  P  P214  1  0.54225236  0.91840880  0.60270502  1
  P  P215  1  0.54248813  0.91572301  0.85264434  1
  P  P216  1  0.45928750  0.08316329  0.14759175  1
  P  P217  1  0.45817915  0.08204953  0.39701073  1
  P  P218  1  0.45794472  0.08464686  0.64735730  1
  P  P219  1  0.45884270  0.08343248  0.89804418  1
  P  P220  1  0.45691984  0.41656489  0.14632518  1
  P  P221  1  0.45809338  0.41616659  0.39888043  1
  P  P222  1  0.45861224  0.41576981  0.64657672  1
  P  P223  1  0.45727123  0.41624684  0.89562742  1
  P  P224  1  0.45789107  0.75012691  0.14646235  1
  P  P225  1  0.45765256  0.74927164  0.39808225  1
  P  P226  1  0.45900287  0.75042284  0.64818584  1
  P  P227  1  0.45800291  0.74904016  0.89669274  1
  P  P228  1  0.95852595  0.08346404  0.14931263  1
  P  P229  1  0.95736278  0.08403661  0.39605011  1
  P  P230  1  0.95752627  0.08155265  0.64743529  1
  P  P231  1  0.95721687  0.08326709  0.89662410  1
  P  P232  1  0.95734881  0.41668235  0.14957171  1
  P  P233  1  0.95773866  0.41814911  0.39682205  1
  P  P234  1  0.95834766  0.41658530  0.64839392  1
  P  P235  1  0.95735093  0.41627629  0.89649418  1
  P  P236  1  0.95747092  0.74893718  0.14767931  1
  P  P237  1  0.95787695  0.75123025  0.39695096  1
  P  P238  1  0.95663025  0.74971553  0.64577530  1
  P  P239  1  0.95636734  0.74981298  0.89651378  1
  P  P240  1  0.20816546  0.08458703  0.22737335  1
  P  P241  1  0.20724422  0.08279411  0.47869134  1
  P  P242  1  0.20806525  0.08103633  0.72784238  1
  P  P243  1  0.20813353  0.08145898  0.97780567  1
  P  P244  1  0.20792456  0.41857768  0.22770729  1
  P  P245  1  0.20764378  0.41713360  0.47936527  1
  P  P246  1  0.20907483  0.41669345  0.72676137  1
  P  P247  1  0.20719499  0.41682713  0.97911484  1
  P  P248  1  0.20883565  0.74990846  0.22674318  1
  P  P249  1  0.20790606  0.74832302  0.47802896  1
  P  P250  1  0.20756764  0.74828078  0.72802221  1
  P  P251  1  0.20769138  0.74793149  0.97820966  1
  P  P252  1  0.70857342  0.08528199  0.22829795  1
  P  P253  1  0.70897987  0.08350956  0.47706745  1
  P  P254  1  0.70860888  0.08350702  0.72599912  1
  P  P255  1  0.70807927  0.08204048  0.97725583  1
  P  P256  1  0.70664596  0.41638797  0.22863728  1
  P  P257  1  0.70793595  0.41476207  0.47772782  1
  P  P258  1  0.70798308  0.41521067  0.72793137  1
  P  P259  1  0.70827749  0.41622617  0.97621765  1
  P  P260  1  0.70846908  0.75071451  0.22663046  1
  P  P261  1  0.70760802  0.74976477  0.47752660  1
  P  P262  1  0.70734210  0.75168210  0.72688551  1
  P  P263  1  0.70715030  0.75021307  0.97862510  1
  P  P264  1  0.29270252  0.24804633  0.02248219  1
  P  P265  1  0.29292171  0.25005334  0.27146356  1
  P  P266  1  0.29254904  0.25130149  0.52306710  1
  P  P267  1  0.29253241  0.25013341  0.77127058  1
  P  P268  1  0.29147072  0.58333688  0.02333803  1
  P  P269  1  0.29220565  0.58513570  0.27234952  1
  P  P270  1  0.29135778  0.58415921  0.52386192  1
  P  P271  1  0.29193778  0.58447875  0.77196604  1
  P  P272  1  0.29260430  0.91458112  0.02209721  1
  P  P273  1  0.29316395  0.91595835  0.27120983  1
  P  P274  1  0.29258385  0.91723262  0.52290068  1
  P  P275  1  0.29231172  0.91741538  0.77236576  1
  P  P276  1  0.79222517  0.24874619  0.02237970  1
  P  P277  1  0.79120192  0.25002000  0.27363492  1
  P  P278  1  0.79145648  0.25016208  0.52283619  1
  P  P279  1  0.79195502  0.25117900  0.77171849  1
  P  P280  1  0.79161150  0.58391962  0.02222945  1
  P  P281  1  0.79139381  0.58561639  0.27207989  1
  P  P282  1  0.79243806  0.58353936  0.52097553  1
  P  P283  1  0.79176373  0.58190930  0.77231177  1
  P  P284  1  0.79261855  0.91582857  0.02251324  1
  P  P285  1  0.79224312  0.91830214  0.27242118  1
  P  P286  1  0.79108676  0.91733493  0.52264014  1
  P  P287  1  0.79142099  0.91852378  0.77122550  1
  O  O288  1  0.03673619  0.25020016  0.18500670  1
  O  O289  1  0.03668727  0.25057209  0.43207593  1
  O  O290  1  0.03731628  0.25070713  0.68388548  1
  O  O291  1  0.03771140  0.25073484  0.93255406  1
  O  O292  1  0.03634843  0.58371531  0.18441673  1
  O  O293  1  0.03612680  0.58314430  0.43171772  1
  O  O294  1  0.03625102  0.58082777  0.68237668  1
  O  O295  1  0.03731143  0.58209317  0.93204752  1
  O  O296  1  0.03807109  0.91734039  0.18382159  1
  O  O297  1  0.03729305  0.91661815  0.43263612  1
  O  O298  1  0.03662110  0.91589411  0.68237042  1
  O  O299  1  0.03738822  0.91714672  0.93231932  1
  O  O300  1  0.53709963  0.24797092  0.18223308  1
  O  O301  1  0.53659127  0.24951536  0.43243942  1
  O  O302  1  0.53683474  0.25111337  0.68273924  1
  O  O303  1  0.53631909  0.24858680  0.93127397  1
  O  O304  1  0.53742509  0.58388878  0.18196702  1
  O  O305  1  0.53690777  0.58265217  0.43445293  1
  O  O306  1  0.53643046  0.58426199  0.68179269  1
  O  O307  1  0.53697074  0.58522993  0.93203466  1
  O  O308  1  0.53722825  0.91920741  0.18252375  1
  O  O309  1  0.53739148  0.91811795  0.43255613  1
  O  O310  1  0.53706740  0.91774793  0.68261679  1
  O  O311  1  0.53714478  0.91627484  0.93255581  1
  O  O312  1  0.46459632  0.08318078  0.06768660  1
  O  O313  1  0.46359468  0.08230975  0.31712636  1
  O  O314  1  0.46293888  0.08405218  0.56744567  1
  O  O315  1  0.46387807  0.08389656  0.81807971  1
  O  O316  1  0.46183964  0.41664758  0.06634333  1
  O  O317  1  0.46304494  0.41635430  0.31884373  1
  O  O318  1  0.46414597  0.41600283  0.56669179  1
  O  O319  1  0.46272649  0.41594830  0.81568983  1
  O  O320  1  0.46317305  0.74963600  0.06653685  1
  O  O321  1  0.46256712  0.74955664  0.31813214  1
  O  O322  1  0.46413202  0.74996667  0.56821268  1
  O  O323  1  0.46366250  0.74931914  0.81682363  1
  O  O324  1  0.96339316  0.08362533  0.06926330  1
  O  O325  1  0.96288585  0.08419946  0.31617101  1
  O  O326  1  0.96246481  0.08187425  0.56745472  1
  O  O327  1  0.96239450  0.08270412  0.81667363  1
  O  O328  1  0.96248115  0.41651334  0.06957088  1
  O  O329  1  0.96304490  0.41764026  0.31696428  1
  O  O330  1  0.96307262  0.41688620  0.56837363  1
  O  O331  1  0.96277354  0.41615041  0.81659036  1
  O  O332  1  0.96226675  0.74910255  0.06767860  1
  O  O333  1  0.96348981  0.75059643  0.31703247  1
  O  O334  1  0.96220225  0.75036846  0.56584307  1
  O  O335  1  0.96119478  0.74964315  0.81648595  1
  O  O336  1  0.21355152  0.08246180  0.05774617  1
  O  O337  1  0.21295953  0.08458281  0.30734750  1
  O  O338  1  0.21247806  0.08209773  0.55865949  1
  O  O339  1  0.21338089  0.08062378  0.80778546  1
  O  O340  1  0.21267291  0.41749784  0.05901317  1
  O  O341  1  0.21314261  0.41864602  0.30767214  1
  O  O342  1  0.21300565  0.41677297  0.55926123  1
  O  O343  1  0.21337156  0.41691207  0.80679674  1
  O  O344  1  0.21342482  0.74854637  0.05807138  1
  O  O345  1  0.21397738  0.74964020  0.30671741  1
  O  O346  1  0.21281875  0.74834573  0.55800013  1
  O  O347  1  0.21262686  0.74823054  0.80796004  1
  O  O348  1  0.71320934  0.08258314  0.05710917  1
  O  O349  1  0.71390400  0.08508952  0.30814871  1
  O  O350  1  0.71412037  0.08315133  0.55694166  1
  O  O351  1  0.71331203  0.08345421  0.80595792  1
  O  O352  1  0.71272867  0.41644446  0.05627612  1
  O  O353  1  0.71194725  0.41608707  0.30855307  1
  O  O354  1  0.71335654  0.41447977  0.55765138  1
  O  O355  1  0.71336155  0.41571866  0.80782647  1
  O  O356  1  0.71264943  0.75024089  0.05853066  1
  O  O357  1  0.71346990  0.75023764  0.30666740  1
  O  O358  1  0.71282775  0.75049348  0.55743335  1
  O  O359  1  0.71235040  0.75140428  0.80684161  1
  O  O360  1  0.28782053  0.24921126  0.19149121  1
  O  O361  1  0.28768929  0.25131014  0.44306379  1
  O  O362  1  0.28707870  0.25076711  0.69135629  1
  O  O363  1  0.28733150  0.24799176  0.94252163  1
  O  O364  1  0.28695499  0.58453435  0.19246162  1
  O  O365  1  0.28702892  0.58440826  0.44386914  1
  O  O366  1  0.28652066  0.58427618  0.69209473  1
  O  O367  1  0.28621111  0.58370137  0.94337797  1
  O  O368  1  0.28791295  0.91525278  0.19126081  1
  O  O369  1  0.28775216  0.91685333  0.44289878  1
  O  O370  1  0.28694818  0.91779957  0.69241550  1
  O  O371  1  0.28704293  0.91519023  0.94216902  1
  O  O372  1  0.78634519  0.24961680  0.19366931  1
  O  O373  1  0.78632532  0.24991997  0.44292402  1
  O  O374  1  0.78691148  0.25115002  0.69184701  1
  O  O375  1  0.78710370  0.24928080  0.94244029  1
  O  O376  1  0.78579229  0.58579060  0.19213351  1
  O  O377  1  0.78689570  0.58407751  0.44107989  1
  O  O378  1  0.78698379  0.58195473  0.69231326  1
  O  O379  1  0.78639067  0.58288225  0.94226078  1
  O  O380  1  0.78724760  0.91748714  0.19251569  1
  O  O381  1  0.78609125  0.91751954  0.44266649  1
  O  O382  1  0.78577816  0.91826413  0.69136803  1
  O  O383  1  0.78733534  0.91662522  0.94261763  1
  O  O384  1  0.22847371  0.24838048  0.05820357  1
  O  O385  1  0.22853068  0.25055896  0.30673985  1
  O  O386  1  0.22815262  0.25099754  0.55823591  1
  O  O387  1  0.22830786  0.24938375  0.80687886  1
  O  O388  1  0.22744733  0.58314910  0.05971529  1
  O  O389  1  0.22796252  0.58558224  0.30837639  1
  O  O390  1  0.22704027  0.58423570  0.55930156  1
  O  O391  1  0.22775005  0.58496695  0.80811205  1
  O  O392  1  0.22849046  0.91444366  0.05820564  1
  O  O393  1  0.22884743  0.91593590  0.30662281  1
  O  O394  1  0.22815213  0.91719617  0.55809832  1
  O  O395  1  0.22809519  0.91751884  0.80828072  1
  O  O396  1  0.72786357  0.24825067  0.05799763  1
  O  O397  1  0.72706356  0.24991886  0.30970128  1
  O  O398  1  0.72740346  0.25047436  0.55911077  1
  O  O399  1  0.72780571  0.25102768  0.80780566  1
  O  O400  1  0.72733634  0.58466227  0.05790911  1
  O  O401  1  0.72731624  0.58519459  0.30821958  1
  O  O402  1  0.72820803  0.58322086  0.55660544  1
  O  O403  1  0.72736736  0.58185714  0.80757180  1
  O  O404  1  0.72838756  0.91565397  0.05838709  1
  O  O405  1  0.72795331  0.91861512  0.30804754  1
  O  O406  1  0.72695537  0.91751557  0.55870725  1
  O  O407  1  0.72737824  0.91887021  0.80771845  1
  O  O408  1  0.27258039  0.08429975  0.19208368  1
  O  O409  1  0.27168026  0.08325018  0.44354524  1
  O  O410  1  0.27231913  0.08165583  0.69209489  1
  O  O411  1  0.27241813  0.08075523  0.94195828  1
  O  O412  1  0.27218249  0.41857522  0.19202154  1
  O  O413  1  0.27193822  0.41753567  0.44375105  1
  O  O414  1  0.27329113  0.41661996  0.69120781  1
  O  O415  1  0.27145443  0.41676101  0.94350129  1
  O  O416  1  0.27291088  0.75003459  0.19048021  1
  O  O417  1  0.27234270  0.74808512  0.44261226  1
  O  O418  1  0.27190394  0.74830330  0.69246369  1
  O  O419  1  0.27176299  0.74764452  0.94176612  1
  O  O420  1  0.77268209  0.08526743  0.19200292  1
  O  O421  1  0.77297653  0.08378169  0.44062314  1
  O  O422  1  0.77276510  0.08296622  0.69009823  1
  O  O423  1  0.77233053  0.08196578  0.94140373  1
  O  O424  1  0.77096513  0.41662439  0.19322749  1
  O  O425  1  0.77206581  0.41501478  0.44173748  1
  O  O426  1  0.77213055  0.41486341  0.69173360  1
  O  O427  1  0.77254058  0.41621717  0.94071093  1
  O  O428  1  0.77258959  0.75086141  0.19046904  1
  O  O429  1  0.77183421  0.74951189  0.44169468  1
  O  O430  1  0.77167608  0.75194099  0.69141817  1
  O  O431  1  0.77123863  0.75018263  0.94264700  1
  O  O432  1  0.02275455  0.08340087  0.18505855  1
  O  O433  1  0.02155299  0.08349335  0.43179384  1
  O  O434  1  0.02186451  0.08139683  0.68287050  1
  O  O435  1  0.02160979  0.08361131  0.93186426  1
  O  O436  1  0.02159102  0.41667502  0.18536467  1
  O  O437  1  0.02190548  0.41846620  0.43290161  1
  O  O438  1  0.02260159  0.41671789  0.68418838  1
  O  O439  1  0.02160100  0.41649109  0.93218095  1
  O  O440  1  0.02190812  0.74869388  0.18285357  1
  O  O441  1  0.02203274  0.75140820  0.43298727  1
  O  O442  1  0.02083965  0.74929639  0.68139225  1
  O  O443  1  0.02094215  0.74979785  0.93125908  1
  O  O444  1  0.52326976  0.08340445  0.18419512  1
  O  O445  1  0.52232979  0.08192828  0.43312442  1
  O  O446  1  0.52228220  0.08486656  0.68292298  1
  O  O447  1  0.52307784  0.08346506  0.93395316  1
  O  O448  1  0.52137848  0.41608875  0.18129932  1
  O  O449  1  0.52232484  0.41629648  0.43469932  1
  O  O450  1  0.52260253  0.41582154  0.68294474  1
  O  O451  1  0.52151773  0.41646366  0.93116495  1
  O  O452  1  0.52211554  0.75034855  0.18203047  1
  O  O453  1  0.52206522  0.74922533  0.43333506  1
  O  O454  1  0.52309609  0.75080290  0.68428518  1
  O  O455  1  0.52202915  0.74882517  0.93314145  1
  O  O456  1  0.47819891  0.24784800  0.06654212  1
  O  O457  1  0.47771753  0.24763962  0.31656567  1
  O  O458  1  0.47803231  0.25144610  0.56677497  1
  O  O459  1  0.47747631  0.24911375  0.81507946  1
  O  O460  1  0.47794474  0.58497398  0.06661335  1
  O  O461  1  0.47818878  0.58286140  0.31873935  1
  O  O462  1  0.47723465  0.58344539  0.56592126  1
  O  O463  1  0.47808228  0.58485081  0.81630080  1
  O  O464  1  0.47823337  0.91897158  0.06670349  1
  O  O465  1  0.47818620  0.91853100  0.31696531  1
  O  O466  1  0.47800956  0.91853723  0.56689380  1
  O  O467  1  0.47829286  0.91546203  0.81671760  1
  O  O468  1  0.97788703  0.25009671  0.06935773  1
  O  O469  1  0.97738286  0.25081945  0.31636955  1
  O  O470  1  0.97814471  0.25043743  0.56860805  1
  O  O471  1  0.97829004  0.25087773  0.81724770  1
  O  O472  1  0.97761032  0.58318487  0.06870871  1
  O  O473  1  0.97703721  0.58344613  0.31575440  1
  O  O474  1  0.97741390  0.58150510  0.56653505  1
  O  O475  1  0.97776974  0.58088547  0.81689564  1
  O  O476  1  0.97857197  0.91672477  0.06882662  1
  O  O477  1  0.97850594  0.91823070  0.31700653  1
  O  O478  1  0.97772876  0.91447202  0.56657375  1
  O  O479  1  0.97786331  0.91798170  0.81706032  1
  O  O480  1  0.07332897  0.31352464  0.07674162  1
  O  O481  1  0.07241501  0.31463094  0.32437969  1
  O  O482  1  0.07385048  0.31333230  0.57529042  1
  O  O483  1  0.07320237  0.31457880  0.82394407  1
  O  O484  1  0.07309255  0.64633952  0.07561332  1
  O  O485  1  0.07160275  0.64767539  0.32397209  1
  O  O486  1  0.07283079  0.64468243  0.57493544  1
  O  O487  1  0.07263725  0.64550011  0.82378597  1
  O  O488  1  0.07425651  0.98001620  0.07531479  1
  O  O489  1  0.07353184  0.98142692  0.32477236  1
  O  O490  1  0.07294717  0.97866982  0.57424811  1
  O  O491  1  0.07301351  0.98099902  0.82377243  1
  O  O492  1  0.57325351  0.31185096  0.07440096  1
  O  O493  1  0.57238661  0.31251714  0.32424639  1
  O  O494  1  0.57311567  0.31456114  0.57391878  1
  O  O495  1  0.57186899  0.31344142  0.82368617  1
  O  O496  1  0.57310087  0.64813099  0.07387826  1
  O  O497  1  0.57360071  0.64618805  0.32624717  1
  O  O498  1  0.57218676  0.64729007  0.57333720  1
  O  O499  1  0.57323910  0.64824775  0.82318906  1
  O  O500  1  0.57362895  0.98182552  0.07358640  1
  O  O501  1  0.57361941  0.98137291  0.32387961  1
  O  O502  1  0.57270805  0.98217647  0.57437272  1
  O  O503  1  0.57362927  0.97922363  0.82465372  1
  O  O504  1  0.42840439  0.01953639  0.17595273  1
  O  O505  1  0.42730058  0.01868188  0.42583834  1
  O  O506  1  0.42675786  0.02136665  0.67580792  1
  O  O507  1  0.42849410  0.01935048  0.92599096  1
  O  O508  1  0.42581238  0.35308216  0.17434711  1
  O  O509  1  0.42755532  0.35221060  0.42666027  1
  O  O510  1  0.42781119  0.35234577  0.67531171  1
  O  O511  1  0.42605972  0.35298868  0.92399683  1
  O  O512  1  0.42654346  0.68708316  0.17509161  1
  O  O513  1  0.42707399  0.68576424  0.42679364  1
  O  O514  1  0.42822044  0.68681648  0.67658247  1
  O  O515  1  0.42704665  0.68566735  0.92537669  1
  O  O516  1  0.92783253  0.01962250  0.17710791  1
  O  O517  1  0.92581811  0.02079133  0.42420352  1
  O  O518  1  0.92697286  0.01792110  0.67576534  1
  O  O519  1  0.92608031  0.02011913  0.92538849  1
  O  O520  1  0.92651654  0.35304665  0.17765082  1
  O  O521  1  0.92674752  0.35464645  0.42533178  1
  O  O522  1  0.92808372  0.35255605  0.67663885  1
  O  O523  1  0.92633502  0.35289766  0.92513676  1
  O  O524  1  0.92665541  0.68560603  0.17640084  1
  O  O525  1  0.92656589  0.68784377  0.42488655  1
  O  O526  1  0.92554282  0.68594840  0.67328826  1
  O  O527  1  0.92550482  0.68626839  0.92467876  1
  O  O528  1  0.17709522  0.02089470  0.19978307  1
  O  O529  1  0.17621435  0.01968969  0.44968951  1
  O  O530  1  0.17744307  0.01773748  0.69868538  1
  O  O531  1  0.17730892  0.01770333  0.94996765  1
  O  O532  1  0.17692481  0.35484235  0.20022492  1
  O  O533  1  0.17657108  0.35391698  0.45042580  1
  O  O534  1  0.17822064  0.35306318  0.69868897  1
  O  O535  1  0.17640192  0.35294114  0.95141663  1
  O  O536  1  0.17787875  0.68636767  0.19850887  1
  O  O537  1  0.17693759  0.68517900  0.44901906  1
  O  O538  1  0.17644051  0.68519374  0.69916627  1
  O  O539  1  0.17665876  0.68447518  0.94993656  1
  O  O540  1  0.67731251  0.02180645  0.20020991  1
  O  O541  1  0.67829696  0.01991198  0.44827646  1
  O  O542  1  0.67688918  0.02058740  0.69754769  1
  O  O543  1  0.67769411  0.01827687  0.94873713  1
  O  O544  1  0.67553453  0.35312159  0.20007519  1
  O  O545  1  0.67701904  0.35141992  0.44907628  1
  O  O546  1  0.67702889  0.35180881  0.69935935  1
  O  O547  1  0.67769755  0.35232935  0.94819069  1
  O  O548  1  0.67747142  0.68730690  0.19816284  1
  O  O549  1  0.67703054  0.68603929  0.44920934  1
  O  O550  1  0.67652261  0.68785927  0.69923066  1
  O  O551  1  0.67585320  0.68693809  0.95010743  1
  O  O552  1  0.32404483  0.31165720  0.04981916  1
  O  O553  1  0.32389826  0.31391291  0.29898298  1
  O  O554  1  0.32293686  0.31497481  0.55166979  1
  O  O555  1  0.32351025  0.31335928  0.80001447  1
  O  O556  1  0.32240508  0.64684296  0.05168883  1
  O  O557  1  0.32305614  0.64860083  0.30099519  1
  O  O558  1  0.32257929  0.64731565  0.55257518  1
  O  O559  1  0.32311178  0.64763993  0.80076823  1
  O  O560  1  0.32389816  0.97799305  0.05013662  1
  O  O561  1  0.32386593  0.97987731  0.29883401  1
  O  O562  1  0.32312817  0.98089035  0.55126617  1
  O  O563  1  0.32356685  0.98037155  0.80140117  1
  O  O564  1  0.82313522  0.31229930  0.05068434  1
  O  O565  1  0.82159831  0.31409445  0.30159577  1
  O  O566  1  0.82281749  0.31342688  0.55122067  1
  O  O567  1  0.82264464  0.31448143  0.80096009  1
  O  O568  1  0.82251130  0.64755713  0.05032503  1
  O  O569  1  0.82215863  0.64900963  0.30078613  1
  O  O570  1  0.82367830  0.64670286  0.54949262  1
  O  O571  1  0.82271378  0.64570956  0.79982907  1
  O  O572  1  0.82396155  0.97911583  0.05081726  1
  O  O573  1  0.82277573  0.98203674  0.30073918  1
  O  O574  1  0.82243127  0.98065987  0.55074509  1
  O  O575  1  0.82225136  0.98199540  0.79995015  1
  O  O576  1  0.42817882  0.14662835  0.17619525  1
  O  O577  1  0.42686306  0.14557608  0.42513509  1
  O  O578  1  0.42737880  0.14840737  0.67570625  1
  O  O579  1  0.42762537  0.14671766  0.92663041  1
  O  O580  1  0.42622639  0.48013138  0.17487747  1
  O  O581  1  0.42715566  0.47976863  0.42725353  1
  O  O582  1  0.42714494  0.47935326  0.67436123  1
  O  O583  1  0.42610527  0.47995765  0.92337865  1
  O  O584  1  0.42701170  0.81403892  0.17413204  1
  O  O585  1  0.42655712  0.81293320  0.42597894  1
  O  O586  1  0.42813844  0.81428072  0.67607463  1
  O  O587  1  0.42678125  0.81268345  0.92468365  1
  O  O588  1  0.92773753  0.14723892  0.17740873  1
  O  O589  1  0.92642546  0.14753576  0.42473088  1
  O  O590  1  0.92654038  0.14529898  0.67514666  1
  O  O591  1  0.92623745  0.14698728  0.92467544  1
  O  O592  1  0.92654514  0.48053820  0.17732962  1
  O  O593  1  0.92673197  0.48163833  0.42533684  1
  O  O594  1  0.92712933  0.47996079  0.67680339  1
  O  O595  1  0.92597091  0.47955479  0.92506397  1
  O  O596  1  0.92662282  0.81275163  0.17549990  1
  O  O597  1  0.92706107  0.81501105  0.42493145  1
  O  O598  1  0.92527204  0.81282708  0.67443276  1
  O  O599  1  0.92554651  0.81344726  0.92472221  1
  O  O600  1  0.07332951  0.18678477  0.07641332  1
  O  O601  1  0.07247838  0.18710025  0.32387642  1
  O  O602  1  0.07328018  0.18640962  0.57612690  1
  O  O603  1  0.07396167  0.18743673  0.82465794  1
  O  O604  1  0.07291737  0.51960011  0.07651415  1
  O  O605  1  0.07246807  0.52019030  0.32333001  1
  O  O606  1  0.07226334  0.51760927  0.57355057  1
  O  O607  1  0.07345154  0.51830080  0.82373911  1
  O  O608  1  0.07377907  0.85303026  0.07567227  1
  O  O609  1  0.07404429  0.85429610  0.32444931  1
  O  O610  1  0.07294241  0.85151501  0.57425025  1
  O  O611  1  0.07313095  0.85370495  0.82438498  1
  O  O612  1  0.57364275  0.18483956  0.07345465  1
  O  O613  1  0.57322154  0.18532751  0.32455194  1
  O  O614  1  0.57329973  0.18767840  0.57474612  1
  O  O615  1  0.57294065  0.18596694  0.82276988  1
  O  O616  1  0.57321842  0.52081984  0.07370206  1
  O  O617  1  0.57363073  0.51941005  0.32588092  1
  O  O618  1  0.57233512  0.51981046  0.57410362  1
  O  O619  1  0.57341154  0.52122064  0.82452979  1
  O  O620  1  0.57316750  0.85476173  0.07511893  1
  O  O621  1  0.57316044  0.85424823  0.32461932  1
  O  O622  1  0.57354041  0.85503284  0.57443338  1
  O  O623  1  0.57321562  0.85209247  0.82423888  1
  O  O624  1  0.32327476  0.18433804  0.05087854  1
  O  O625  1  0.32407786  0.18698872  0.30052506  1
  O  O626  1  0.32389429  0.18769436  0.55060977  1
  O  O627  1  0.32390318  0.18644806  0.79874782  1
  O  O628  1  0.32238081  0.51951269  0.05119283  1
  O  O629  1  0.32327296  0.52164649  0.30093485  1
  O  O630  1  0.32159640  0.52005819  0.55232266  1
  O  O631  1  0.32285617  0.52070125  0.80004632  1
  O  O632  1  0.32338945  0.85085227  0.05007325  1
  O  O633  1  0.32464151  0.85296984  0.30004805  1
  O  O634  1  0.32362917  0.85360652  0.55098049  1
  O  O635  1  0.32306481  0.85328608  0.79966817  1
  O  O636  1  0.82296430  0.18514036  0.05093251  1
  O  O637  1  0.82252062  0.18683620  0.30227090  1
  O  O638  1  0.82193098  0.18623305  0.55147873  1
  O  O639  1  0.82330269  0.18756967  0.79954041  1
  O  O640  1  0.82268821  0.52048431  0.05079884  1
  O  O641  1  0.82272083  0.52182234  0.29932126  1
  O  O642  1  0.82357168  0.51981676  0.54865551  1
  O  O643  1  0.82240032  0.51838829  0.80103610  1
  O  O644  1  0.82320641  0.85206423  0.05083009  1
  O  O645  1  0.82352291  0.85497338  0.30082357  1
  O  O646  1  0.82138958  0.85324411  0.55080664  1
  O  O647  1  0.82266838  0.85498429  0.79930349  1
  O  O648  1  0.17767674  0.14815630  0.19860963  1
  O  O649  1  0.17619486  0.14667477  0.45119460  1
  O  O650  1  0.17665149  0.14480176  0.70058420  1
  O  O651  1  0.17701152  0.14489531  0.94938478  1
  O  O652  1  0.17715202  0.48216215  0.19945396  1
  O  O653  1  0.17633296  0.48059809  0.45116012  1
  O  O654  1  0.17862188  0.48059514  0.69834481  1
  O  O655  1  0.17577385  0.47990772  0.95039545  1
  O  O656  1  0.17806099  0.81372358  0.19868987  1
  O  O657  1  0.17724679  0.81224125  0.45002249  1
  O  O658  1  0.17674251  0.81221507  0.70025670  1
  O  O659  1  0.17647704  0.81144705  0.94989118  1
  O  O660  1  0.67787312  0.14876036  0.19933225  1
  O  O661  1  0.67774981  0.14716201  0.44917117  1
  O  O662  1  0.67869641  0.14781312  0.69758962  1
  O  O663  1  0.67671263  0.14532072  0.94886097  1
  O  O664  1  0.67551874  0.47999004  0.20059600  1
  O  O665  1  0.67671791  0.47854582  0.45041412  1
  O  O666  1  0.67680143  0.47874750  0.69953416  1
  O  O667  1  0.67751558  0.47992970  0.94786903  1
  O  O668  1  0.67791069  0.81487437  0.19897668  1
  O  O669  1  0.67626761  0.81314694  0.44926178  1
  O  O670  1  0.67659223  0.81523002  0.69844786  1
  O  O671  1  0.67582293  0.81363679  0.95040029  1
