# generated using pymatgen
data_Na2MnFe(PO4)2
_symmetry_space_group_name_H-M   'P 1'
_cell_length_a   22.34297841
_cell_length_b   20.09309925
_cell_length_c   19.45032115
_cell_angle_alpha   89.96734132
_cell_angle_beta   90.03052985
_cell_angle_gamma   90.08401454
_symmetry_Int_Tables_number   1
_chemical_formula_structural   Na2MnFe(PO4)2
_chemical_formula_sum   'Na96 Mn48 Fe48 P96 O384'
_cell_volume   8732.00896388
_cell_formula_units_Z   48
loop_
 _symmetry_equiv_pos_site_id
 _symmetry_equiv_pos_as_xyz
  1  'x, y, z'
loop_
 _atom_site_type_symbol
 _atom_site_label
 _atom_site_symmetry_multiplicity
 _atom_site_fract_x
 _atom_site_fract_y
 _atom_site_fract_z
 _atom_site_occupancy
  Na  Na0  1  0.13985262  0.24939116  0.24505018  1
  Na  Na1  1  0.13984303  0.24990034  0.49325967  1
  Na  Na2  1  0.14081557  0.25125857  0.74302482  1
  Na  Na3  1  0.14040688  0.24997933  0.99331968  1
  Na  Na4  1  0.14002239  0.58456052  0.24366831  1
  Na  Na5  1  0.13998330  0.58312359  0.49385972  1
  Na  Na6  1  0.14103387  0.58242492  0.74256255  1
  Na  Na7  1  0.14051609  0.58279521  0.99270582  1
  Na  Na8  1  0.13997100  0.91652986  0.24295585  1
  Na  Na9  1  0.14054429  0.91706970  0.49358429  1
  Na  Na10  1  0.14044190  0.91690658  0.74395047  1
  Na  Na11  1  0.14012103  0.91597734  0.99382029  1
  Na  Na12  1  0.63967011  0.24931777  0.24453091  1
  Na  Na13  1  0.63995002  0.25034568  0.49422978  1
  Na  Na14  1  0.64037110  0.25044066  0.74352316  1
  Na  Na15  1  0.64024827  0.25049620  0.99423510  1
  Na  Na16  1  0.63970645  0.58430657  0.24315074  1
  Na  Na17  1  0.63971926  0.58453632  0.49349442  1
  Na  Na18  1  0.64064054  0.58229801  0.74249299  1
  Na  Na19  1  0.64002395  0.58373981  0.99268744  1
  Na  Na20  1  0.64012334  0.91668156  0.24389628  1
  Na  Na21  1  0.64019851  0.91732018  0.49369452  1
  Na  Na22  1  0.64056715  0.91524432  0.74407105  1
  Na  Na23  1  0.64045262  0.91616812  0.99529236  1
  Na  Na24  1  0.35937575  0.08265628  0.00628254  1
  Na  Na25  1  0.35934017  0.08387030  0.25842957  1
  Na  Na26  1  0.35966009  0.08425976  0.50741080  1
  Na  Na27  1  0.35929539  0.08520441  0.75579434  1
  Na  Na28  1  0.36071293  0.41672429  0.00575226  1
  Na  Na29  1  0.35960730  0.41672016  0.25648817  1
  Na  Na30  1  0.35889315  0.41689523  0.50722531  1
  Na  Na31  1  0.35985916  0.41725600  0.75579250  1
  Na  Na32  1  0.36021323  0.74929315  0.00664621  1
  Na  Na33  1  0.36018323  0.75006510  0.25670995  1
  Na  Na34  1  0.35922203  0.74941183  0.50621691  1
  Na  Na35  1  0.35954574  0.74998968  0.75547961  1
  Na  Na36  1  0.85980504  0.08180185  0.00747778  1
  Na  Na37  1  0.86006826  0.08291625  0.25688837  1
  Na  Na38  1  0.85963472  0.08419876  0.50589109  1
  Na  Na39  1  0.85943141  0.08206050  0.75619291  1
  Na  Na40  1  0.85996532  0.41589902  0.00566922  1
  Na  Na41  1  0.85938548  0.41591701  0.25636503  1
  Na  Na42  1  0.85963669  0.41768759  0.50751429  1
  Na  Na43  1  0.86023092  0.41665843  0.75518702  1
  Na  Na44  1  0.86083693  0.75004932  0.00631921  1
  Na  Na45  1  0.86072644  0.75040730  0.25588156  1
  Na  Na46  1  0.85923977  0.75000003  0.50604781  1
  Na  Na47  1  0.85955739  0.74865072  0.75624212  1
  Na  Na48  1  0.10936400  0.08297969  0.11920546  1
  Na  Na49  1  0.10926625  0.08348105  0.36828761  1
  Na  Na50  1  0.10942454  0.08442749  0.61838762  1
  Na  Na51  1  0.10962867  0.08121097  0.86890469  1
  Na  Na52  1  0.10920321  0.41714064  0.11861096  1
  Na  Na53  1  0.10948955  0.41606472  0.36956060  1
  Na  Na54  1  0.10992209  0.41623151  0.61738994  1
  Na  Na55  1  0.11041601  0.41576455  0.86787667  1
  Na  Na56  1  0.10967829  0.75125676  0.11860111  1
  Na  Na57  1  0.10956980  0.75152992  0.36808659  1
  Na  Na58  1  0.11025247  0.75011822  0.61826201  1
  Na  Na59  1  0.10979807  0.74888327  0.86868644  1
  Na  Na60  1  0.60930979  0.08539150  0.12000430  1
  Na  Na61  1  0.60909227  0.08328830  0.36933832  1
  Na  Na62  1  0.60884573  0.08419758  0.61876661  1
  Na  Na63  1  0.60940209  0.08344269  0.86982709  1
  Na  Na64  1  0.60904560  0.41821713  0.11851577  1
  Na  Na65  1  0.60897234  0.41722576  0.36959689  1
  Na  Na66  1  0.60999226  0.41748341  0.61762558  1
  Na  Na67  1  0.61018453  0.41621966  0.86824852  1
  Na  Na68  1  0.60951449  0.74999121  0.11912864  1
  Na  Na69  1  0.60926387  0.74936241  0.36841373  1
  Na  Na70  1  0.60999715  0.75005290  0.61741124  1
  Na  Na71  1  0.61000360  0.74908700  0.86850051  1
  Na  Na72  1  0.39043378  0.25208940  0.13151757  1
  Na  Na73  1  0.38944429  0.24990753  0.38320629  1
  Na  Na74  1  0.38964274  0.25084442  0.63164375  1
  Na  Na75  1  0.39045132  0.25116460  0.88073069  1
  Na  Na76  1  0.39117238  0.58412245  0.13037009  1
  Na  Na77  1  0.39063944  0.58340966  0.38077453  1
  Na  Na78  1  0.38973192  0.58355422  0.63117507  1
  Na  Na79  1  0.39089676  0.58185664  0.88067084  1
  Na  Na80  1  0.39045774  0.91616793  0.13259937  1
  Na  Na81  1  0.39037818  0.91551764  0.38203125  1
  Na  Na82  1  0.39031824  0.91794164  0.63115790  1
  Na  Na83  1  0.39009415  0.91645586  0.88159918  1
  Na  Na84  1  0.89050461  0.24918610  0.13136199  1
  Na  Na85  1  0.89023437  0.25013641  0.38191613  1
  Na  Na86  1  0.89033342  0.25108907  0.63058729  1
  Na  Na87  1  0.89088420  0.24869278  0.88139378  1
  Na  Na88  1  0.89104448  0.58438716  0.13023497  1
  Na  Na89  1  0.89069648  0.58368910  0.38132869  1
  Na  Na90  1  0.89005348  0.58350803  0.63187339  1
  Na  Na91  1  0.89091996  0.58206475  0.88061232  1
  Na  Na92  1  0.89111539  0.91596501  0.13170271  1
  Na  Na93  1  0.89018389  0.91677115  0.38032564  1
  Na  Na94  1  0.89021739  0.91580479  0.63118159  1
  Na  Na95  1  0.89065510  0.91413306  0.88180785  1
  Mn  Mn96  1  0.74957397  0.16703375  0.62573423  1
  Mn  Mn97  1  -0.00067031  0.66656081  0.50009299  1
  Mn  Mn98  1  0.74992629  -0.00176392  0.87624065  1
  Mn  Mn99  1  0.50021209  0.83257230  0.00086996  1
  Mn  Mn100  1  0.25013279  0.66599987  0.87477022  1
  Mn  Mn101  1  0.75108787  0.33383280  0.87470085  1
  Mn  Mn102  1  0.50024917  0.33372890  0.74956901  1
  Mn  Mn103  1  0.00062844  0.66596654  0.74998204  1
  Mn  Mn104  1  0.49997270  0.00105340  0.75056273  1
  Mn  Mn105  1  0.25040282  0.16635050  0.12504136  1
  Mn  Mn106  1  -0.00077342  0.33310757  0.25033004  1
  Mn  Mn107  1  0.24977707  0.49954638  0.37517357  1
  Mn  Mn108  1  -0.00057773  0.50096561  0.24932004  1
  Mn  Mn109  1  0.74998042  0.16622953  0.87489314  1
  Mn  Mn110  1  0.49973025  0.00075400  0.00107219  1
  Mn  Mn111  1  0.24983021  0.16722986  0.87502604  1
  Mn  Mn112  1  -0.00060510  -0.00169569  0.74945072  1
  Mn  Mn113  1  0.24954502  0.33322008  0.12503817  1
  Mn  Mn114  1  0.50016449  0.66562589  0.74928266  1
  Mn  Mn115  1  0.00021361  0.16592037  0.00007814  1
  Mn  Mn116  1  0.75040085  0.66781174  0.37457125  1
  Mn  Mn117  1  -0.00005359  0.83368302  0.49910761  1
  Mn  Mn118  1  0.00094310  0.33341839  0.74951917  1
  Mn  Mn119  1  0.49942140  0.00060402  0.25082278  1
  Mn  Mn120  1  0.49929335  0.33368628  0.49997856  1
  Mn  Mn121  1  0.24972178  0.66760574  0.37477064  1
  Mn  Mn122  1  0.75072875  0.66772038  0.12376529  1
  Mn  Mn123  1  0.24979616  0.49956273  0.12490144  1
  Mn  Mn124  1  0.74924177  0.33228235  0.12559217  1
  Mn  Mn125  1  0.49992134  0.83286328  0.50005894  1
  Mn  Mn126  1  0.49998097  0.83328057  0.74982728  1
  Mn  Mn127  1  0.49954862  0.33431367  0.25069142  1
  Mn  Mn128  1  0.00002587  0.16595494  0.75031622  1
  Mn  Mn129  1  0.25000794  -0.00123373  0.12630550  1
  Mn  Mn130  1  0.24962668  0.00077076  0.62449140  1
  Mn  Mn131  1  0.24998941  0.83393415  0.87469869  1
  Mn  Mn132  1  0.74979338  0.50051308  0.37544453  1
  Mn  Mn133  1  0.49909618  0.16841014  0.00021659  1
  Mn  Mn134  1  0.74907036  0.33292561  0.37540794  1
  Mn  Mn135  1  0.74944763  -0.00101060  0.62519539  1
  Mn  Mn136  1  0.25006506  -0.00010339  0.37561696  1
  Mn  Mn137  1  0.25067549  0.66713512  0.12440954  1
  Mn  Mn138  1  0.74995546  -0.00000228  0.37499350  1
  Mn  Mn139  1  0.00052697  0.49974966  0.00019742  1
  Mn  Mn140  1  0.75000397  -0.00045337  0.12560318  1
  Mn  Mn141  1  0.75017895  0.50020319  0.12482495  1
  Mn  Mn142  1  0.00026192  0.00062916  0.49978237  1
  Mn  Mn143  1  0.75029575  0.66648583  0.87452633  1
  Fe  Fe144  1  0.49952232  0.50090269  0.49909371  1
  Fe  Fe145  1  -0.00010551  0.00007101  0.24940205  1
  Fe  Fe146  1  0.24973922  0.66684510  0.62482970  1
  Fe  Fe147  1  0.00042151  0.83275664  0.00041167  1
  Fe  Fe148  1  0.75032251  0.83279468  0.62480840  1
  Fe  Fe149  1  0.49970036  0.50076549  0.24944820  1
  Fe  Fe150  1  0.25025147  0.83381750  0.62504030  1
  Fe  Fe151  1  0.49989161  0.16724488  0.75038716  1
  Fe  Fe152  1  0.00015866  0.50036968  0.49971730  1
  Fe  Fe153  1  0.49928751  0.66610326  0.49906932  1
  Fe  Fe154  1  0.75007645  0.16683155  0.37559483  1
  Fe  Fe155  1  0.49960898  0.16658070  0.50084771  1
  Fe  Fe156  1  0.75024850  0.16612416  0.12535833  1
  Fe  Fe157  1  0.00051954  0.49928206  0.75010006  1
  Fe  Fe158  1  0.50054941  0.49984844  0.74988588  1
  Fe  Fe159  1  -0.00064516  0.16673872  0.49914783  1
  Fe  Fe160  1  0.00037773  0.33293322  -0.00006576  1
  Fe  Fe161  1  0.50086559  0.33431288  0.00019554  1
  Fe  Fe162  1  -0.00028623  -0.00080643  0.00038608  1
  Fe  Fe163  1  0.25051140  0.00030027  0.87465131  1
  Fe  Fe164  1  0.25069748  0.33393307  0.87401841  1
  Fe  Fe165  1  0.24973462  0.49977889  0.62493721  1
  Fe  Fe166  1  0.75025000  0.33360341  0.62479263  1
  Fe  Fe167  1  0.24969679  0.33350654  0.62495583  1
  Fe  Fe168  1  0.75005386  0.49974308  0.87392036  1
  Fe  Fe169  1  0.24927359  0.16760123  0.62548616  1
  Fe  Fe170  1  0.00063171  0.66718711  0.25008409  1
  Fe  Fe171  1  0.75021363  0.83223424  0.87431454  1
  Fe  Fe172  1  0.00009008  0.83368317  0.24904240  1
  Fe  Fe173  1  0.49902405  0.16728020  0.25094122  1
  Fe  Fe174  1  0.50017389  0.66629457  0.00010484  1
  Fe  Fe175  1  0.24960649  0.16710420  0.37614709  1
  Fe  Fe176  1  0.74948132  0.66668400  0.62500223  1
  Fe  Fe177  1  -0.00001958  0.16665685  0.24993038  1
  Fe  Fe178  1  -0.00045355  0.33345792  0.49975786  1
  Fe  Fe179  1  0.50029049  0.66611572  0.24964005  1
  Fe  Fe180  1  0.00095548  0.66674017  0.00019836  1
  Fe  Fe181  1  0.00060550  0.83220840  0.75077743  1
  Fe  Fe182  1  0.25064183  0.49953571  0.87368654  1
  Fe  Fe183  1  0.75028584  0.83322602  0.12509437  1
  Fe  Fe184  1  0.74987663  0.50012279  0.62479414  1
  Fe  Fe185  1  0.50074312  0.50026231  -0.00016684  1
  Fe  Fe186  1  0.24964848  0.83332848  0.37532378  1
  Fe  Fe187  1  0.50016013  0.83271499  0.25072139  1
  Fe  Fe188  1  0.24943262  0.33289469  0.37617877  1
  Fe  Fe189  1  0.49984491  0.00013965  0.49998495  1
  Fe  Fe190  1  0.74953959  0.83337206  0.37513148  1
  Fe  Fe191  1  0.25054580  0.83322380  0.12468984  1
  P  P192  1  0.04233208  0.25067277  0.10270155  1
  P  P193  1  0.04138716  0.24869128  0.35324952  1
  P  P194  1  0.04094349  0.24985815  0.60094701  1
  P  P195  1  0.04327628  0.24958173  0.85339952  1
  P  P196  1  0.04293374  0.58522113  0.10270476  1
  P  P197  1  0.04224161  0.58436286  0.35269164  1
  P  P198  1  0.04206551  0.58196625  0.60265905  1
  P  P199  1  0.04305147  0.58144057  0.85241155  1
  P  P200  1  0.04140827  0.91663708  0.10222154  1
  P  P201  1  0.04121241  0.91718671  0.35073326  1
  P  P202  1  0.04303084  0.91633641  0.60305345  1
  P  P203  1  0.04207858  0.91445253  0.85341997  1
  P  P204  1  0.54208012  0.25234144  0.10323850  1
  P  P205  1  0.54120063  0.24893127  0.35346809  1
  P  P206  1  0.54167259  0.24935278  0.60278730  1
  P  P207  1  0.54257407  0.24958571  0.85267455  1
  P  P208  1  0.54188527  0.58368977  0.10194805  1
  P  P209  1  0.54141076  0.58320621  0.35182861  1
  P  P210  1  0.54116822  0.58343976  0.60111593  1
  P  P211  1  0.54281051  0.58153637  0.85260537  1
  P  P212  1  0.54234359  0.91674546  0.10457895  1
  P  P213  1  0.54168699  0.91557146  0.35301128  1
  P  P214  1  0.54209136  0.91836591  0.60233533  1
  P  P215  1  0.54275303  0.91654548  0.85353713  1
  P  P216  1  0.45688832  0.08545874  0.14846404  1
  P  P217  1  0.45797921  0.08354293  0.39878091  1
  P  P218  1  0.45758309  0.08557104  0.64723133  1
  P  P219  1  0.45683481  0.08418068  0.89702954  1
  P  P220  1  0.45792011  0.41879307  0.14690286  1
  P  P221  1  0.45714601  0.41847533  0.39730627  1
  P  P222  1  0.45821772  0.41881704  0.64685622  1
  P  P223  1  0.45933669  0.41684452  0.89803360  1
  P  P224  1  0.45883139  0.74937215  0.14849564  1
  P  P225  1  0.45776274  0.74829321  0.39663972  1
  P  P226  1  0.45736118  0.74969132  0.64610590  1
  P  P227  1  0.45798002  0.74798417  0.89768475  1
  P  P228  1  0.95865384  0.08303059  0.14803883  1
  P  P229  1  0.95770015  0.08440124  0.39634490  1
  P  P230  1  0.95689733  0.08349746  0.64634033  1
  P  P231  1  0.95749011  0.08073730  0.89791077  1
  P  P232  1  0.95697964  0.41651298  0.14644658  1
  P  P233  1  0.95813805  0.41709433  0.39852446  1
  P  P234  1  0.95861366  0.41808115  0.64644835  1
  P  P235  1  0.95842686  0.41520279  0.89722172  1
  P  P236  1  0.95945579  0.74981371  0.14760693  1
  P  P237  1  0.95727821  0.75013391  0.39568653  1
  P  P238  1  0.95805673  0.75074632  0.64793690  1
  P  P239  1  0.95933580  0.74919409  0.89837450  1
  P  P240  1  0.20750830  0.08357404  0.22917246  1
  P  P241  1  0.20756727  0.08483532  0.47813810  1
  P  P242  1  0.20744412  0.08488537  0.72762955  1
  P  P243  1  0.20782240  0.08165933  0.97741050  1
  P  P244  1  0.20671042  0.41597815  0.22884456  1
  P  P245  1  0.20782687  0.41518230  0.47859587  1
  P  P246  1  0.20884579  0.41652480  0.72679915  1
  P  P247  1  0.20893788  0.41653324  0.97570175  1
  P  P248  1  0.20798602  0.75165782  0.22736469  1
  P  P249  1  0.20758274  0.75133678  0.47827649  1
  P  P250  1  0.20875685  0.75032116  0.72633168  1
  P  P251  1  0.20769432  0.75022827  0.97802684  1
  P  P252  1  0.70802212  0.08454812  0.22829782  1
  P  P253  1  0.70762800  0.08445020  0.47761301  1
  P  P254  1  0.70669791  0.08245779  0.72848813  1
  P  P255  1  0.70731208  0.08301849  0.97906277  1
  P  P256  1  0.70658004  0.41657562  0.22821710  1
  P  P257  1  0.70717754  0.41701502  0.47925343  1
  P  P258  1  0.70889380  0.41668975  0.72637229  1
  P  P259  1  0.70792434  0.41781674  0.97699695  1
  P  P260  1  0.70795926  0.75146595  0.22744052  1
  P  P261  1  0.70751187  0.75135966  0.47809954  1
  P  P262  1  0.70830326  0.74965878  0.72652651  1
  P  P263  1  0.70820888  0.75143485  0.97735302  1
  P  P264  1  0.29290222  0.25035102  0.02140546  1
  P  P265  1  0.29131973  0.25031086  0.27441366  1
  P  P266  1  0.29083735  0.25022558  0.52333363  1
  P  P267  1  0.29206823  0.25180606  0.77163523  1
  P  P268  1  0.29282227  0.58246490  0.02099970  1
  P  P269  1  0.29258401  0.58367942  0.27200106  1
  P  P270  1  0.29062034  0.58328010  0.52348412  1
  P  P271  1  0.29208388  0.58220193  0.77117834  1
  P  P272  1  0.29283754  0.91572024  0.02250227  1
  P  P273  1  0.29222380  0.91495691  0.27289506  1
  P  P274  1  0.29220575  0.91558515  0.52231788  1
  P  P275  1  0.29239687  0.91822177  0.77192353  1
  P  P276  1  0.79246715  0.24852606  0.02282669  1
  P  P277  1  0.79198146  0.24832009  0.27260748  1
  P  P278  1  0.79187873  0.25100344  0.52239850  1
  P  P279  1  0.79320948  0.25035813  0.77138842  1
  P  P280  1  0.79309841  0.58321771  0.02070144  1
  P  P281  1  0.79305385  0.58381887  0.27174928  1
  P  P282  1  0.79114674  0.58409085  0.52359015  1
  P  P283  1  0.79204009  0.58190770  0.77133588  1
  P  P284  1  0.79278352  0.91485067  0.02275321  1
  P  P285  1  0.79188429  0.91512669  0.27243091  1
  P  P286  1  0.79221121  0.91523752  0.52210174  1
  P  P287  1  0.79234772  0.91432736  0.77232869  1
  O  O288  1  0.03674141  0.25018523  0.18261693  1
  O  O289  1  0.03575117  0.24880028  0.43309339  1
  O  O290  1  0.03669606  0.25022208  0.68097595  1
  O  O291  1  0.03816641  0.25003637  0.93334221  1
  O  O292  1  0.03746283  0.58533421  0.18262423  1
  O  O293  1  0.03669485  0.58359486  0.43263546  1
  O  O294  1  0.03723777  0.58169303  0.68262566  1
  O  O295  1  0.03815578  0.58210891  0.93230000  1
  O  O296  1  0.03609481  0.91688117  0.18208686  1
  O  O297  1  0.03687956  0.91713123  0.43071368  1
  O  O298  1  0.03819535  0.91572518  0.68300346  1
  O  O299  1  0.03659029  0.91473750  0.93328721  1
  O  O300  1  0.53672504  0.25195052  0.18312973  1
  O  O301  1  0.53583009  0.24861547  0.43338640  1
  O  O302  1  0.53666567  0.24951121  0.68272877  1
  O  O303  1  0.53728231  0.25072809  0.93258350  1
  O  O304  1  0.53654142  0.58392187  0.18181172  1
  O  O305  1  0.53575096  0.58327566  0.43168685  1
  O  O306  1  0.53667358  0.58289005  0.68107554  1
  O  O307  1  0.53783390  0.58165223  0.93245082  1
  O  O308  1  0.53678607  0.91616908  0.18450354  1
  O  O309  1  0.53664846  0.91586809  0.43292880  1
  O  O310  1  0.53700977  0.91823937  0.68228613  1
  O  O311  1  0.53765220  0.91630794  0.93353306  1
  O  O312  1  0.46199401  0.08521069  0.06852459  1
  O  O313  1  0.46288623  0.08392773  0.31879695  1
  O  O314  1  0.46300987  0.08534513  0.56734131  1
  O  O315  1  0.46214238  0.08454757  0.81710623  1
  O  O316  1  0.46374297  0.41817940  0.06708054  1
  O  O317  1  0.46235529  0.41847221  0.31738170  1
  O  O318  1  0.46314862  0.41898087  0.56692415  1
  O  O319  1  0.46442937  0.41672095  0.81806584  1
  O  O320  1  0.46381144  0.74937770  0.06854247  1
  O  O321  1  0.46345016  0.74851804  0.31680099  1
  O  O322  1  0.46233574  0.74934755  0.56615480  1
  O  O323  1  0.46306103  0.74827782  0.81771058  1
  O  O324  1  0.96365700  0.08233581  0.06808407  1
  O  O325  1  0.96307765  0.08424527  0.31647283  1
  O  O326  1  0.96214091  0.08421638  0.56636122  1
  O  O327  1  0.96246358  0.08098612  0.81794336  1
  O  O328  1  0.96253321  0.41593175  0.06655369  1
  O  O329  1  0.96241660  0.41688537  0.31849847  1
  O  O330  1  0.96375358  0.41812442  0.56655660  1
  O  O331  1  0.96387881  0.41582921  0.81727947  1
  O  O332  1  0.96458937  0.75006894  0.06773063  1
  O  O333  1  0.96264187  0.74977607  0.31581082  1
  O  O334  1  0.96267745  0.75054271  0.56796528  1
  O  O335  1  0.96453961  0.74950674  0.81844213  1
  O  O336  1  0.21306417  0.08163879  0.05739878  1
  O  O337  1  0.21268484  0.08402223  0.30914353  1
  O  O338  1  0.21255310  0.08506442  0.55809791  1
  O  O339  1  0.21296366  0.08409188  0.80751000  1
  O  O340  1  0.21338997  0.41648779  0.05575482  1
  O  O341  1  0.21165724  0.41559827  0.30881917  1
  O  O342  1  0.21345722  0.41522601  0.55845120  1
  O  O343  1  0.21415269  0.41673041  0.80669641  1
  O  O344  1  0.21304362  0.75063125  0.05794180  1
  O  O345  1  0.21277661  0.75181940  0.30738234  1
  O  O346  1  0.21313392  0.75112838  0.55813136  1
  O  O347  1  0.21357795  0.74973890  0.80629506  1
  O  O348  1  0.71275573  0.08349706  0.05904844  1
  O  O349  1  0.71333610  0.08469398  0.30825870  1
  O  O350  1  0.71252308  0.08399250  0.55756371  1
  O  O351  1  0.71191177  0.08226771  0.80843265  1
  O  O352  1  0.71278959  0.41731631  0.05694347  1
  O  O353  1  0.71151886  0.41661291  0.30822036  1
  O  O354  1  0.71256619  0.41677531  0.55915915  1
  O  O355  1  0.71383145  0.41734778  0.80633758  1
  O  O356  1  0.71349815  0.75149267  0.05727738  1
  O  O357  1  0.71282468  0.75135929  0.30743030  1
  O  O358  1  0.71295822  0.75075577  0.55799656  1
  O  O359  1  0.71346114  0.74955502  0.80649789  1
  O  O360  1  0.28675694  0.25002348  0.19438748  1
  O  O361  1  0.28564632  0.24997764  0.44341623  1
  O  O362  1  0.28639432  0.25162257  0.69178307  1
  O  O363  1  0.28787589  0.25075301  0.94145168  1
  O  O364  1  0.28773594  0.58372062  0.19204223  1
  O  O365  1  0.28605456  0.58344640  0.44352118  1
  O  O366  1  0.28638037  0.58267000  0.69133224  1
  O  O367  1  0.28769377  0.58190236  0.94100941  1
  O  O368  1  0.28716177  0.91488491  0.19291100  1
  O  O369  1  0.28678692  0.91552427  0.44238288  1
  O  O370  1  0.28692776  0.91780537  0.69201539  1
  O  O371  1  0.28780075  0.91668751  0.94254869  1
  O  O372  1  0.78685324  0.24811856  0.19262632  1
  O  O373  1  0.78625943  0.25013288  0.44246828  1
  O  O374  1  0.78787737  0.25101194  0.69144812  1
  O  O375  1  0.78776015  0.24898890  0.94280656  1
  O  O376  1  0.78816444  0.58389284  0.19176930  1
  O  O377  1  0.78668978  0.58415982  0.44357913  1
  O  O378  1  0.78635702  0.58269977  0.69148014  1
  O  O379  1  0.78778861  0.58276385  0.94073717  1
  O  O380  1  0.78657924  0.91526971  0.19252177  1
  O  O381  1  0.78687438  0.91529059  0.44215589  1
  O  O382  1  0.78694394  0.91445577  0.69237678  1
  O  O383  1  0.78779670  0.91479580  0.94280523  1
  O  O384  1  0.22844688  0.24977466  0.05650586  1
  O  O385  1  0.22700815  0.25057026  0.30992590  1
  O  O386  1  0.22676046  0.25039067  0.55962720  1
  O  O387  1  0.22804506  0.25212323  0.80799916  1
  O  O388  1  0.22850586  0.58317030  0.05635247  1
  O  O389  1  0.22814892  0.58350940  0.30695370  1
  O  O390  1  0.22650457  0.58307311  0.55912122  1
  O  O391  1  0.22803969  0.58168592  0.80749988  1
  O  O392  1  0.22843519  0.91476778  0.05800158  1
  O  O393  1  0.22787920  0.91521903  0.30842810  1
  O  O394  1  0.22798139  0.91539836  0.55809709  1
  O  O395  1  0.22817259  0.91852364  0.80780102  1
  O  O396  1  0.72799902  0.24789446  0.05795473  1
  O  O397  1  0.72763688  0.24828678  0.30814037  1
  O  O398  1  0.72774560  0.25187135  0.55840764  1
  O  O399  1  0.72884494  0.25035100  0.80659464  1
  O  O400  1  0.72874473  0.58372850  0.05598103  1
  O  O401  1  0.72853951  0.58400058  0.30656952  1
  O  O402  1  0.72686683  0.58437203  0.55900857  1
  O  O403  1  0.72798796  0.58180039  0.80766862  1
  O  O404  1  0.72841866  0.91487441  0.05824227  1
  O  O405  1  0.72769439  0.91520318  0.30836318  1
  O  O406  1  0.72793886  0.91470518  0.55783109  1
  O  O407  1  0.72810298  0.91412502  0.80816611  1
  O  O408  1  0.27185618  0.08302634  0.19390394  1
  O  O409  1  0.27186980  0.08463887  0.44266377  1
  O  O410  1  0.27159022  0.08534487  0.69163151  1
  O  O411  1  0.27207974  0.08225540  0.94174164  1
  O  O412  1  0.27120538  0.41633603  0.19387142  1
  O  O413  1  0.27184862  0.41492949  0.44220116  1
  O  O414  1  0.27282305  0.41613221  0.69045552  1
  O  O415  1  0.27327287  0.41674071  0.94019670  1
  O  O416  1  0.27239703  0.75195485  0.19194700  1
  O  O417  1  0.27175189  0.75186598  0.44212373  1
  O  O418  1  0.27289405  0.75082208  0.69054185  1
  O  O419  1  0.27196841  0.75008001  0.94263758  1
  O  O420  1  0.77223933  0.08432535  0.19242584  1
  O  O421  1  0.77198249  0.08437276  0.44228699  1
  O  O422  1  0.77110049  0.08264025  0.69340408  1
  O  O423  1  0.77160755  0.08262914  0.94362151  1
  O  O424  1  0.77108352  0.41622043  0.19343065  1
  O  O425  1  0.77139620  0.41669706  0.44357149  1
  O  O426  1  0.77302035  0.41605742  0.69043333  1
  O  O427  1  0.77234758  0.41855086  0.94165897  1
  O  O428  1  0.77239195  0.75161320  0.19208443  1
  O  O429  1  0.77173075  0.75210786  0.44207070  1
  O  O430  1  0.77247693  0.74945039  0.69053385  1
  O  O431  1  0.77249342  0.75117468  0.94165820  1
  O  O432  1  0.02275091  0.08341953  0.18418795  1
  O  O433  1  0.02188277  0.08493000  0.43249776  1
  O  O434  1  0.02125537  0.08264725  0.68170742  1
  O  O435  1  0.02186650  0.08093421  0.93333507  1
  O  O436  1  0.02120945  0.41681998  0.18205201  1
  O  O437  1  0.02247335  0.41732551  0.43386447  1
  O  O438  1  0.02282147  0.41843932  0.68253961  1
  O  O439  1  0.02260813  0.41481325  0.93328243  1
  O  O440  1  0.02337714  0.74955465  0.18420381  1
  O  O441  1  0.02152688  0.74981800  0.43137993  1
  O  O442  1  0.02252247  0.75089701  0.68314522  1
  O  O443  1  0.02341967  0.74940488  0.93460343  1
  O  O444  1  0.52126163  0.08559500  0.18391973  1
  O  O445  1  0.52217816  0.08337631  0.43471985  1
  O  O446  1  0.52172335  0.08585738  0.68349035  1
  O  O447  1  0.52112241  0.08433282  0.93256451  1
  O  O448  1  0.52190809  0.41892583  0.18351052  1
  O  O449  1  0.52139805  0.41827584  0.43302843  1
  O  O450  1  0.52250783  0.41844762  0.68254718  1
  O  O451  1  0.52343368  0.41689075  0.93424301  1
  O  O452  1  0.52292065  0.74901592  0.18465534  1
  O  O453  1  0.52180661  0.74792904  0.43308123  1
  O  O454  1  0.52177592  0.74976249  0.68131968  1
  O  O455  1  0.52232195  0.74801232  0.93319390  1
  O  O456  1  0.47785039  0.25315815  0.06734988  1
  O  O457  1  0.47699052  0.24937086  0.31754123  1
  O  O458  1  0.47737259  0.24929743  0.56715893  1
  O  O459  1  0.47831615  0.24923388  0.81672104  1
  O  O460  1  0.47793849  0.58332732  0.06522750  1
  O  O461  1  0.47746402  0.58340695  0.31503955  1
  O  O462  1  0.47683499  0.58400744  0.56542965  1
  O  O463  1  0.47850265  0.58132071  0.81673104  1
  O  O464  1  0.47813309  0.91661684  0.06885316  1
  O  O465  1  0.47748066  0.91570167  0.31730290  1
  O  O466  1  0.47780558  0.91816074  0.56672258  1
  O  O467  1  0.47831652  0.91666334  0.81841529  1
  O  O468  1  0.97817659  0.25084121  0.06656582  1
  O  O469  1  0.97735939  0.24809380  0.31676927  1
  O  O470  1  0.97666123  0.24942522  0.56553779  1
  O  O471  1  0.97888482  0.24969710  0.81815177  1
  O  O472  1  0.97874960  0.58493880  0.06672224  1
  O  O473  1  0.97804196  0.58527742  0.31670268  1
  O  O474  1  0.97768104  0.58182698  0.56717585  1
  O  O475  1  0.97870096  0.58131098  0.81678126  1
  O  O476  1  0.97741804  0.91629404  0.06568754  1
  O  O477  1  0.97697612  0.91723362  0.31522449  1
  O  O478  1  0.97855690  0.91693873  0.56801773  1
  O  O479  1  0.97793692  0.91372870  0.81710813  1
  O  O480  1  0.07306913  0.31439032  0.07435294  1
  O  O481  1  0.07229340  0.31264067  0.32558622  1
  O  O482  1  0.07108633  0.31395719  0.57239245  1
  O  O483  1  0.07472446  0.31259928  0.82450534  1
  O  O484  1  0.07386156  0.64851494  0.07385927  1
  O  O485  1  0.07353908  0.64786533  0.32471794  1
  O  O486  1  0.07278481  0.64603267  0.57505861  1
  O  O487  1  0.07428792  0.64490181  0.82406672  1
  O  O488  1  0.07220850  0.98037820  0.07368696  1
  O  O489  1  0.07223014  0.98083543  0.32266184  1
  O  O490  1  0.07416121  0.97994577  0.57490859  1
  O  O491  1  0.07289114  0.97819877  0.82514386  1
  O  O492  1  0.57326146  0.31572244  0.07467502  1
  O  O493  1  0.57257311  0.31270838  0.32620018  1
  O  O494  1  0.57257076  0.31317114  0.57482289  1
  O  O495  1  0.57389206  0.31286722  0.82407054  1
  O  O496  1  0.57254137  0.64753341  0.07340005  1
  O  O497  1  0.57275082  0.64669759  0.32360665  1
  O  O498  1  0.57207107  0.64717546  0.57295001  1
  O  O499  1  0.57384772  0.64518311  0.82426978  1
  O  O500  1  0.57315374  0.98074355  0.07701757  1
  O  O501  1  0.57329642  0.97896267  0.32519060  1
  O  O502  1  0.57259250  0.98208253  0.57376479  1
  O  O503  1  0.57389664  0.98006536  0.82561725  1
  O  O504  1  0.42580549  0.02178673  0.17632361  1
  O  O505  1  0.42750405  0.01937052  0.42667541  1
  O  O506  1  0.42644449  0.02181626  0.67511154  1
  O  O507  1  0.42610062  0.02036635  0.92520384  1
  O  O508  1  0.42642603  0.35546629  0.17536217  1
  O  O509  1  0.42604929  0.35473225  0.42518902  1
  O  O510  1  0.42708182  0.35502510  0.67451720  1
  O  O511  1  0.42866026  0.35298521  0.92629235  1
  O  O512  1  0.42727866  0.68600969  0.17639233  1
  O  O513  1  0.42652341  0.68491401  0.42519885  1
  O  O514  1  0.42613444  0.68645517  0.67467607  1
  O  O515  1  0.42735875  0.68426428  0.92605426  1
  O  O516  1  0.92768422  0.01945605  0.17659052  1
  O  O517  1  0.92684099  0.02055651  0.42442730  1
  O  O518  1  0.92547174  0.01992956  0.67405248  1
  O  O519  1  0.92687223  0.01709452  0.92638819  1
  O  O520  1  0.92559870  0.35339168  0.17516508  1
  O  O521  1  0.92780722  0.35310021  0.42703949  1
  O  O522  1  0.92772435  0.35420993  0.67437328  1
  O  O523  1  0.92751972  0.35151850  0.92535022  1
  O  O524  1  0.92807238  0.68643200  0.17587719  1
  O  O525  1  0.92567910  0.68712584  0.42467229  1
  O  O526  1  0.92728141  0.68688422  0.67586590  1
  O  O527  1  0.92882783  0.68501353  0.92610620  1
  O  O528  1  0.17630159  0.01995847  0.20133082  1
  O  O529  1  0.17646401  0.02100179  0.45055315  1
  O  O530  1  0.17610419  0.02154591  0.69933330  1
  O  O531  1  0.17762146  0.01784810  0.94871148  1
  O  O532  1  0.17570749  0.35266120  0.20001750  1
  O  O533  1  0.17668115  0.35185026  0.44994036  1
  O  O534  1  0.17719033  0.35326099  0.69858618  1
  O  O535  1  0.17837864  0.35266847  0.94750507  1
  O  O536  1  0.17740993  0.68759566  0.19964263  1
  O  O537  1  0.17667010  0.68755152  0.45016078  1
  O  O538  1  0.17834089  0.68635878  0.69789242  1
  O  O539  1  0.17661172  0.68660529  0.95001253  1
  O  O540  1  0.67685653  0.02066628  0.20093209  1
  O  O541  1  0.67647102  0.02089292  0.44957029  1
  O  O542  1  0.67572267  0.01895067  0.70021635  1
  O  O543  1  0.67617138  0.01925187  0.95146286  1
  O  O544  1  0.67543954  0.35302614  0.20022247  1
  O  O545  1  0.67552324  0.35387825  0.45078386  1
  O  O546  1  0.67764192  0.35305503  0.69861948  1
  O  O547  1  0.67741616  0.35383074  0.94902106  1
  O  O548  1  0.67718929  0.68767090  0.19924062  1
  O  O549  1  0.67677444  0.68760016  0.44967070  1
  O  O550  1  0.67731982  0.68589769  0.69841929  1
  O  O551  1  0.67705050  0.68774348  0.94952057  1
  O  O552  1  0.32377939  0.31373321  0.05017522  1
  O  O553  1  0.32227156  0.31395417  0.30251931  1
  O  O554  1  0.32212554  0.31379845  0.55135630  1
  O  O555  1  0.32333147  0.31520852  0.80012598  1
  O  O556  1  0.32412175  0.64606468  0.04879796  1
  O  O557  1  0.32344042  0.64724691  0.30028495  1
  O  O558  1  0.32115209  0.64717923  0.55180701  1
  O  O559  1  0.32327913  0.64580146  0.79927016  1
  O  O560  1  0.32366206  0.97918126  0.05129779  1
  O  O561  1  0.32335423  0.97876197  0.30056680  1
  O  O562  1  0.32298975  0.97963954  0.54978700  1
  O  O563  1  0.32308792  0.98190777  0.80034899  1
  O  O564  1  0.82302757  0.31243964  0.05083555  1
  O  O565  1  0.82290362  0.31227687  0.30023607  1
  O  O566  1  0.82305032  0.31462035  0.55021279  1
  O  O567  1  0.82464090  0.31349732  0.80003747  1
  O  O568  1  0.82424032  0.64693958  0.04851705  1
  O  O569  1  0.82416752  0.64724885  0.29997827  1
  O  O570  1  0.82246888  0.64749156  0.55171707  1
  O  O571  1  0.82354696  0.64528721  0.79961321  1
  O  O572  1  0.82367073  0.97862013  0.05085229  1
  O  O573  1  0.82289690  0.97901891  0.30004800  1
  O  O574  1  0.82285007  0.97931457  0.54977382  1
  O  O575  1  0.82331674  0.97805762  0.80029546  1
  O  O576  1  0.42629956  0.14907077  0.17685833  1
  O  O577  1  0.42692046  0.14685403  0.42724367  1
  O  O578  1  0.42668972  0.14891127  0.67594084  1
  O  O579  1  0.42539268  0.14733828  0.92522932  1
  O  O580  1  0.42702227  0.48233754  0.17511215  1
  O  O581  1  0.42633417  0.48181780  0.42593642  1
  O  O582  1  0.42760597  0.48206121  0.67598755  1
  O  O583  1  0.42828764  0.48030913  0.92608397  1
  O  O584  1  0.42870942  0.81339873  0.17696666  1
  O  O585  1  0.42669410  0.81181034  0.42472753  1
  O  O586  1  0.42659487  0.81338283  0.67417373  1
  O  O587  1  0.42681770  0.81147450  0.92556759  1
  O  O588  1  0.92791715  0.14686497  0.17577712  1
  O  O589  1  0.92655515  0.14753402  0.42521382  1
  O  O590  1  0.92619452  0.14684490  0.67515815  1
  O  O591  1  0.92642817  0.14431871  0.92573197  1
  O  O592  1  0.92596217  0.48024751  0.17406134  1
  O  O593  1  0.92721646  0.48066942  0.42655324  1
  O  O594  1  0.92757178  0.48117473  0.67560128  1
  O  O595  1  0.92733456  0.47872067  0.92512976  1
  O  O596  1  0.92898986  0.81372505  0.17611618  1
  O  O597  1  0.92652839  0.81384230  0.42377556  1
  O  O598  1  0.92739561  0.81407208  0.67664333  1
  O  O599  1  0.92808422  0.81234434  0.92694630  1
  O  O600  1  0.07364793  0.18720963  0.07493406  1
  O  O601  1  0.07270566  0.18565023  0.32440767  1
  O  O602  1  0.07203705  0.18642057  0.57296486  1
  O  O603  1  0.07385214  0.18570430  0.82552292  1
  O  O604  1  0.07399208  0.52141124  0.07524921  1
  O  O605  1  0.07299321  0.52071469  0.32453830  1
  O  O606  1  0.07308102  0.51896456  0.57348502  1
  O  O607  1  0.07348940  0.51777997  0.82393955  1
  O  O608  1  0.07255653  0.85314985  0.07411543  1
  O  O609  1  0.07161862  0.85339088  0.32225972  1
  O  O610  1  0.07382317  0.85310288  0.57412045  1
  O  O611  1  0.07327653  0.85118521  0.82483053  1
  O  O612  1  0.57281895  0.18866559  0.07519970  1
  O  O613  1  0.57180499  0.18554059  0.32453809  1
  O  O614  1  0.57266722  0.18611254  0.57419671  1
  O  O615  1  0.57313304  0.18575299  0.82487295  1
  O  O616  1  0.57316000  0.52032673  0.07376422  1
  O  O617  1  0.57219580  0.51955534  0.32355279  1
  O  O618  1  0.57164489  0.51986695  0.57232336  1
  O  O619  1  0.57351423  0.51823142  0.82337565  1
  O  O620  1  0.57386862  0.85373931  0.07613371  1
  O  O621  1  0.57194285  0.85173920  0.32444970  1
  O  O622  1  0.57330240  0.85482467  0.57477586  1
  O  O623  1  0.57354924  0.85303676  0.82513633  1
  O  O624  1  0.32390209  0.18682396  0.04966248  1
  O  O625  1  0.32164784  0.18649339  0.30305534  1
  O  O626  1  0.32156308  0.18661781  0.55201807  1
  O  O627  1  0.32311906  0.18825705  0.79969764  1
  O  O628  1  0.32362458  0.51915132  0.04975148  1
  O  O629  1  0.32355762  0.52026801  0.30027589  1
  O  O630  1  0.32156124  0.51963105  0.55150730  1
  O  O631  1  0.32318293  0.51879680  0.79967872  1
  O  O632  1  0.32379464  0.85210500  0.05058968  1
  O  O633  1  0.32298109  0.85166307  0.30169766  1
  O  O634  1  0.32338174  0.85251490  0.55113997  1
  O  O635  1  0.32356236  0.85467763  0.79986063  1
  O  O636  1  0.82337174  0.18509805  0.05127678  1
  O  O637  1  0.82289170  0.18515490  0.30167736  1
  O  O638  1  0.82279888  0.18744414  0.55049878  1
  O  O639  1  0.82403711  0.18658631  0.79919396  1
  O  O640  1  0.82422236  0.52007541  0.04939282  1
  O  O641  1  0.82382032  0.52026560  0.30011229  1
  O  O642  1  0.82132811  0.52004303  0.55187334  1
  O  O643  1  0.82290318  0.51835591  0.79966751  1
  O  O644  1  0.82364694  0.85157641  0.05161023  1
  O  O645  1  0.82280521  0.85187097  0.30101448  1
  O  O646  1  0.82350660  0.85218248  0.55089475  1
  O  O647  1  0.82325356  0.85088066  0.80078108  1
  O  O648  1  0.17660176  0.14682910  0.20036175  1
  O  O649  1  0.17685173  0.14813583  0.44916252  1
  O  O650  1  0.17668140  0.14864678  0.69959060  1
  O  O651  1  0.17628973  0.14510311  0.94993616  1
  O  O652  1  0.17578566  0.47953978  0.20054234  1
  O  O653  1  0.17677242  0.47888756  0.45082837  1
  O  O654  1  0.17837886  0.48030536  0.69801111  1
  O  O655  1  0.17815857  0.48018337  0.94749805  1
  O  O656  1  0.17701528  0.81479705  0.19837320  1
  O  O657  1  0.17640763  0.81452449  0.44938594  1
  O  O658  1  0.17769907  0.81398528  0.69871439  1
  O  O659  1  0.17644378  0.81339970  0.94950850  1
  O  O660  1  0.67717349  0.14779563  0.19937708  1
  O  O661  1  0.67716435  0.14817726  0.44932633  1
  O  O662  1  0.67567854  0.14600867  0.70054692  1
  O  O663  1  0.67613336  0.14622868  0.95049665  1
  O  O664  1  0.67592147  0.48013880  0.19986576  1
  O  O665  1  0.67630830  0.48064684  0.45098478  1
  O  O666  1  0.67844699  0.48040930  0.69752480  1
  O  O667  1  0.67695933  0.48109680  0.94841784  1
  O  O668  1  0.67705669  0.81476536  0.19877646  1
  O  O669  1  0.67625914  0.81455844  0.44950460  1
  O  O670  1  0.67746440  0.81323593  0.69833033  1
  O  O671  1  0.67739041  0.81474090  0.94856652  1
