# generated using pymatgen
data_Na2MnFe(PO4)2
_symmetry_space_group_name_H-M   'P 1'
_cell_length_a   22.34737724
_cell_length_b   20.09552128
_cell_length_c   19.44584622
_cell_angle_alpha   90.00115899
_cell_angle_beta   90.01306924
_cell_angle_gamma   89.98731858
_symmetry_Int_Tables_number   1
_chemical_formula_structural   Na2MnFe(PO4)2
_chemical_formula_sum   'Na96 Mn48 Fe48 P96 O384'
_cell_volume   8732.78285940
_cell_formula_units_Z   48
loop_
 _symmetry_equiv_pos_site_id
 _symmetry_equiv_pos_as_xyz
  1  'x, y, z'
loop_
 _atom_site_type_symbol
 _atom_site_label
 _atom_site_symmetry_multiplicity
 _atom_site_fract_x
 _atom_site_fract_y
 _atom_site_fract_z
 _atom_site_occupancy
  Na  Na0  1  0.14033035  0.24952579  0.24409205  1
  Na  Na1  1  0.14091469  0.24920619  0.49386501  1
  Na  Na2  1  0.14076163  0.25031065  0.74327860  1
  Na  Na3  1  0.14036605  0.24984110  0.99362492  1
  Na  Na4  1  0.14069297  0.58242660  0.24413426  1
  Na  Na5  1  0.14064796  0.58155963  0.49371045  1
  Na  Na6  1  0.14055063  0.58392925  0.74306426  1
  Na  Na7  1  0.14085514  0.58416545  0.99309065  1
  Na  Na8  1  0.14093843  0.91726521  0.24371805  1
  Na  Na9  1  0.14049993  0.91738670  0.49428066  1
  Na  Na10  1  0.14055424  0.91864394  0.74362796  1
  Na  Na11  1  0.14090134  0.91706217  0.99265818  1
  Na  Na12  1  0.64041159  0.24931969  0.24220321  1
  Na  Na13  1  0.64012274  0.25046783  0.49410954  1
  Na  Na14  1  0.63949375  0.25086082  0.74504702  1
  Na  Na15  1  0.63927226  0.25021326  0.99455388  1
  Na  Na16  1  0.64025380  0.58162326  0.24266904  1
  Na  Na17  1  0.63996026  0.58314812  0.49459098  1
  Na  Na18  1  0.64001736  0.58361689  0.74410548  1
  Na  Na19  1  0.64006975  0.58227610  0.99465751  1
  Na  Na20  1  0.63977698  0.91650176  0.24275272  1
  Na  Na21  1  0.63937187  0.91672739  0.49292177  1
  Na  Na22  1  0.63968628  0.91680977  0.74279731  1
  Na  Na23  1  0.64002928  0.91690122  0.99428262  1
  Na  Na24  1  0.35955118  0.08469449  0.00613784  1
  Na  Na25  1  0.35938536  0.08409232  0.25676819  1
  Na  Na26  1  0.35974041  0.08257334  0.50597304  1
  Na  Na27  1  0.35978203  0.08379500  0.75629293  1
  Na  Na28  1  0.35956388  0.41732379  0.00786521  1
  Na  Na29  1  0.36023314  0.41514428  0.25641210  1
  Na  Na30  1  0.35948915  0.41494341  0.50688066  1
  Na  Na31  1  0.35913818  0.41654648  0.75765277  1
  Na  Na32  1  0.36003848  0.75028323  0.00620458  1
  Na  Na33  1  0.35962722  0.75041456  0.25615193  1
  Na  Na34  1  0.36005892  0.74973016  0.50763927  1
  Na  Na35  1  0.35977403  0.75059851  0.75766471  1
  Na  Na36  1  0.85969192  0.08456919  0.00629440  1
  Na  Na37  1  0.85987797  0.08326941  0.25517514  1
  Na  Na38  1  0.85947769  0.08359638  0.50664999  1
  Na  Na39  1  0.85980411  0.08447120  0.75639192  1
  Na  Na40  1  0.85892755  0.41624228  0.00664992  1
  Na  Na41  1  0.85936339  0.41531300  0.25522101  1
  Na  Na42  1  0.85996185  0.41654055  0.50587649  1
  Na  Na43  1  0.85980253  0.41648557  0.75478181  1
  Na  Na44  1  0.86007685  0.75014083  0.00700627  1
  Na  Na45  1  0.85989247  0.74903259  0.25475968  1
  Na  Na46  1  0.85960273  0.74969991  0.50629262  1
  Na  Na47  1  0.86016129  0.75048614  0.75584914  1
  Na  Na48  1  0.11027662  0.08382922  0.11848388  1
  Na  Na49  1  0.11028468  0.08288975  0.36891170  1
  Na  Na50  1  0.10986112  0.08469849  0.61918617  1
  Na  Na51  1  0.11009004  0.08417404  0.86827358  1
  Na  Na52  1  0.10978957  0.41607589  0.11802140  1
  Na  Na53  1  0.10999558  0.41501656  0.36972824  1
  Na  Na54  1  0.11021842  0.41687182  0.61733236  1
  Na  Na55  1  0.10978013  0.41761078  0.86807110  1
  Na  Na56  1  0.11010080  0.74991730  0.11799464  1
  Na  Na57  1  0.10989041  0.74909471  0.36989139  1
  Na  Na58  1  0.10996520  0.75004935  0.61853811  1
  Na  Na59  1  0.10984903  0.75098450  0.86865694  1
  Na  Na60  1  0.60944139  0.08288202  0.11840904  1
  Na  Na61  1  0.60967059  0.08298944  0.36734031  1
  Na  Na62  1  0.60904607  0.08236023  0.61840614  1
  Na  Na63  1  0.60883755  0.08414366  0.86966826  1
  Na  Na64  1  0.60935390  0.41557964  0.11772430  1
  Na  Na65  1  0.60936700  0.41610338  0.36802835  1
  Na  Na66  1  0.60940251  0.41578599  0.62002705  1
  Na  Na67  1  0.60927826  0.41704799  0.87006709  1
  Na  Na68  1  0.60918599  0.74925669  0.11855126  1
  Na  Na69  1  0.60891706  0.75049768  0.36859887  1
  Na  Na70  1  0.60924228  0.75091952  0.61919895  1
  Na  Na71  1  0.60921307  0.75159099  0.86862668  1
  Na  Na72  1  0.38957818  0.25001730  0.13221675  1
  Na  Na73  1  0.38970926  0.24938511  0.38183957  1
  Na  Na74  1  0.38974666  0.24904843  0.63241300  1
  Na  Na75  1  0.39009014  0.25106280  0.88253093  1
  Na  Na76  1  0.39021379  0.58310859  0.13193462  1
  Na  Na77  1  0.39078136  0.58314629  0.38104912  1
  Na  Na78  1  0.39036717  0.58288644  0.63346894  1
  Na  Na79  1  0.38994622  0.58427264  0.88250438  1
  Na  Na80  1  0.39053504  0.91644302  0.13102599  1
  Na  Na81  1  0.39050486  0.91673704  0.38101165  1
  Na  Na82  1  0.39051044  0.91526520  0.63147284  1
  Na  Na83  1  0.39048560  0.91814742  0.88060911  1
  Na  Na84  1  0.88989079  0.24941422  0.13110560  1
  Na  Na85  1  0.89013054  0.24874285  0.38103670  1
  Na  Na86  1  0.89047239  0.25055711  0.63100375  1
  Na  Na87  1  0.89010431  0.25027766  0.88103044  1
  Na  Na88  1  0.89001830  0.58389811  0.13073820  1
  Na  Na89  1  0.89070915  0.58221357  0.38066012  1
  Na  Na90  1  0.89103960  0.58348795  0.63004999  1
  Na  Na91  1  0.89068509  0.58502726  0.88111639  1
  Na  Na92  1  0.89113888  0.91706088  0.13040413  1
  Na  Na93  1  0.89064483  0.91576339  0.38102774  1
  Na  Na94  1  0.89052035  0.91727566  0.63128997  1
  Na  Na95  1  0.89102749  0.91767242  0.88072776  1
  Mn  Mn96  1  0.75020966  0.66738363  0.62434855  1
  Mn  Mn97  1  0.74939725  0.16795808  0.62589107  1
  Mn  Mn98  1  0.00024072  0.00075107  -0.00002466  1
  Mn  Mn99  1  0.00059314  0.66631981  0.24983362  1
  Mn  Mn100  1  -0.00040145  0.50113112  -0.00128187  1
  Mn  Mn101  1  0.49987590  0.66682824  0.25028014  1
  Mn  Mn102  1  0.00044622  0.83334637  0.50066986  1
  Mn  Mn103  1  0.49957514  0.66727747  0.00090413  1
  Mn  Mn104  1  0.25076128  0.49793810  0.37448711  1
  Mn  Mn105  1  0.75006374  0.49926816  0.62477436  1
  Mn  Mn106  1  0.50052409  0.16533174  0.50035413  1
  Mn  Mn107  1  0.25022338  0.83394144  0.87521443  1
  Mn  Mn108  1  -0.00009741  0.50119179  0.74867040  1
  Mn  Mn109  1  -0.00023444  0.16605629  0.50026196  1
  Mn  Mn110  1  0.74962557  0.83312553  0.37380359  1
  Mn  Mn111  1  0.25048608  0.83299456  0.12432490  1
  Mn  Mn112  1  0.00113484  0.00009612  0.24971169  1
  Mn  Mn113  1  0.49965459  0.50009897  0.75137396  1
  Mn  Mn114  1  0.75044306  0.49902792  0.87467262  1
  Mn  Mn115  1  0.25039587  0.00148294  0.12453430  1
  Mn  Mn116  1  0.24998461  0.00060679  0.62483058  1
  Mn  Mn117  1  0.00047469  0.49938264  0.24980684  1
  Mn  Mn118  1  0.75063999  0.00067480  0.37449442  1
  Mn  Mn119  1  0.25057154  0.66584001  0.37606434  1
  Mn  Mn120  1  -0.00020651  0.33329531  0.74944724  1
  Mn  Mn121  1  0.49965766  0.16618305  0.24989490  1
  Mn  Mn122  1  0.75035555  0.83384302  0.87577023  1
  Mn  Mn123  1  0.24947184  0.83343314  0.37487291  1
  Mn  Mn124  1  0.50036361  0.66728717  0.50063955  1
  Mn  Mn125  1  0.74989545  0.66609801  0.37459020  1
  Mn  Mn126  1  0.74997249  0.83336017  0.12491123  1
  Mn  Mn127  1  0.00046571  0.83288494  0.25046455  1
  Mn  Mn128  1  0.50001157  -0.00022709  -0.00047663  1
  Mn  Mn129  1  -0.00021249  0.33210323  0.24915251  1
  Mn  Mn130  1  0.74993375  0.49918394  0.37428869  1
  Mn  Mn131  1  -0.00039407  0.33254096  -0.00108246  1
  Mn  Mn132  1  0.24980353  0.33361004  0.87505243  1
  Mn  Mn133  1  0.74900560  0.16785373  0.87583684  1
  Mn  Mn134  1  0.00036906  0.83376977  0.74984861  1
  Mn  Mn135  1  0.74960076  0.66666235  0.87481903  1
  Mn  Mn136  1  0.25017003  0.49985764  0.12532668  1
  Mn  Mn137  1  0.74955540  0.33224245  0.37456405  1
  Mn  Mn138  1  0.49951621  0.49955080  0.50104841  1
  Mn  Mn139  1  0.74960944  0.00060226  0.87496473  1
  Mn  Mn140  1  0.74921947  -0.00002002  0.62488851  1
  Mn  Mn141  1  0.25035598  0.66629590  0.62553668  1
  Mn  Mn142  1  0.49952091  0.33271652  0.49998010  1
  Mn  Mn143  1  0.49976494  0.16667652  0.75010343  1
  Fe  Fe144  1  0.00022027  0.33258421  0.49956216  1
  Fe  Fe145  1  0.00034386  0.66623190  0.49965690  1
  Fe  Fe146  1  0.50002984  0.83387595  0.74971153  1
  Fe  Fe147  1  0.24985595  0.49999575  0.87540583  1
  Fe  Fe148  1  0.50022552  0.66733452  0.75125716  1
  Fe  Fe149  1  0.49963158  -0.00059690  0.24916754  1
  Fe  Fe150  1  0.00023451  0.00020525  0.50035410  1
  Fe  Fe151  1  0.49947552  0.33366444  0.75175794  1
  Fe  Fe152  1  0.00008717  0.00097850  0.75082689  1
  Fe  Fe153  1  0.24967072  0.66673674  0.87471003  1
  Fe  Fe154  1  0.24944996  0.16718315  0.12539736  1
  Fe  Fe155  1  0.00039905  0.49968475  0.49964544  1
  Fe  Fe156  1  0.49986548  0.33272647  0.24949863  1
  Fe  Fe157  1  0.49987595  -0.00033057  0.74952804  1
  Fe  Fe158  1  0.00033221  0.66758834  -0.00017623  1
  Fe  Fe159  1  0.25018720  0.00120000  0.87456545  1
  Fe  Fe160  1  0.24986918  0.33285544  0.12554403  1
  Fe  Fe161  1  0.50014713  0.83386690  -0.00044766  1
  Fe  Fe162  1  0.49977695  0.50015483  0.00062519  1
  Fe  Fe163  1  0.75039263  0.00047324  0.12485142  1
  Fe  Fe164  1  0.49911366  0.16694893  0.00002446  1
  Fe  Fe165  1  0.49944875  0.83365400  0.50006531  1
  Fe  Fe166  1  0.00075582  0.83394353  -0.00057502  1
  Fe  Fe167  1  0.74961028  0.33335268  0.62480131  1
  Fe  Fe168  1  0.50021039  0.49930970  0.25025095  1
  Fe  Fe169  1  0.25053186  0.16749985  0.87497732  1
  Fe  Fe170  1  0.25014863  0.16644972  0.62466934  1
  Fe  Fe171  1  0.25027016  0.66630247  0.12499130  1
  Fe  Fe172  1  0.74979285  0.33252001  0.12503826  1
  Fe  Fe173  1  0.25036353  0.00046506  0.37492996  1
  Fe  Fe174  1  0.74989140  0.83372471  0.62456382  1
  Fe  Fe175  1  0.49909986  0.33377649  0.00110393  1
  Fe  Fe176  1  0.00042425  0.16688686  0.74948665  1
  Fe  Fe177  1  0.25021304  0.33281890  0.62545134  1
  Fe  Fe178  1  0.49984105  -0.00109144  0.49927713  1
  Fe  Fe179  1  0.25045546  0.49944136  0.62541894  1
  Fe  Fe180  1  0.00036194  0.66737866  0.74961432  1
  Fe  Fe181  1  0.74984236  0.16642504  0.37435228  1
  Fe  Fe182  1  0.74939439  0.66593737  0.12497507  1
  Fe  Fe183  1  0.74971408  0.16652445  0.12480409  1
  Fe  Fe184  1  0.25014218  0.83374826  0.62556052  1
  Fe  Fe185  1  0.24978853  0.33200179  0.37581658  1
  Fe  Fe186  1  0.49953940  0.83363114  0.25010719  1
  Fe  Fe187  1  0.00007828  0.16668003  -0.00050934  1
  Fe  Fe188  1  0.74993002  0.49918588  0.12445662  1
  Fe  Fe189  1  0.00009317  0.16596200  0.25054550  1
  Fe  Fe190  1  0.25027935  0.16701845  0.37536202  1
  Fe  Fe191  1  0.74976955  0.33326372  0.87585377  1
  P  P192  1  0.04203984  0.24820039  0.10230725  1
  P  P193  1  0.04192606  0.24850591  0.35285449  1
  P  P194  1  0.04240795  0.25063020  0.60242646  1
  P  P195  1  0.04236129  0.24864888  0.85217166  1
  P  P196  1  0.04264968  0.58450858  0.10167501  1
  P  P197  1  0.04313738  0.58253395  0.35395764  1
  P  P198  1  0.04203505  0.58360004  0.60135859  1
  P  P199  1  0.04209264  0.58566112  0.85212928  1
  P  P200  1  0.04328333  0.91596627  0.10196590  1
  P  P201  1  0.04347436  0.91669416  0.35386979  1
  P  P202  1  0.04236253  0.91886428  0.60334716  1
  P  P203  1  0.04254137  0.91814813  0.85274237  1
  P  P204  1  0.54032643  0.25002389  0.10212073  1
  P  P205  1  0.54214960  0.25065281  0.35187694  1
  P  P206  1  0.54233981  0.24963056  0.60386670  1
  P  P207  1  0.54118031  0.25136803  0.85410313  1
  P  P208  1  0.54148894  0.58161687  0.10331161  1
  P  P209  1  0.54227264  0.58220895  0.35243059  1
  P  P210  1  0.54247383  0.58362476  0.60446720  1
  P  P211  1  0.54196854  0.58476205  0.85371989  1
  P  P212  1  0.54189560  0.91520198  0.10281039  1
  P  P213  1  0.54139443  0.91693480  0.35162966  1
  P  P214  1  0.54113895  0.91640172  0.60199960  1
  P  P215  1  0.54147042  0.91714488  0.85143630  1
  P  P216  1  0.45754758  0.08219645  0.14703130  1
  P  P217  1  0.45812001  0.08149152  0.39701081  1
  P  P218  1  0.45774415  0.08118012  0.64708945  1
  P  P219  1  0.45756130  0.08468647  0.89726153  1
  P  P220  1  0.45878553  0.41625017  0.14794586  1
  P  P221  1  0.45723026  0.41654397  0.39624902  1
  P  P222  1  0.45725399  0.41519827  0.64892654  1
  P  P223  1  0.45806554  0.41688786  0.89927569  1
  P  P224  1  0.45773105  0.75136626  0.14751297  1
  P  P225  1  0.45753130  0.75158930  0.39761303  1
  P  P226  1  0.45848162  0.74999831  0.64899009  1
  P  P227  1  0.45815345  0.75187397  0.89711612  1
  P  P228  1  0.95838488  0.08474978  0.14715152  1
  P  P229  1  0.95767720  0.08180770  0.39749544  1
  P  P230  1  0.95857172  0.08334541  0.64825514  1
  P  P231  1  0.95785687  0.08497682  0.89665057  1
  P  P232  1  0.95719908  0.41648721  0.14618408  1
  P  P233  1  0.95872251  0.41578032  0.39814758  1
  P  P234  1  0.95795723  0.41677734  0.64510992  1
  P  P235  1  0.95679350  0.41701454  0.89612712  1
  P  P236  1  0.95803513  0.75019773  0.14579366  1
  P  P237  1  0.95771105  0.74860748  0.39792066  1
  P  P238  1  0.95843274  0.74893801  0.64701401  1
  P  P239  1  0.95866955  0.75078380  0.89801129  1
  P  P240  1  0.20805386  0.08506610  0.22830649  1
  P  P241  1  0.20892973  0.08379395  0.47672300  1
  P  P242  1  0.20831343  0.08518860  0.72801410  1
  P  P243  1  0.20878408  0.08464052  0.97651324  1
  P  P244  1  0.20779562  0.41449428  0.22778198  1
  P  P245  1  0.20844029  0.41436177  0.47849229  1
  P  P246  1  0.20857190  0.41681953  0.72695833  1
  P  P247  1  0.20778385  0.41769083  0.97773725  1
  P  P248  1  0.20785876  0.74872691  0.22726913  1
  P  P249  1  0.20768944  0.74995397  0.47913206  1
  P  P250  1  0.20817458  0.75125027  0.72794320  1
  P  P251  1  0.20839893  0.74873815  0.97751038  1
  P  P252  1  0.70835728  0.08352251  0.22642300  1
  P  P253  1  0.70748025  0.08478612  0.47704779  1
  P  P254  1  0.70630265  0.08383869  0.72833451  1
  P  P255  1  0.70683279  0.08368668  0.97938291  1
  P  P256  1  0.70829859  0.41592924  0.22593026  1
  P  P257  1  0.70682565  0.41600479  0.47808322  1
  P  P258  1  0.70754442  0.41496706  0.72799353  1
  P  P259  1  0.70780910  0.41528327  0.97856198  1
  P  P260  1  0.70728684  0.74856370  0.22686753  1
  P  P261  1  0.70684979  0.75041369  0.47799020  1
  P  P262  1  0.70780712  0.75160445  0.72721238  1
  P  P263  1  0.70718350  0.74952885  0.97891108  1
  P  P264  1  0.29121945  0.25001277  0.02359575  1
  P  P265  1  0.29134234  0.24983380  0.27313265  1
  P  P266  1  0.29163676  0.24946658  0.52319049  1
  P  P267  1  0.29219818  0.24930750  0.77216646  1
  P  P268  1  0.29222363  0.58454776  0.02199174  1
  P  P269  1  0.29300390  0.58290164  0.27170350  1
  P  P270  1  0.29297216  0.58122141  0.52329429  1
  P  P271  1  0.29120829  0.58275569  0.77351597  1
  P  P272  1  0.29272722  0.91776539  0.02112520  1
  P  P273  1  0.29221205  0.91813969  0.27242854  1
  P  P274  1  0.29214450  0.91597822  0.52243157  1
  P  P275  1  0.29192697  0.91842046  0.77224405  1
  P  P276  1  0.79105724  0.25006124  0.02332858  1
  P  P277  1  0.79182285  0.24797600  0.27134075  1
  P  P278  1  0.79225790  0.25099662  0.52229464  1
  P  P279  1  0.79187671  0.25203633  0.77271829  1
  P  P280  1  0.79134894  0.58285083  0.02330601  1
  P  P281  1  0.79257718  0.58254206  0.27031508  1
  P  P282  1  0.79299839  0.58297192  0.52157292  1
  P  P283  1  0.79303925  0.58326070  0.77166029  1
  P  P284  1  0.79255329  0.91823748  0.02268018  1
  P  P285  1  0.79300789  0.91724785  0.27083649  1
  P  P286  1  0.79208579  0.91593439  0.52222311  1
  P  P287  1  0.79273889  0.91680188  0.77138008  1
  O  O288  1  0.03678650  0.24810201  0.18228493  1
  O  O289  1  0.03653976  0.24933089  0.43277837  1
  O  O290  1  0.03727576  0.25008477  0.68236465  1
  O  O291  1  0.03706086  0.24847636  0.93214501  1
  O  O292  1  0.03806168  0.58392759  0.18171959  1
  O  O293  1  0.03766243  0.58237707  0.43388289  1
  O  O294  1  0.03694312  0.58407240  0.68135477  1
  O  O295  1  0.03659792  0.58583481  0.93204185  1
  O  O296  1  0.03831842  0.91616102  0.18197529  1
  O  O297  1  0.03817512  0.91722620  0.43384850  1
  O  O298  1  0.03678142  0.91915929  0.68329100  1
  O  O299  1  0.03724202  0.91736112  0.93268850  1
  O  O300  1  0.53569186  0.25007055  0.18212299  1
  O  O301  1  0.53747198  0.25019800  0.43186553  1
  O  O302  1  0.53721240  0.24986661  0.68381327  1
  O  O303  1  0.53535437  0.25099824  0.93396720  1
  O  O304  1  0.53620559  0.58115877  0.18323940  1
  O  O305  1  0.53734489  0.58254084  0.43247379  1
  O  O306  1  0.53723725  0.58414420  0.68445408  1
  O  O307  1  0.53656623  0.58420914  0.93365459  1
  O  O308  1  0.53639188  0.91542233  0.18264809  1
  O  O309  1  0.53626177  0.91719691  0.43153780  1
  O  O310  1  0.53607424  0.91659009  0.68188821  1
  O  O311  1  0.53680380  0.91658900  0.93141313  1
  O  O312  1  0.46286277  0.08305366  0.06708972  1
  O  O313  1  0.46315332  0.08160447  0.31702932  1
  O  O314  1  0.46329726  0.08081044  0.56713971  1
  O  O315  1  0.46272775  0.08452272  0.81738170  1
  O  O316  1  0.46388026  0.41639455  0.06798934  1
  O  O317  1  0.46269628  0.41670023  0.31630678  1
  O  O318  1  0.46219725  0.41550375  0.56894469  1
  O  O319  1  0.46300586  0.41662390  0.81930625  1
  O  O320  1  0.46297863  0.75128923  0.06755730  1
  O  O321  1  0.46277662  0.75158920  0.31765888  1
  O  O322  1  0.46296502  0.75029862  0.56899329  1
  O  O323  1  0.46370296  0.75132997  0.81726799  1
  O  O324  1  0.96339936  0.08494040  0.06718090  1
  O  O325  1  0.96306829  0.08246135  0.31757207  1
  O  O326  1  0.96362039  0.08269136  0.56825446  1
  O  O327  1  0.96335332  0.08464490  0.81676188  1
  O  O328  1  0.96193885  0.41650044  0.06620581  1
  O  O329  1  0.96376863  0.41575993  0.31809766  1
  O  O330  1  0.96360950  0.41646876  0.56521162  1
  O  O331  1  0.96193707  0.41710783  0.81614192  1
  O  O332  1  0.96342035  0.75055789  0.06584647  1
  O  O333  1  0.96291070  0.74896232  0.31792756  1
  O  O334  1  0.96373568  0.74864808  0.56711268  1
  O  O335  1  0.96368169  0.75047411  0.81798966  1
  O  O336  1  0.21363423  0.08489504  0.05651973  1
  O  O337  1  0.21359266  0.08455683  0.30815798  1
  O  O338  1  0.21393340  0.08421568  0.55669107  1
  O  O339  1  0.21380368  0.08489141  0.80786316  1
  O  O340  1  0.21286766  0.41708846  0.05763466  1
  O  O341  1  0.21291154  0.41400239  0.30775355  1
  O  O342  1  0.21389218  0.41481556  0.55836994  1
  O  O343  1  0.21346654  0.41748663  0.80698175  1
  O  O344  1  0.21338275  0.74840704  0.05747407  1
  O  O345  1  0.21310578  0.74911014  0.30727600  1
  O  O346  1  0.21307315  0.75053180  0.55909419  1
  O  O347  1  0.21336947  0.75075407  0.80791383  1
  O  O348  1  0.71231202  0.08343077  0.05930600  1
  O  O349  1  0.71346157  0.08403762  0.30641478  1
  O  O350  1  0.71227231  0.08452219  0.55705601  1
  O  O351  1  0.71121836  0.08386627  0.80833182  1
  O  O352  1  0.71336822  0.41568414  0.05842684  1
  O  O353  1  0.71304396  0.41569619  0.30593962  1
  O  O354  1  0.71182860  0.41566174  0.55806775  1
  O  O355  1  0.71293613  0.41491380  0.80796316  1
  O  O356  1  0.71233450  0.74895311  0.05888314  1
  O  O357  1  0.71222661  0.74876646  0.30686171  1
  O  O358  1  0.71218225  0.75130042  0.55798558  1
  O  O359  1  0.71277156  0.75142452  0.80724060  1
  O  O360  1  0.28601072  0.24987065  0.19325448  1
  O  O361  1  0.28631332  0.24965190  0.44326670  1
  O  O362  1  0.28692786  0.24958634  0.69230897  1
  O  O363  1  0.28644077  0.25007481  0.94362326  1
  O  O364  1  0.28754689  0.58365557  0.19175024  1
  O  O365  1  0.28805531  0.58126397  0.44330455  1
  O  O366  1  0.28645143  0.58228552  0.69350622  1
  O  O367  1  0.28665733  0.58426866  0.94209844  1
  O  O368  1  0.28716590  0.91792562  0.19243261  1
  O  O369  1  0.28685174  0.91635390  0.44249108  1
  O  O370  1  0.28660488  0.91766727  0.69228767  1
  O  O371  1  0.28720834  0.91837790  0.94119546  1
  O  O372  1  0.78649074  0.24809577  0.19142984  1
  O  O373  1  0.78723748  0.24997866  0.44232487  1
  O  O374  1  0.78678664  0.25205914  0.69275849  1
  O  O375  1  0.78608747  0.25073963  0.94336771  1
  O  O376  1  0.78701361  0.58261292  0.19036407  1
  O  O377  1  0.78797966  0.58279124  0.44158505  1
  O  O378  1  0.78813341  0.58335208  0.69170171  1
  O  O379  1  0.78654729  0.58292273  0.94326491  1
  O  O380  1  0.78787555  0.91781848  0.19088337  1
  O  O381  1  0.78726019  0.91622399  0.44219609  1
  O  O382  1  0.78743003  0.91613908  0.69137405  1
  O  O383  1  0.78739643  0.91798946  0.94268769  1
  O  O384  1  0.22700522  0.24967495  0.05942905  1
  O  O385  1  0.22736270  0.24958442  0.30974976  1
  O  O386  1  0.22765706  0.24932181  0.55972170  1
  O  O387  1  0.22805207  0.24896121  0.80826536  1
  O  O388  1  0.22814590  0.58477097  0.05831930  1
  O  O389  1  0.22881442  0.58241560  0.30734365  1
  O  O390  1  0.22855904  0.58141359  0.55855416  1
  O  O391  1  0.22704959  0.58219899  0.80936261  1
  O  O392  1  0.22855440  0.91740217  0.05676494  1
  O  O393  1  0.22796145  0.91849800  0.30804607  1
  O  O394  1  0.22797249  0.91567897  0.55838712  1
  O  O395  1  0.22782079  0.91865521  0.80819066  1
  O  O396  1  0.72688315  0.24941779  0.05914385  1
  O  O397  1  0.72763053  0.24791726  0.30734416  1
  O  O398  1  0.72786941  0.25175746  0.55781185  1
  O  O399  1  0.72754055  0.25229118  0.80835225  1
  O  O400  1  0.72713906  0.58237293  0.05907259  1
  O  O401  1  0.72829245  0.58261370  0.30593768  1
  O  O402  1  0.72858419  0.58315404  0.55658286  1
  O  O403  1  0.72854203  0.58289548  0.80653268  1
  O  O404  1  0.72824967  0.91836836  0.05810746  1
  O  O405  1  0.72858480  0.91733840  0.30593910  1
  O  O406  1  0.72763173  0.91558619  0.55740100  1
  O  O407  1  0.72834155  0.91679316  0.80658124  1
  O  O408  1  0.27215196  0.08568458  0.19204383  1
  O  O409  1  0.27299864  0.08374961  0.44056098  1
  O  O410  1  0.27236369  0.08516117  0.69169528  1
  O  O411  1  0.27295161  0.08473635  0.94057818  1
  O  O412  1  0.27207379  0.41491637  0.19214200  1
  O  O413  1  0.27250445  0.41380012  0.44219138  1
  O  O414  1  0.27277755  0.41667624  0.69114939  1
  O  O415  1  0.27205753  0.41806812  0.94203291  1
  O  O416  1  0.27217523  0.74830649  0.19160887  1
  O  O417  1  0.27195764  0.75016803  0.44367278  1
  O  O418  1  0.27240466  0.75137888  0.69218506  1
  O  O419  1  0.27258067  0.74926540  0.94185352  1
  O  O420  1  0.77251953  0.08377034  0.19038606  1
  O  O421  1  0.77196012  0.08520313  0.44187719  1
  O  O422  1  0.77077386  0.08373709  0.69348124  1
  O  O423  1  0.77103484  0.08411899  0.94363835  1
  O  O424  1  0.77252413  0.41654428  0.19039017  1
  O  O425  1  0.77125217  0.41584322  0.44296947  1
  O  O426  1  0.77174139  0.41473920  0.69202146  1
  O  O427  1  0.77191194  0.41470005  0.94226990  1
  O  O428  1  0.77166781  0.74856270  0.19169717  1
  O  O429  1  0.77124798  0.74999381  0.44277828  1
  O  O430  1  0.77214739  0.75188837  0.69180413  1
  O  O431  1  0.77160858  0.74969008  0.94381552  1
  O  O432  1  0.02266842  0.08502608  0.18287009  1
  O  O433  1  0.02198129  0.08160141  0.43326495  1
  O  O434  1  0.02272952  0.08382029  0.68429884  1
  O  O435  1  0.02204004  0.08520373  0.93278445  1
  O  O436  1  0.02171039  0.41593493  0.18102717  1
  O  O437  1  0.02285638  0.41570089  0.43412172  1
  O  O438  1  0.02203655  0.41684569  0.68119050  1
  O  O439  1  0.02124703  0.41688189  0.93108100  1
  O  O440  1  0.02227870  0.74998935  0.18152837  1
  O  O441  1  0.02206199  0.74851034  0.43340461  1
  O  O442  1  0.02264449  0.74912165  0.68293100  1
  O  O443  1  0.02289826  0.75083206  0.93390682  1
  O  O444  1  0.52176161  0.08175519  0.18287788  1
  O  O445  1  0.52239436  0.08119840  0.43266815  1
  O  O446  1  0.52185817  0.08149437  0.68319988  1
  O  O447  1  0.52171312  0.08472512  0.93319812  1
  O  O448  1  0.52280333  0.41580016  0.18430261  1
  O  O449  1  0.52143410  0.41651210  0.43205048  1
  O  O450  1  0.52157171  0.41514085  0.68444092  1
  O  O451  1  0.52221536  0.41634479  0.93519237  1
  O  O452  1  0.52190782  0.75139759  0.18338479  1
  O  O453  1  0.52177834  0.75184093  0.43341091  1
  O  O454  1  0.52270526  0.74941582  0.68472676  1
  O  O455  1  0.52216714  0.75178650  0.93357879  1
  O  O456  1  0.47614851  0.25044280  0.06638003  1
  O  O457  1  0.47766802  0.25084768  0.31679444  1
  O  O458  1  0.47803714  0.24898401  0.56843898  1
  O  O459  1  0.47722575  0.25132818  0.81747939  1
  O  O460  1  0.47734119  0.58216691  0.06739312  1
  O  O461  1  0.47795080  0.58225822  0.31704464  1
  O  O462  1  0.47817738  0.58372162  0.56900573  1
  O  O463  1  0.47776004  0.58507150  0.81783961  1
  O  O464  1  0.47783334  0.91520496  0.06644517  1
  O  O465  1  0.47726307  0.91707360  0.31532044  1
  O  O466  1  0.47708986  0.91645822  0.56554322  1
  O  O467  1  0.47726012  0.91755274  0.81566691  1
  O  O468  1  0.97774820  0.24814146  0.06654423  1
  O  O469  1  0.97775064  0.24802431  0.31687475  1
  O  O470  1  0.97814010  0.25098364  0.56674432  1
  O  O471  1  0.97810457  0.24850259  0.81644321  1
  O  O472  1  0.97815704  0.58502488  0.06663649  1
  O  O473  1  0.97891503  0.58268981  0.31815513  1
  O  O474  1  0.97794485  0.58346380  0.56517154  1
  O  O475  1  0.97790621  0.58570092  0.81618084  1
  O  O476  1  0.97891160  0.91576305  0.06656194  1
  O  O477  1  0.97916435  0.91679001  0.31843527  1
  O  O478  1  0.97826343  0.91862517  0.56712281  1
  O  O479  1  0.97835771  0.91811966  0.81689661  1
  O  O480  1  0.07282107  0.31211284  0.07454363  1
  O  O481  1  0.07313726  0.31182245  0.32450029  1
  O  O482  1  0.07324950  0.31406677  0.57390698  1
  O  O483  1  0.07321597  0.31265045  0.82475028  1
  O  O484  1  0.07339607  0.64801403  0.07319906  1
  O  O485  1  0.07441481  0.64590819  0.32571283  1
  O  O486  1  0.07311263  0.64706069  0.57312040  1
  O  O487  1  0.07311637  0.64890684  0.82341161  1
  O  O488  1  0.07410583  0.97982273  0.07428475  1
  O  O489  1  0.07490123  0.97969326  0.32510025  1
  O  O490  1  0.07336218  0.98209634  0.57458219  1
  O  O491  1  0.07296355  0.98207796  0.82474545  1
  O  O492  1  0.57173755  0.31326861  0.07387557  1
  O  O493  1  0.57280220  0.31412536  0.32318264  1
  O  O494  1  0.57324472  0.31299146  0.57535068  1
  O  O495  1  0.57186520  0.31509019  0.82576782  1
  O  O496  1  0.57276512  0.64534081  0.07602365  1
  O  O497  1  0.57333600  0.64586251  0.32458805  1
  O  O498  1  0.57389312  0.64665772  0.57573813  1
  O  O499  1  0.57279704  0.64830564  0.82535336  1
  O  O500  1  0.57307007  0.97877325  0.07474438  1
  O  O501  1  0.57244484  0.98027698  0.32271656  1
  O  O502  1  0.57230133  0.97975325  0.57337000  1
  O  O503  1  0.57228288  0.98096844  0.82354583  1
  O  O504  1  0.42681213  0.01851357  0.17512147  1
  O  O505  1  0.42692402  0.01838798  0.42573829  1
  O  O506  1  0.42683537  0.01790394  0.67592957  1
  O  O507  1  0.42634619  0.02118086  0.92507715  1
  O  O508  1  0.42766420  0.35261161  0.17612849  1
  O  O509  1  0.42608401  0.35299712  0.42440619  1
  O  O510  1  0.42661380  0.35163748  0.67734876  1
  O  O511  1  0.42643404  0.35383561  0.92773198  1
  O  O512  1  0.42684019  0.68753774  0.17528458  1
  O  O513  1  0.42678211  0.68769956  0.42546573  1
  O  O514  1  0.42735008  0.68658997  0.67745521  1
  O  O515  1  0.42671147  0.68856257  0.92543688  1
  O  O516  1  0.92779454  0.02064404  0.17460190  1
  O  O517  1  0.92697185  0.01824003  0.42590915  1
  O  O518  1  0.92771028  0.01996411  0.67701406  1
  O  O519  1  0.92679983  0.02137344  0.92483301  1
  O  O520  1  0.92602059  0.35311171  0.17441978  1
  O  O521  1  0.92780996  0.35200147  0.42588293  1
  O  O522  1  0.92658332  0.35358899  0.67368816  1
  O  O523  1  0.92583281  0.35348107  0.92421281  1
  O  O524  1  0.92679467  0.68680911  0.17406016  1
  O  O525  1  0.92695727  0.68500186  0.42601515  1
  O  O526  1  0.92753875  0.68569889  0.67591615  1
  O  O527  1  0.92765880  0.68734686  0.92653116  1
  O  O528  1  0.17709933  0.02149343  0.19984479  1
  O  O529  1  0.17844167  0.01971052  0.44897577  1
  O  O530  1  0.17700030  0.02173919  0.69982057  1
  O  O531  1  0.17846012  0.02052803  0.94842973  1
  O  O532  1  0.17706834  0.35118287  0.19866596  1
  O  O533  1  0.17722256  0.35104154  0.44996629  1
  O  O534  1  0.17804886  0.35275397  0.69920230  1
  O  O535  1  0.17673419  0.35421174  0.94936493  1
  O  O536  1  0.17695306  0.68522052  0.19916577  1
  O  O537  1  0.17713071  0.68593335  0.45144242  1
  O  O538  1  0.17696112  0.68775846  0.69995005  1
  O  O539  1  0.17784274  0.68540793  0.94813276  1
  O  O540  1  0.67800167  0.01939925  0.19859640  1
  O  O541  1  0.67682259  0.02098661  0.44897127  1
  O  O542  1  0.67530890  0.02045835  0.69989598  1
  O  O543  1  0.67577036  0.02030040  0.95084754  1
  O  O544  1  0.67808061  0.35180324  0.19786864  1
  O  O545  1  0.67556693  0.35287343  0.44933051  1
  O  O546  1  0.67641211  0.35186211  0.69918980  1
  O  O547  1  0.67656230  0.35197866  0.95019618  1
  O  O548  1  0.67665107  0.68493483  0.19848415  1
  O  O549  1  0.67579056  0.68667161  0.45038728  1
  O  O550  1  0.67692518  0.68776008  0.69968373  1
  O  O551  1  0.67594411  0.68638690  0.95018970  1
  O  O552  1  0.32145394  0.31408129  0.05195548  1
  O  O553  1  0.32216400  0.31340563  0.30167699  1
  O  O554  1  0.32250213  0.31294894  0.55194915  1
  O  O555  1  0.32297210  0.31296619  0.80070718  1
  O  O556  1  0.32336557  0.64784975  0.05060633  1
  O  O557  1  0.32422871  0.64606032  0.30041709  1
  O  O558  1  0.32403160  0.64488193  0.55112994  1
  O  O559  1  0.32106846  0.64723764  0.80144800  1
  O  O560  1  0.32398801  0.98095647  0.04960176  1
  O  O561  1  0.32294151  0.98169522  0.30082263  1
  O  O562  1  0.32328647  0.97955736  0.55023802  1
  O  O563  1  0.32254684  0.98220761  0.80037146  1
  O  O564  1  0.82174369  0.31365343  0.05201995  1
  O  O565  1  0.82303507  0.31159819  0.29924362  1
  O  O566  1  0.82305372  0.31459714  0.55046325  1
  O  O567  1  0.82310368  0.31504620  0.80158719  1
  O  O568  1  0.82168562  0.64681862  0.05144945  1
  O  O569  1  0.82385767  0.64582571  0.29880798  1
  O  O570  1  0.82402372  0.64650273  0.54954793  1
  O  O571  1  0.82371103  0.64687362  0.80005173  1
  O  O572  1  0.82337878  0.98180500  0.05089827  1
  O  O573  1  0.82440252  0.98026686  0.29965068  1
  O  O574  1  0.82283617  0.97974961  0.55011186  1
  O  O575  1  0.82353256  0.98060646  0.79924488  1
  O  O576  1  0.42640646  0.14559559  0.17539536  1
  O  O577  1  0.42744109  0.14546126  0.42485839  1
  O  O578  1  0.42660422  0.14496680  0.67448369  1
  O  O579  1  0.42691877  0.14827863  0.92601325  1
  O  O580  1  0.42799112  0.47991825  0.17633979  1
  O  O581  1  0.42600469  0.47977024  0.42504176  1
  O  O582  1  0.42630296  0.47886655  0.67687991  1
  O  O583  1  0.42795301  0.48116469  0.92726198  1
  O  O584  1  0.42664061  0.81461652  0.17610384  1
  O  O585  1  0.42648893  0.81479419  0.42646122  1
  O  O586  1  0.42818715  0.81394110  0.67754697  1
  O  O587  1  0.42741763  0.81557118  0.92542319  1
  O  O588  1  0.92723719  0.14777011  0.17622183  1
  O  O589  1  0.92645491  0.14523332  0.42573996  1
  O  O590  1  0.92773842  0.14736851  0.67573299  1
  O  O591  1  0.92675008  0.14826647  0.92534104  1
  O  O592  1  0.92667504  0.48011883  0.17457251  1
  O  O593  1  0.92801562  0.47961049  0.42608663  1
  O  O594  1  0.92669449  0.48028207  0.67314596  1
  O  O595  1  0.92581514  0.48053129  0.92420435  1
  O  O596  1  0.92692344  0.81354245  0.17450052  1
  O  O597  1  0.92671914  0.81227490  0.42582782  1
  O  O598  1  0.92748043  0.81282076  0.67456565  1
  O  O599  1  0.92810907  0.81476463  0.92594587  1
  O  O600  1  0.07314442  0.18507503  0.07346034  1
  O  O601  1  0.07260036  0.18468457  0.32493570  1
  O  O602  1  0.07341533  0.18702489  0.57436267  1
  O  O603  1  0.07344688  0.18555537  0.82322018  1
  O  O604  1  0.07338625  0.52075414  0.07357100  1
  O  O605  1  0.07423359  0.51908810  0.32541358  1
  O  O606  1  0.07266331  0.51960141  0.57350263  1
  O  O607  1  0.07302981  0.52176985  0.82452194  1
  O  O608  1  0.07414645  0.85262725  0.07334623  1
  O  O609  1  0.07424700  0.85285073  0.32603573  1
  O  O610  1  0.07342398  0.85491622  0.57616541  1
  O  O611  1  0.07412394  0.85499311  0.82446602  1
  O  O612  1  0.57050240  0.18590968  0.07385767  1
  O  O613  1  0.57302277  0.18698403  0.32380133  1
  O  O614  1  0.57353939  0.18609723  0.57575311  1
  O  O615  1  0.57276265  0.18807598  0.82602704  1
  O  O616  1  0.57223618  0.51830115  0.07419044  1
  O  O617  1  0.57291164  0.51862924  0.32386968  1
  O  O618  1  0.57323767  0.51975652  0.57666300  1
  O  O619  1  0.57317558  0.52119800  0.82580698  1
  O  O620  1  0.57281224  0.85183337  0.07400894  1
  O  O621  1  0.57211241  0.85308103  0.32348065  1
  O  O622  1  0.57169746  0.85258525  0.57351658  1
  O  O623  1  0.57208803  0.85358272  0.82253760  1
  O  O624  1  0.32243579  0.18673499  0.05203312  1
  O  O625  1  0.32258422  0.18637008  0.30153541  1
  O  O626  1  0.32272572  0.18574563  0.55110994  1
  O  O627  1  0.32342419  0.18611400  0.80093645  1
  O  O628  1  0.32328809  0.52090870  0.05018189  1
  O  O629  1  0.32407310  0.51908237  0.29908570  1
  O  O630  1  0.32352055  0.51768775  0.55199761  1
  O  O631  1  0.32285350  0.51981203  0.80221840  1
  O  O632  1  0.32384492  0.85405866  0.04878646  1
  O  O633  1  0.32308428  0.85434538  0.30007434  1
  O  O634  1  0.32279267  0.85241259  0.55120907  1
  O  O635  1  0.32332554  0.85507547  0.80028082  1
  O  O636  1  0.82221769  0.18642671  0.05110487  1
  O  O637  1  0.82260210  0.18463382  0.30039950  1
  O  O638  1  0.82315488  0.18753319  0.55100797  1
  O  O639  1  0.82240443  0.18795357  0.80051194  1
  O  O640  1  0.82247619  0.51922682  0.05108846  1
  O  O641  1  0.82366930  0.51903849  0.29872051  1
  O  O642  1  0.82392455  0.51950784  0.54981630  1
  O  O643  1  0.82416086  0.51980923  0.79976442  1
  O  O644  1  0.82357709  0.85450927  0.05024951  1
  O  O645  1  0.82375004  0.85336450  0.29863042  1
  O  O646  1  0.82293797  0.85248892  0.55073851  1
  O  O647  1  0.82421053  0.85378173  0.80016647  1
  O  O648  1  0.17687368  0.14833441  0.19964099  1
  O  O649  1  0.17774252  0.14715027  0.44830819  1
  O  O650  1  0.17746838  0.14854962  0.69909518  1
  O  O651  1  0.17765545  0.14795413  0.94800560  1
  O  O652  1  0.17660337  0.47821689  0.20020208  1
  O  O653  1  0.17754564  0.47797304  0.45008801  1
  O  O654  1  0.17753127  0.48017836  0.69821007  1
  O  O655  1  0.17697013  0.48124085  0.94924602  1
  O  O656  1  0.17714547  0.81262266  0.19943954  1
  O  O657  1  0.17595999  0.81284589  0.45053325  1
  O  O658  1  0.17757162  0.81501569  0.69969397  1
  O  O659  1  0.17701291  0.81244092  0.95017294  1
  O  O660  1  0.67690178  0.14670070  0.19793608  1
  O  O661  1  0.67667037  0.14822350  0.44851302  1
  O  O662  1  0.67537022  0.14743485  0.70041172  1
  O  O663  1  0.67542148  0.14704820  0.95119670  1
  O  O664  1  0.67701103  0.47924360  0.19776495  1
  O  O665  1  0.67605103  0.47972764  0.44994633  1
  O  O666  1  0.67675450  0.47900612  0.70049365  1
  O  O667  1  0.67698788  0.47897842  0.95023107  1
  O  O668  1  0.67617014  0.81223127  0.19921748  1
  O  O669  1  0.67574582  0.81356970  0.44901437  1
  O  O670  1  0.67701537  0.81505768  0.69858492  1
  O  O671  1  0.67634811  0.81334580  0.95105219  1
