# generated using pymatgen
data_Na2MnFe(PO4)2
_symmetry_space_group_name_H-M   'P 1'
_cell_length_a   22.34152542
_cell_length_b   20.09464081
_cell_length_c   19.45092998
_cell_angle_alpha   89.95819991
_cell_angle_beta   90.06087675
_cell_angle_gamma   89.95887680
_symmetry_Int_Tables_number   1
_chemical_formula_structural   Na2MnFe(PO4)2
_chemical_formula_sum   'Na96 Mn48 Fe48 P96 O384'
_cell_volume   8732.38686237
_cell_formula_units_Z   48
loop_
 _symmetry_equiv_pos_site_id
 _symmetry_equiv_pos_as_xyz
  1  'x, y, z'
loop_
 _atom_site_type_symbol
 _atom_site_label
 _atom_site_symmetry_multiplicity
 _atom_site_fract_x
 _atom_site_fract_y
 _atom_site_fract_z
 _atom_site_occupancy
  Na  Na0  1  0.14058622  0.25028715  0.24392694  1
  Na  Na1  1  0.14081927  0.24970254  0.49472906  1
  Na  Na2  1  0.14089570  0.24869965  0.74371155  1
  Na  Na3  1  0.14023313  0.24978782  0.99365152  1
  Na  Na4  1  0.14052539  0.58574631  0.24369465  1
  Na  Na5  1  0.14061690  0.58546384  0.49355002  1
  Na  Na6  1  0.14045641  0.58355764  0.74360262  1
  Na  Na7  1  0.14074608  0.58584615  0.99447686  1
  Na  Na8  1  0.14077621  0.91676996  0.24364934  1
  Na  Na9  1  0.14089901  0.91644752  0.49334765  1
  Na  Na10  1  0.14043114  0.91627895  0.74286776  1
  Na  Na11  1  0.14067488  0.91710080  0.99438017  1
  Na  Na12  1  0.63922282  0.25030171  0.24443098  1
  Na  Na13  1  0.63955539  0.24888324  0.49350332  1
  Na  Na14  1  0.63962763  0.25106219  0.74317947  1
  Na  Na15  1  0.63968664  0.25116690  0.99257044  1
  Na  Na16  1  0.63976548  0.58346959  0.24429240  1
  Na  Na17  1  0.63948413  0.58163928  0.49383317  1
  Na  Na18  1  0.63930804  0.58249018  0.74324395  1
  Na  Na19  1  0.63966850  0.58289188  0.99309992  1
  Na  Na20  1  0.64030420  0.91631984  0.24398709  1
  Na  Na21  1  0.63968946  0.91631217  0.49383139  1
  Na  Na22  1  0.63963957  0.91748985  0.74269042  1
  Na  Na23  1  0.63968398  0.91736909  0.99259067  1
  Na  Na24  1  0.36016556  0.08282039  0.00619017  1
  Na  Na25  1  0.35986666  0.08331335  0.25684567  1
  Na  Na26  1  0.35964327  0.08327246  0.50773434  1
  Na  Na27  1  0.36032257  0.08228667  0.75674005  1
  Na  Na28  1  0.35985088  0.41725037  0.00687161  1
  Na  Na29  1  0.35957256  0.41729488  0.25744248  1
  Na  Na30  1  0.36007970  0.41674894  0.50854919  1
  Na  Na31  1  0.36000340  0.41539509  0.75682514  1
  Na  Na32  1  0.36010520  0.75104143  0.00645290  1
  Na  Na33  1  0.36015751  0.75087862  0.25752771  1
  Na  Na34  1  0.36036154  0.75107347  0.50713745  1
  Na  Na35  1  0.36049139  0.74977856  0.75626392  1
  Na  Na36  1  0.85976360  0.08434939  0.00513800  1
  Na  Na37  1  0.85959293  0.08356063  0.25581121  1
  Na  Na38  1  0.85940075  0.08242423  0.50516218  1
  Na  Na39  1  0.85986542  0.08417351  0.75632811  1
  Na  Na40  1  0.85918769  0.41712223  0.00497157  1
  Na  Na41  1  0.85951897  0.41647791  0.25513524  1
  Na  Na42  1  0.85966562  0.41443305  0.50614076  1
  Na  Na43  1  0.85922405  0.41608736  0.75592753  1
  Na  Na44  1  0.86007796  0.74949171  0.00575613  1
  Na  Na45  1  0.86019313  0.74964320  0.25585770  1
  Na  Na46  1  0.86019888  0.74832382  0.50619611  1
  Na  Na47  1  0.86008105  0.74868799  0.75646864  1
  Na  Na48  1  0.10981957  0.08389087  0.11886394  1
  Na  Na49  1  0.11015841  0.08229666  0.36871610  1
  Na  Na50  1  0.11039398  0.08303148  0.61849628  1
  Na  Na51  1  0.11014633  0.08324918  0.86852882  1
  Na  Na52  1  0.10934239  0.41711181  0.11847537  1
  Na  Na53  1  0.10977410  0.41733263  0.37015410  1
  Na  Na54  1  0.10956257  0.41716503  0.61874041  1
  Na  Na55  1  0.10949969  0.41707085  0.86934938  1
  Na  Na56  1  0.11087482  0.75072602  0.11934709  1
  Na  Na57  1  0.11023084  0.75039267  0.36752626  1
  Na  Na58  1  0.11010124  0.74994688  0.61875368  1
  Na  Na59  1  0.10982713  0.75078595  0.86860472  1
  Na  Na60  1  0.60905907  0.08305804  0.11868974  1
  Na  Na61  1  0.60903002  0.08308193  0.36883520  1
  Na  Na62  1  0.60961864  0.08388373  0.61841640  1
  Na  Na63  1  0.60870517  0.08362746  0.86693250  1
  Na  Na64  1  0.60863721  0.41588363  0.11899345  1
  Na  Na65  1  0.60890278  0.41594244  0.36949248  1
  Na  Na66  1  0.60905598  0.41757060  0.61868538  1
  Na  Na67  1  0.60894992  0.41747248  0.86725897  1
  Na  Na68  1  0.60911469  0.74891331  0.11814943  1
  Na  Na69  1  0.60935687  0.74954761  0.36951637  1
  Na  Na70  1  0.60876677  0.74987629  0.61848525  1
  Na  Na71  1  0.60878804  0.75042395  0.86821586  1
  Na  Na72  1  0.39047086  0.24937095  0.13182600  1
  Na  Na73  1  0.39056848  0.25012040  0.38225105  1
  Na  Na74  1  0.39053416  0.25052692  0.63370331  1
  Na  Na75  1  0.39002840  0.24961757  0.88133096  1
  Na  Na76  1  0.39061280  0.58288790  0.13213013  1
  Na  Na77  1  0.39072821  0.58442268  0.38267087  1
  Na  Na78  1  0.39075071  0.58405071  0.63170438  1
  Na  Na79  1  0.39060312  0.58451766  0.88090478  1
  Na  Na80  1  0.39055774  0.91587975  0.13147597  1
  Na  Na81  1  0.39031905  0.91656767  0.38303189  1
  Na  Na82  1  0.39082124  0.91710489  0.63161611  1
  Na  Na83  1  0.39067339  0.91632016  0.88086012  1
  Na  Na84  1  0.89037847  0.24922322  0.12924436  1
  Na  Na85  1  0.89038652  0.24990448  0.38102963  1
  Na  Na86  1  0.89007231  0.24923646  0.63113924  1
  Na  Na87  1  0.89004090  0.25002534  0.88132057  1
  Na  Na88  1  0.89030820  0.58449194  0.13056278  1
  Na  Na89  1  0.89080462  0.58292375  0.38082495  1
  Na  Na90  1  0.89056730  0.58363641  0.63121216  1
  Na  Na91  1  0.89033378  0.58322835  0.88090653  1
  Na  Na92  1  0.89094258  0.91589313  0.13147084  1
  Na  Na93  1  0.89041563  0.91580187  0.38009672  1
  Na  Na94  1  0.89106819  0.91577646  0.63124471  1
  Na  Na95  1  0.89106330  0.91649789  0.88038462  1
  Mn  Mn96  1  0.74958137  0.33249968  0.62519834  1
  Mn  Mn97  1  0.50036483  0.16592695  0.00005497  1
  Mn  Mn98  1  0.24976711  0.50158799  0.37629972  1
  Mn  Mn99  1  0.74957803  0.33401707  0.12364009  1
  Mn  Mn100  1  0.75032684  0.83281678  0.62463772  1
  Mn  Mn101  1  0.75029692  0.83301242  0.12453174  1
  Mn  Mn102  1  0.25046169  0.83312070  0.62425027  1
  Mn  Mn103  1  0.24978906  0.33315098  0.12570291  1
  Mn  Mn104  1  0.25013791  -0.00038997  0.87547899  1
  Mn  Mn105  1  0.00005824  0.50061740  0.49958334  1
  Mn  Mn106  1  0.00048216  -0.00074043  0.49959498  1
  Mn  Mn107  1  0.25034095  0.00026443  0.12515806  1
  Mn  Mn108  1  -0.00030987  0.50105363  0.74937169  1
  Mn  Mn109  1  0.50080219  0.83243613  0.25066759  1
  Mn  Mn110  1  0.50015551  -0.00016205  0.25047245  1
  Mn  Mn111  1  0.74899624  0.66575187  0.87477027  1
  Mn  Mn112  1  0.49975691  0.33371837  0.00003476  1
  Mn  Mn113  1  0.25061381  0.33343984  0.37589423  1
  Mn  Mn114  1  0.25016642  0.50007621  0.87512487  1
  Mn  Mn115  1  0.00011276  0.33340359  0.75009336  1
  Mn  Mn116  1  0.74933245  0.16755110  0.12491064  1
  Mn  Mn117  1  0.25083393  0.16613421  0.37596760  1
  Mn  Mn118  1  0.74959532  0.00064484  0.12384530  1
  Mn  Mn119  1  0.24970115  0.50179005  0.12647755  1
  Mn  Mn120  1  0.74961332  0.16615705  0.37431043  1
  Mn  Mn121  1  0.25051292  0.66771862  0.87500080  1
  Mn  Mn122  1  0.00082425  0.00013537  0.00007400  1
  Mn  Mn123  1  0.24976635  0.33203727  0.87632902  1
  Mn  Mn124  1  0.75039854  0.00059820  0.62451639  1
  Mn  Mn125  1  0.00094091  0.16591359  0.25017318  1
  Mn  Mn126  1  0.74942468  0.83323604  0.37485426  1
  Mn  Mn127  1  0.74980347  0.83337772  0.87498381  1
  Mn  Mn128  1  0.00015763  0.33299416  0.24912794  1
  Mn  Mn129  1  0.00085314  0.83275907  0.00007548  1
  Mn  Mn130  1  0.75043139  0.49830793  0.37409477  1
  Mn  Mn131  1  0.74862018  0.50050212  0.12493267  1
  Mn  Mn132  1  0.75008541  0.66566229  0.37524386  1
  Mn  Mn133  1  -0.00049883  0.16675645  0.49938201  1
  Mn  Mn134  1  -0.00041759  0.50077045  0.24925975  1
  Mn  Mn135  1  0.00096836  0.16627777  0.74998357  1
  Mn  Mn136  1  0.49973385  0.66634328  -0.00037827  1
  Mn  Mn137  1  0.74924075  0.66471930  0.62555405  1
  Mn  Mn138  1  0.49952661  0.16708693  0.50085574  1
  Mn  Mn139  1  0.25031524  0.50021002  0.62544780  1
  Mn  Mn140  1  0.00043830  0.50097792  -0.00024799  1
  Mn  Mn141  1  0.75028276  0.00120206  0.87396254  1
  Mn  Mn142  1  0.00065573  0.83240842  0.50017523  1
  Mn  Mn143  1  0.49969415  0.49959248  0.25104885  1
  Fe  Fe144  1  0.24990401  0.33268386  0.62629843  1
  Fe  Fe145  1  0.74990107  0.49863845  0.62476752  1
  Fe  Fe146  1  0.25032521  0.16576680  0.62521474  1
  Fe  Fe147  1  0.25000559  0.00020057  0.37510878  1
  Fe  Fe148  1  0.50009679  0.83355274  -0.00097099  1
  Fe  Fe149  1  0.00012819  0.83299373  0.75001359  1
  Fe  Fe150  1  0.25035449  0.16660703  0.12562735  1
  Fe  Fe151  1  0.00021888  0.66712744  0.49995164  1
  Fe  Fe152  1  0.49942030  0.50001038  0.50056363  1
  Fe  Fe153  1  0.49956097  0.33436038  0.75017084  1
  Fe  Fe154  1  0.24992914  0.83346836  0.87484513  1
  Fe  Fe155  1  0.00022072  0.33348438  0.49973712  1
  Fe  Fe156  1  0.49960663  0.16674602  0.74987043  1
  Fe  Fe157  1  0.50004559  0.83383005  0.74961117  1
  Fe  Fe158  1  0.74960152  0.33227267  0.37540195  1
  Fe  Fe159  1  0.74931506  0.33373515  0.87380893  1
  Fe  Fe160  1  0.50018346  0.83329714  0.50092346  1
  Fe  Fe161  1  -0.00029184  0.33335012  -0.00044868  1
  Fe  Fe162  1  0.25120505  0.66832034  0.12513865  1
  Fe  Fe163  1  0.49980909  -0.00065373  -0.00097890  1
  Fe  Fe164  1  -0.00044595  -0.00055246  0.24930056  1
  Fe  Fe165  1  0.25104009  0.83398587  0.12572608  1
  Fe  Fe166  1  0.49996339  0.66637343  0.25073567  1
  Fe  Fe167  1  0.49983723  0.00016192  0.50061054  1
  Fe  Fe168  1  0.49941249  0.50066173  0.74945567  1
  Fe  Fe169  1  0.49996305  0.66710668  0.74988243  1
  Fe  Fe170  1  0.50035658  -0.00013551  0.74968195  1
  Fe  Fe171  1  0.74990493  0.16679964  0.62476885  1
  Fe  Fe172  1  0.49978281  0.33344695  0.50074104  1
  Fe  Fe173  1  0.49897858  0.33334511  0.25063034  1
  Fe  Fe174  1  0.25057185  0.83383676  0.37505573  1
  Fe  Fe175  1  -0.00008374  0.16621400  -0.00043712  1
  Fe  Fe176  1  0.74978362  0.66649844  0.12462165  1
  Fe  Fe177  1  0.00058952  0.66695244  0.24992705  1
  Fe  Fe178  1  0.25033790  0.16588982  0.87478050  1
  Fe  Fe179  1  0.74983131  0.50004745  0.87478964  1
  Fe  Fe180  1  0.74982956  -0.00025563  0.37484732  1
  Fe  Fe181  1  0.00031007  -0.00009529  0.74978607  1
  Fe  Fe182  1  0.49994226  0.66688649  0.50110452  1
  Fe  Fe183  1  0.74904862  0.16751030  0.87455769  1
  Fe  Fe184  1  0.25026783  0.66724830  0.62489328  1
  Fe  Fe185  1  0.00063869  0.66704738  0.75018172  1
  Fe  Fe186  1  0.49945919  0.50000173  -0.00019942  1
  Fe  Fe187  1  0.25082043  0.66818597  0.37461995  1
  Fe  Fe188  1  0.49962151  0.16663334  0.25025403  1
  Fe  Fe189  1  0.25064057  -0.00042656  0.62512018  1
  Fe  Fe190  1  0.00006635  0.66738320  0.00004448  1
  Fe  Fe191  1  0.00030821  0.83258540  0.24995402  1
  P  P192  1  0.04149085  0.24953767  0.10099134  1
  P  P193  1  0.04312800  0.25036744  0.35346802  1
  P  P194  1  0.04206605  0.25079518  0.60219492  1
  P  P195  1  0.04283479  0.24992750  0.85403673  1
  P  P196  1  0.04249620  0.58565569  0.10279713  1
  P  P197  1  0.04240666  0.58485486  0.35259474  1
  P  P198  1  0.04245497  0.58526596  0.60259252  1
  P  P199  1  0.04252047  0.58503701  0.85276138  1
  P  P200  1  0.04293706  0.91635467  0.10397869  1
  P  P201  1  0.04142070  0.91622268  0.35100301  1
  P  P202  1  0.04317321  0.91622822  0.60384995  1
  P  P203  1  0.04195664  0.91671743  0.85137102  1
  P  P204  1  0.54226497  0.24975343  0.10385960  1
  P  P205  1  0.54053879  0.25038946  0.35238800  1
  P  P206  1  0.54146538  0.25164619  0.60368557  1
  P  P207  1  0.54042457  0.25030473  0.85115323  1
  P  P208  1  0.54177445  0.58163238  0.10251643  1
  P  P209  1  0.54170410  0.58440995  0.35380322  1
  P  P210  1  0.54076499  0.58330319  0.60252939  1
  P  P211  1  0.54087085  0.58332070  0.85140220  1
  P  P212  1  0.54117940  0.91642876  0.10113515  1
  P  P213  1  0.54250244  0.91641900  0.35433906  1
  P  P214  1  0.54115120  0.91689059  0.60248185  1
  P  P215  1  0.54135801  0.91667801  0.85159742  1
  P  P216  1  0.45778570  0.08380685  0.14764160  1
  P  P217  1  0.45776161  0.08270196  0.39815199  1
  P  P218  1  0.45917795  0.08308157  0.64823286  1
  P  P219  1  0.45798030  0.08197530  0.89652698  1
  P  P220  1  0.45707738  0.41558204  0.14804159  1
  P  P221  1  0.45814376  0.41631688  0.39901200  1
  P  P222  1  0.45845817  0.41735710  0.64788866  1
  P  P223  1  0.45754661  0.41840779  0.89676416  1
  P  P224  1  0.45810398  0.74846550  0.14775082  1
  P  P225  1  0.45899017  0.74980256  0.39923683  1
  P  P226  1  0.45898456  0.75047936  0.64789987  1
  P  P227  1  0.45810860  0.75152798  0.89669603  1
  P  P228  1  0.95786806  0.08241775  0.14695159  1
  P  P229  1  0.95733995  0.08228463  0.39596072  1
  P  P230  1  0.95799355  0.08207266  0.64745847  1
  P  P231  1  0.95821965  0.08370093  0.89680601  1
  P  P232  1  0.95716802  0.41658551  0.14565581  1
  P  P233  1  0.95774627  0.41583221  0.39728801  1
  P  P234  1  0.95729102  0.41666049  0.64610528  1
  P  P235  1  0.95795039  0.41625578  0.89741494  1
  P  P236  1  0.95908437  0.74951297  0.14800219  1
  P  P237  1  0.95819155  0.74877821  0.39670216  1
  P  P238  1  0.95893216  0.74946300  0.64823297  1
  P  P239  1  0.95809276  0.74903818  0.89664481  1
  P  P240  1  0.20788345  0.08416880  0.22798516  1
  P  P241  1  0.20816844  0.08177012  0.47854343  1
  P  P242  1  0.20925582  0.08254549  0.72688768  1
  P  P243  1  0.20808860  0.08463811  0.97783380  1
  P  P244  1  0.20692491  0.41739569  0.22886295  1
  P  P245  1  0.20787398  0.41670454  0.47950874  1
  P  P246  1  0.20771450  0.41517114  0.72796822  1
  P  P247  1  0.20719634  0.41718770  0.97884822  1
  P  P248  1  0.20964860  0.75097501  0.22741289  1
  P  P249  1  0.20908750  0.75049324  0.47644689  1
  P  P250  1  0.20822547  0.74933446  0.72733754  1
  P  P251  1  0.20839454  0.75215288  0.97830340  1
  P  P252  1  0.70673817  0.08318203  0.22817332  1
  P  P253  1  0.70720851  0.08200908  0.47731777  1
  P  P254  1  0.70771548  0.08551828  0.72738494  1
  P  P255  1  0.70682269  0.08506456  0.97642060  1
  P  P256  1  0.70646279  0.41598289  0.22818746  1
  P  P257  1  0.70762158  0.41464681  0.47771318  1
  P  P258  1  0.70751241  0.41749561  0.72795363  1
  P  P259  1  0.70765031  0.41697384  0.97553665  1
  P  P260  1  0.70754825  0.74863497  0.22709159  1
  P  P261  1  0.70699977  0.74905485  0.47830245  1
  P  P262  1  0.70676574  0.74936600  0.72797283  1
  P  P263  1  0.70677804  0.74955868  0.97838509  1
  P  P264  1  0.29240772  0.24823927  0.02286490  1
  P  P265  1  0.29302070  0.24958759  0.27228303  1
  P  P266  1  0.29186771  0.24981224  0.52465991  1
  P  P267  1  0.29194097  0.24814355  0.77222223  1
  P  P268  1  0.29266304  0.58551759  0.02314036  1
  P  P269  1  0.29266154  0.58574896  0.27297979  1
  P  P270  1  0.29227492  0.58555100  0.52253707  1
  P  P271  1  0.29283270  0.58356985  0.77152532  1
  P  P272  1  0.29233087  0.91552703  0.02253979  1
  P  P273  1  0.29188361  0.91702151  0.27360235  1
  P  P274  1  0.29251417  0.91813123  0.52197190  1
  P  P275  1  0.29212661  0.91543933  0.77233637  1
  P  P276  1  0.79193817  0.25039106  0.02008483  1
  P  P277  1  0.79219350  0.25126402  0.27234606  1
  P  P278  1  0.79191722  0.24836103  0.52215541  1
  P  P279  1  0.79110572  0.24995103  0.77279062  1
  P  P280  1  0.79173072  0.58398621  0.02196303  1
  P  P281  1  0.79285158  0.58322080  0.27115975  1
  P  P282  1  0.79222151  0.58056907  0.52257506  1
  P  P283  1  0.79196673  0.58114835  0.77202940  1
  P  P284  1  0.79321240  0.91704205  0.02128536  1
  P  P285  1  0.79209902  0.91769337  0.27221485  1
  P  P286  1  0.79307569  0.91665751  0.52117068  1
  P  P287  1  0.79291866  0.91683947  0.77145215  1
  O  O288  1  0.03675994  0.24931796  0.18101932  1
  O  O289  1  0.03773429  0.25085973  0.43340093  1
  O  O290  1  0.03743490  0.25049552  0.68221382  1
  O  O291  1  0.03735690  0.24972006  0.93391248  1
  O  O292  1  0.03707765  0.58543322  0.18273559  1
  O  O293  1  0.03714129  0.58497043  0.43254194  1
  O  O294  1  0.03711696  0.58523579  0.68254966  1
  O  O295  1  0.03723182  0.58503612  0.93269974  1
  O  O296  1  0.03734873  0.91638054  0.18379121  1
  O  O297  1  0.03696947  0.91573513  0.43101754  1
  O  O298  1  0.03795533  0.91636291  0.68371880  1
  O  O299  1  0.03731238  0.91636322  0.93139431  1
  O  O300  1  0.53663155  0.24967503  0.18371591  1
  O  O301  1  0.53554545  0.25070742  0.43238908  1
  O  O302  1  0.53607162  0.25127081  0.68349482  1
  O  O303  1  0.53619531  0.25007012  0.93113255  1
  O  O304  1  0.53680390  0.58185854  0.18241051  1
  O  O305  1  0.53629240  0.58454374  0.43362850  1
  O  O306  1  0.53558243  0.58288336  0.68238881  1
  O  O307  1  0.53606909  0.58311691  0.93133662  1
  O  O308  1  0.53664581  0.91594625  0.18112891  1
  O  O309  1  0.53732057  0.91670697  0.43419165  1
  O  O310  1  0.53609557  0.91634095  0.68236867  1
  O  O311  1  0.53642513  0.91715078  0.93147628  1
  O  O312  1  0.46271774  0.08344400  0.06771970  1
  O  O313  1  0.46298884  0.08339206  0.31825224  1
  O  O314  1  0.46370106  0.08292482  0.56826988  1
  O  O315  1  0.46347681  0.08239279  0.81668352  1
  O  O316  1  0.46216419  0.41628600  0.06812812  1
  O  O317  1  0.46298876  0.41598384  0.31905057  1
  O  O318  1  0.46331582  0.41663853  0.56800119  1
  O  O319  1  0.46293195  0.41846191  0.81689429  1
  O  O320  1  0.46300084  0.74882398  0.06788755  1
  O  O321  1  0.46380589  0.74959786  0.31928732  1
  O  O322  1  0.46420269  0.74997552  0.56804512  1
  O  O323  1  0.46331533  0.75167515  0.81687755  1
  O  O324  1  0.96326916  0.08325300  0.06699549  1
  O  O325  1  0.96265037  0.08200864  0.31603567  1
  O  O326  1  0.96289366  0.08241261  0.56749062  1
  O  O327  1  0.96371479  0.08296631  0.81689491  1
  O  O328  1  0.96266297  0.41630011  0.06573755  1
  O  O329  1  0.96243549  0.41604858  0.31728998  1
  O  O330  1  0.96273373  0.41614846  0.56618211  1
  O  O331  1  0.96287972  0.41666783  0.81744121  1
  O  O332  1  0.96370335  0.74956477  0.06801746  1
  O  O333  1  0.96352586  0.74908183  0.31683203  1
  O  O334  1  0.96357886  0.74940196  0.56822120  1
  O  O335  1  0.96351772  0.74936123  0.81678994  1
  O  O336  1  0.21327075  0.08479625  0.05776019  1
  O  O337  1  0.21312157  0.08325450  0.30792502  1
  O  O338  1  0.21364230  0.08166496  0.55841787  1
  O  O339  1  0.21391896  0.08307155  0.80687657  1
  O  O340  1  0.21217026  0.41749456  0.05882739  1
  O  O341  1  0.21209330  0.41742985  0.30885837  1
  O  O342  1  0.21328838  0.41609373  0.55946179  1
  O  O343  1  0.21285429  0.41531176  0.80796063  1
  O  O344  1  0.21415533  0.75200292  0.05814071  1
  O  O345  1  0.21485680  0.75076745  0.30729770  1
  O  O346  1  0.21378032  0.75027845  0.55642149  1
  O  O347  1  0.21311808  0.75000145  0.80724881  1
  O  O348  1  0.71166973  0.08467295  0.05643083  1
  O  O349  1  0.71198637  0.08232373  0.30812323  1
  O  O350  1  0.71266425  0.08284820  0.55722018  1
  O  O351  1  0.71277706  0.08594637  0.80734291  1
  O  O352  1  0.71233994  0.41707700  0.05554234  1
  O  O353  1  0.71175859  0.41518366  0.30812096  1
  O  O354  1  0.71288359  0.41521050  0.55766664  1
  O  O355  1  0.71284030  0.41747759  0.80781782  1
  O  O356  1  0.71215974  0.74903472  0.05834670  1
  O  O357  1  0.71257213  0.74897200  0.30710032  1
  O  O358  1  0.71207152  0.74891194  0.55825065  1
  O  O359  1  0.71166952  0.74940828  0.80797181  1
  O  O360  1  0.28760595  0.24913866  0.19236783  1
  O  O361  1  0.28748314  0.24977080  0.44462504  1
  O  O362  1  0.28638930  0.24873998  0.69236565  1
  O  O363  1  0.28713409  0.24812979  0.94286398  1
  O  O364  1  0.28749932  0.58582535  0.19302131  1
  O  O365  1  0.28693710  0.58595087  0.44258864  1
  O  O366  1  0.28746321  0.58388812  0.69159439  1
  O  O367  1  0.28744199  0.58512457  0.94316959  1
  O  O368  1  0.28707404  0.91640613  0.19361498  1
  O  O369  1  0.28743302  0.91826013  0.44210851  1
  O  O370  1  0.28704951  0.91619299  0.69240848  1
  O  O371  1  0.28694341  0.91538829  0.94262041  1
  O  O372  1  0.78714101  0.25120367  0.19236312  1
  O  O373  1  0.78685811  0.24914321  0.44222594  1
  O  O374  1  0.78628634  0.24939517  0.69277278  1
  O  O375  1  0.78635205  0.25020922  0.94017313  1
  O  O376  1  0.78735110  0.58402265  0.19123384  1
  O  O377  1  0.78734397  0.58100398  0.44259409  1
  O  O378  1  0.78692505  0.58077112  0.69207996  1
  O  O379  1  0.78655924  0.58322847  0.94198305  1
  O  O380  1  0.78702346  0.91734408  0.19222887  1
  O  O381  1  0.78762244  0.91710909  0.44121598  1
  O  O382  1  0.78791026  0.91686232  0.69148471  1
  O  O383  1  0.78828065  0.91701151  0.94129091  1
  O  O384  1  0.22812550  0.24817884  0.05855176  1
  O  O385  1  0.22877037  0.24966394  0.30772673  1
  O  O386  1  0.22754753  0.25011917  0.55989923  1
  O  O387  1  0.22790049  0.24785700  0.80856394  1
  O  O388  1  0.22840568  0.58636053  0.05874930  1
  O  O389  1  0.22830168  0.58591595  0.30839653  1
  O  O390  1  0.22807947  0.58523532  0.55833752  1
  O  O391  1  0.22857311  0.58379297  0.80698329  1
  O  O392  1  0.22821950  0.91548861  0.05849951  1
  O  O393  1  0.22768413  0.91734935  0.30944304  1
  O  O394  1  0.22833691  0.91821042  0.55786077  1
  O  O395  1  0.22788922  0.91534370  0.80811995  1
  O  O396  1  0.72768525  0.25039692  0.05577028  1
  O  O397  1  0.72778392  0.25118980  0.30770127  1
  O  O398  1  0.72757554  0.24813593  0.55765227  1
  O  O399  1  0.72681565  0.25047962  0.80842853  1
  O  O400  1  0.72740187  0.58499570  0.05753805  1
  O  O401  1  0.72853397  0.58248450  0.30650759  1
  O  O402  1  0.72775504  0.58031094  0.55778182  1
  O  O403  1  0.72753176  0.58112288  0.80731409  1
  O  O404  1  0.72862235  0.91664253  0.05584955  1
  O  O405  1  0.72777288  0.91811086  0.30771981  1
  O  O406  1  0.72870609  0.91666090  0.55641629  1
  O  O407  1  0.72839744  0.91715566  0.80620376  1
  O  O408  1  0.27216545  0.08477792  0.19226751  1
  O  O409  1  0.27234960  0.08114460  0.44250165  1
  O  O410  1  0.27345964  0.08212777  0.69118853  1
  O  O411  1  0.27232437  0.08424192  0.94204765  1
  O  O412  1  0.27136282  0.41733608  0.19394024  1
  O  O413  1  0.27215303  0.41742047  0.44406726  1
  O  O414  1  0.27205369  0.41512226  0.69258318  1
  O  O415  1  0.27163210  0.41667595  0.94387463  1
  O  O416  1  0.27370742  0.75090391  0.19105363  1
  O  O417  1  0.27339634  0.75069135  0.44098293  1
  O  O418  1  0.27256902  0.74877027  0.69184505  1
  O  O419  1  0.27246610  0.75261052  0.94193868  1
  O  O420  1  0.77109912  0.08359431  0.19290069  1
  O  O421  1  0.77141151  0.08163256  0.44142370  1
  O  O422  1  0.77205921  0.08545532  0.69193950  1
  O  O423  1  0.77134794  0.08550975  0.94149532  1
  O  O424  1  0.77078550  0.41694112  0.19291069  1
  O  O425  1  0.77188585  0.41388159  0.44196410  1
  O  O426  1  0.77167766  0.41748534  0.69192861  1
  O  O427  1  0.77196395  0.41639273  0.94006426  1
  O  O428  1  0.77194104  0.74827258  0.19175182  1
  O  O429  1  0.77142766  0.74953495  0.44337972  1
  O  O430  1  0.77130838  0.74879012  0.69332060  1
  O  O431  1  0.77112879  0.74923670  0.94314598  1
  O  O432  1  0.02214179  0.08144534  0.18279268  1
  O  O433  1  0.02169847  0.08308814  0.43133299  1
  O  O434  1  0.02245544  0.08155246  0.68279205  1
  O  O435  1  0.02242358  0.08468389  0.93282321  1
  O  O436  1  0.02144230  0.41710343  0.18129674  1
  O  O437  1  0.02212420  0.41621135  0.43265044  1
  O  O438  1  0.02158265  0.41709226  0.68164567  1
  O  O439  1  0.02221405  0.41621150  0.93299198  1
  O  O440  1  0.02331068  0.74939419  0.18383591  1
  O  O441  1  0.02248007  0.74820175  0.43273608  1
  O  O442  1  0.02315429  0.74933592  0.68402724  1
  O  O443  1  0.02230880  0.74835431  0.93280819  1
  O  O444  1  0.52203695  0.08427236  0.18343369  1
  O  O445  1  0.52195039  0.08250863  0.43414192  1
  O  O446  1  0.52331656  0.08332913  0.68398012  1
  O  O447  1  0.52208986  0.08131423  0.93287194  1
  O  O448  1  0.52132931  0.41511577  0.18390130  1
  O  O449  1  0.52229528  0.41583912  0.43505577  1
  O  O450  1  0.52249724  0.41798361  0.68417951  1
  O  O451  1  0.52171979  0.41840348  0.93301581  1
  O  O452  1  0.52244861  0.74797385  0.18352376  1
  O  O453  1  0.52307706  0.74940224  0.43533104  1
  O  O454  1  0.52290771  0.75097696  0.68447463  1
  O  O455  1  0.52218270  0.75104519  0.93296568  1
  O  O456  1  0.47814791  0.24972893  0.06773504  1
  O  O457  1  0.47650551  0.25029890  0.31610089  1
  O  O458  1  0.47727059  0.25184930  0.56757835  1
  O  O459  1  0.47620325  0.25034636  0.81568988  1
  O  O460  1  0.47747599  0.58165049  0.06668784  1
  O  O461  1  0.47762881  0.58460670  0.31736755  1
  O  O462  1  0.47679536  0.58394169  0.56604432  1
  O  O463  1  0.47675159  0.58327829  0.81535538  1
  O  O464  1  0.47697046  0.91701718  0.06531319  1
  O  O465  1  0.47828286  0.91608706  0.31853756  1
  O  O466  1  0.47714708  0.91743536  0.56605560  1
  O  O467  1  0.47728110  0.91621174  0.81528147  1
  O  O468  1  0.97730202  0.24934627  0.06507041  1
  O  O469  1  0.97879627  0.24968226  0.31804832  1
  O  O470  1  0.97765467  0.25082127  0.56698656  1
  O  O471  1  0.97856615  0.24954533  0.81831785  1
  O  O472  1  0.97827219  0.58559143  0.06679066  1
  O  O473  1  0.97814464  0.58524762  0.31673928  1
  O  O474  1  0.97821671  0.58533056  0.56665417  1
  O  O475  1  0.97820591  0.58532579  0.81699492  1
  O  O476  1  0.97884240  0.91643196  0.06788222  1
  O  O477  1  0.97719336  0.91656562  0.31536032  1
  O  O478  1  0.97890699  0.91583701  0.56814455  1
  O  O479  1  0.97777711  0.91731586  0.81554855  1
  O  O480  1  0.07186349  0.31363531  0.07319754  1
  O  O481  1  0.07408182  0.31364189  0.32471284  1
  O  O482  1  0.07243421  0.31456992  0.57378461  1
  O  O483  1  0.07375507  0.31348923  0.82574380  1
  O  O484  1  0.07338390  0.64901957  0.07429184  1
  O  O485  1  0.07371854  0.64790777  0.32379859  1
  O  O486  1  0.07345073  0.64851708  0.57391825  1
  O  O487  1  0.07377065  0.64814416  0.82407853  1
  O  O488  1  0.07436263  0.97961754  0.07559090  1
  O  O489  1  0.07240507  0.97980755  0.32310688  1
  O  O490  1  0.07412962  0.97958089  0.57506985  1
  O  O491  1  0.07320490  0.98025539  0.82365401  1
  O  O492  1  0.57335359  0.31319123  0.07531374  1
  O  O493  1  0.57153649  0.31382779  0.32395556  1
  O  O494  1  0.57247788  0.31495983  0.57497723  1
  O  O495  1  0.57100797  0.31420389  0.82312300  1
  O  O496  1  0.57296867  0.64499369  0.07426402  1
  O  O497  1  0.57263216  0.64764632  0.32459706  1
  O  O498  1  0.57238557  0.64664807  0.57470025  1
  O  O499  1  0.57118158  0.64745404  0.82326161  1
  O  O500  1  0.57227630  0.97998215  0.07319705  1
  O  O501  1  0.57346223  0.97972318  0.32542637  1
  O  O502  1  0.57246171  0.98039606  0.57453286  1
  O  O503  1  0.57184139  0.98040568  0.82257273  1
  O  O504  1  0.42680041  0.02013112  0.17563140  1
  O  O505  1  0.42719888  0.01898147  0.42645885  1
  O  O506  1  0.42831061  0.01957460  0.67674520  1
  O  O507  1  0.42683716  0.01863547  0.92510916  1
  O  O508  1  0.42629906  0.35197794  0.17635768  1
  O  O509  1  0.42657175  0.35331649  0.42761806  1
  O  O510  1  0.42817000  0.35363158  0.67721075  1
  O  O511  1  0.42640507  0.35473294  0.92464252  1
  O  O512  1  0.42751559  0.68495924  0.17662080  1
  O  O513  1  0.42748140  0.68674172  0.42773672  1
  O  O514  1  0.42855436  0.68667355  0.67674039  1
  O  O515  1  0.42649752  0.68816440  0.92452793  1
  O  O516  1  0.92682461  0.01884110  0.17496969  1
  O  O517  1  0.92661033  0.01882224  0.42445870  1
  O  O518  1  0.92711372  0.01867528  0.67592699  1
  O  O519  1  0.92741389  0.02004729  0.92490273  1
  O  O520  1  0.92610729  0.35316774  0.17393180  1
  O  O521  1  0.92760177  0.35203006  0.42601708  1
  O  O522  1  0.92605022  0.35346644  0.67467514  1
  O  O523  1  0.92741883  0.35244844  0.92546547  1
  O  O524  1  0.92789077  0.68622684  0.17633958  1
  O  O525  1  0.92696241  0.68562630  0.42557323  1
  O  O526  1  0.92763395  0.68616720  0.67651503  1
  O  O527  1  0.92678585  0.68590329  0.92538825  1
  O  O528  1  0.17710009  0.02065223  0.19945719  1
  O  O529  1  0.17679259  0.01886458  0.44934111  1
  O  O530  1  0.17824712  0.01890528  0.69899025  1
  O  O531  1  0.17701575  0.02075550  0.95034207  1
  O  O532  1  0.17591253  0.35393997  0.20064075  1
  O  O533  1  0.17693195  0.35339387  0.45092236  1
  O  O534  1  0.17700283  0.35159584  0.69964770  1
  O  O535  1  0.17607286  0.35366927  0.95106057  1
  O  O536  1  0.17871959  0.68753380  0.19871296  1
  O  O537  1  0.17806813  0.68721480  0.44780646  1
  O  O538  1  0.17752587  0.68574630  0.69889904  1
  O  O539  1  0.17743039  0.68847743  0.95025934  1
  O  O540  1  0.67553577  0.02012313  0.19922667  1
  O  O541  1  0.67651312  0.01835972  0.44917320  1
  O  O542  1  0.67687675  0.02158229  0.69992066  1
  O  O543  1  0.67623167  0.02125631  0.94831862  1
  O  O544  1  0.67564070  0.35278299  0.19920964  1
  O  O545  1  0.67674585  0.35102620  0.44959008  1
  O  O546  1  0.67638716  0.35387256  0.70001863  1
  O  O547  1  0.67645950  0.35359483  0.94731165  1
  O  O548  1  0.67671639  0.68516745  0.19877253  1
  O  O549  1  0.67631161  0.68535162  0.45031310  1
  O  O550  1  0.67551297  0.68594344  0.70005977  1
  O  O551  1  0.67505825  0.68665550  0.94981664  1
  O  O552  1  0.32322521  0.31220951  0.05038743  1
  O  O553  1  0.32393376  0.31331238  0.30013933  1
  O  O554  1  0.32286177  0.31322330  0.55306032  1
  O  O555  1  0.32313671  0.31156208  0.80055881  1
  O  O556  1  0.32385071  0.64893812  0.05115756  1
  O  O557  1  0.32375512  0.64896972  0.30161117  1
  O  O558  1  0.32299225  0.64893481  0.55139104  1
  O  O559  1  0.32434075  0.64665668  0.79983045  1
  O  O560  1  0.32311954  0.97949945  0.05008676  1
  O  O561  1  0.32268304  0.98082666  0.30135770  1
  O  O562  1  0.32357083  0.98112716  0.55140302  1
  O  O563  1  0.32338906  0.97868484  0.80076504  1
  O  O564  1  0.82309074  0.31389038  0.04815532  1
  O  O565  1  0.82278088  0.31470649  0.30109088  1
  O  O566  1  0.82313457  0.31153820  0.55080246  1
  O  O567  1  0.82186651  0.31386836  0.80051723  1
  O  O568  1  0.82281197  0.64742279  0.05020015  1
  O  O569  1  0.82382820  0.64640270  0.30006466  1
  O  O570  1  0.82299039  0.64429658  0.55063060  1
  O  O571  1  0.82271987  0.64505972  0.79967806  1
  O  O572  1  0.82384823  0.98075556  0.04927949  1
  O  O573  1  0.82297771  0.98109992  0.30054953  1
  O  O574  1  0.82442868  0.97976645  0.54971718  1
  O  O575  1  0.82396815  0.98036058  0.79940792  1
  O  O576  1  0.42702976  0.14727715  0.17640893  1
  O  O577  1  0.42640181  0.14605419  0.42638478  1
  O  O578  1  0.42844676  0.14692519  0.67639051  1
  O  O579  1  0.42707815  0.14564114  0.92467947  1
  O  O580  1  0.42597991  0.47900048  0.17644601  1
  O  O581  1  0.42818617  0.48072254  0.42697700  1
  O  O582  1  0.42689056  0.48076945  0.67564894  1
  O  O583  1  0.42671999  0.48179185  0.92571473  1
  O  O584  1  0.42724695  0.81213641  0.17595260  1
  O  O585  1  0.42881007  0.81398867  0.42746226  1
  O  O586  1  0.42745226  0.81390547  0.67570172  1
  O  O587  1  0.42774124  0.81511877  0.92598197  1
  O  O588  1  0.92696108  0.14600051  0.17514145  1
  O  O589  1  0.92585824  0.14568250  0.42389159  1
  O  O590  1  0.92728076  0.14590570  0.67532625  1
  O  O591  1  0.92700096  0.14712288  0.92494232  1
  O  O592  1  0.92601797  0.48018640  0.17356167  1
  O  O593  1  0.92635438  0.47932990  0.42495367  1
  O  O594  1  0.92624127  0.48035490  0.67387793  1
  O  O595  1  0.92670928  0.47978407  0.92519052  1
  O  O596  1  0.92868860  0.81348147  0.17644166  1
  O  O597  1  0.92738099  0.81249489  0.42496207  1
  O  O598  1  0.92863383  0.81349534  0.67664268  1
  O  O599  1  0.92737559  0.81286371  0.92481239  1
  O  O600  1  0.07247413  0.18589456  0.07307654  1
  O  O601  1  0.07448773  0.18678135  0.32577966  1
  O  O602  1  0.07324077  0.18717143  0.57451870  1
  O  O603  1  0.07439010  0.18681589  0.82532777  1
  O  O604  1  0.07362598  0.52192963  0.07516965  1
  O  O605  1  0.07301121  0.52080922  0.32499063  1
  O  O606  1  0.07344599  0.52145677  0.57499001  1
  O  O607  1  0.07322731  0.52109862  0.82493171  1
  O  O608  1  0.07411854  0.85297580  0.07551757  1
  O  O609  1  0.07180352  0.85224929  0.32271603  1
  O  O610  1  0.07448433  0.85289970  0.57532885  1
  O  O611  1  0.07203152  0.85264586  0.82301698  1
  O  O612  1  0.57370754  0.18655300  0.07538280  1
  O  O613  1  0.57115033  0.18633684  0.32464980  1
  O  O614  1  0.57253936  0.18807644  0.57537503  1
  O  O615  1  0.57114378  0.18663971  0.82275836  1
  O  O616  1  0.57221008  0.51791894  0.07381527  1
  O  O617  1  0.57283464  0.52066060  0.32611388  1
  O  O618  1  0.57104994  0.51944355  0.57358075  1
  O  O619  1  0.57218059  0.52013628  0.82291198  1
  O  O620  1  0.57135842  0.85243492  0.07257646  1
  O  O621  1  0.57389501  0.85308188  0.32596884  1
  O  O622  1  0.57163018  0.85305292  0.57376973  1
  O  O623  1  0.57276192  0.85332204  0.82346265  1
  O  O624  1  0.32347855  0.18495379  0.05155551  1
  O  O625  1  0.32437524  0.18644724  0.30100844  1
  O  O626  1  0.32212804  0.18565153  0.55282729  1
  O  O627  1  0.32290862  0.18452074  0.80053269  1
  O  O628  1  0.32327703  0.52166026  0.05119084  1
  O  O629  1  0.32348505  0.52190237  0.30105214  1
  O  O630  1  0.32352215  0.52177675  0.54995366  1
  O  O631  1  0.32353518  0.51970998  0.79951616  1
  O  O632  1  0.32361008  0.85252579  0.05158903  1
  O  O633  1  0.32262770  0.85343650  0.30248113  1
  O  O634  1  0.32350711  0.85430281  0.54993179  1
  O  O635  1  0.32264122  0.85158863  0.80053765  1
  O  O636  1  0.82318147  0.18716128  0.04897293  1
  O  O637  1  0.82329064  0.18752440  0.30001482  1
  O  O638  1  0.82255218  0.18454287  0.55039571  1
  O  O639  1  0.82193131  0.18648167  0.80150566  1
  O  O640  1  0.82241982  0.52022407  0.05014333  1
  O  O641  1  0.82418845  0.51958049  0.29877413  1
  O  O642  1  0.82295116  0.51695543  0.55085972  1
  O  O643  1  0.82303549  0.51806239  0.80128014  1
  O  O644  1  0.82447988  0.85369814  0.04968591  1
  O  O645  1  0.82281641  0.85369607  0.29989245  1
  O  O646  1  0.82404653  0.85286756  0.54907736  1
  O  O647  1  0.82373667  0.85320439  0.79959435  1
  O  O648  1  0.17692936  0.14779546  0.19991710  1
  O  O649  1  0.17746379  0.14580667  0.45078871  1
  O  O650  1  0.17870226  0.14625633  0.69796534  1
  O  O651  1  0.17730606  0.14781414  0.94860495  1
  O  O652  1  0.17587759  0.48098011  0.20083708  1
  O  O653  1  0.17649041  0.48034517  0.45184552  1
  O  O654  1  0.17659782  0.47888061  0.70027624  1
  O  O655  1  0.17641696  0.48078342  0.95040724  1
  O  O656  1  0.17870871  0.81473085  0.19928856  1
  O  O657  1  0.17854113  0.81445821  0.44809778  1
  O  O658  1  0.17731311  0.81282826  0.69880487  1
  O  O659  1  0.17709299  0.81535928  0.94941630  1
  O  O660  1  0.67582899  0.14710670  0.20065523  1
  O  O661  1  0.67589955  0.14550086  0.44918441  1
  O  O662  1  0.67676618  0.14873762  0.69828943  1
  O  O663  1  0.67578952  0.14847266  0.94792542  1
  O  O664  1  0.67504422  0.47958079  0.20040716  1
  O  O665  1  0.67669089  0.47823290  0.44951364  1
  O  O666  1  0.67654576  0.48073367  0.69876033  1
  O  O667  1  0.67735003  0.48106092  0.94749636  1
  O  O668  1  0.67663121  0.81248138  0.19930678  1
  O  O669  1  0.67569575  0.81242699  0.45017495  1
  O  O670  1  0.67612130  0.81302799  0.69966892  1
  O  O671  1  0.67618067  0.81353457  0.95049078  1
