# generated using pymatgen
data_Na2MnFe(PO4)2
_symmetry_space_group_name_H-M   'P 1'
_cell_length_a   22.34241285
_cell_length_b   20.09473455
_cell_length_c   19.45110090
_cell_angle_alpha   89.98390084
_cell_angle_beta   90.00361739
_cell_angle_gamma   90.04386138
_symmetry_Int_Tables_number   1
_chemical_formula_structural   Na2MnFe(PO4)2
_chemical_formula_sum   'Na96 Mn48 Fe48 P96 O384'
_cell_volume   8732.85778114
_cell_formula_units_Z   48
loop_
 _symmetry_equiv_pos_site_id
 _symmetry_equiv_pos_as_xyz
  1  'x, y, z'
loop_
 _atom_site_type_symbol
 _atom_site_label
 _atom_site_symmetry_multiplicity
 _atom_site_fract_x
 _atom_site_fract_y
 _atom_site_fract_z
 _atom_site_occupancy
  Na  Na0  1  0.14032627  0.25080119  0.24406461  1
  Na  Na1  1  0.14036325  0.25133898  0.49478226  1
  Na  Na2  1  0.14015492  0.25000096  0.74393812  1
  Na  Na3  1  0.13983602  0.25127726  0.99220856  1
  Na  Na4  1  0.14110865  0.58501416  0.24529433  1
  Na  Na5  1  0.14125408  0.58480619  0.49486368  1
  Na  Na6  1  0.14129459  0.58414613  0.74387139  1
  Na  Na7  1  0.14119092  0.58507086  0.99396164  1
  Na  Na8  1  0.14002349  0.91658199  0.24421686  1
  Na  Na9  1  0.14058274  0.91617843  0.49454519  1
  Na  Na10  1  0.14130369  0.91569347  0.74385788  1
  Na  Na11  1  0.14074529  0.91716530  0.99507985  1
  Na  Na12  1  0.63962636  0.24965596  0.24188155  1
  Na  Na13  1  0.63927274  0.25026267  0.49191756  1
  Na  Na14  1  0.63972088  0.24925796  0.74178896  1
  Na  Na15  1  0.63925189  0.25043629  0.99347040  1
  Na  Na16  1  0.63975800  0.58265208  0.24377414  1
  Na  Na17  1  0.64036304  0.58256527  0.49256132  1
  Na  Na18  1  0.64045118  0.58106309  0.74335068  1
  Na  Na19  1  0.64035430  0.58308748  0.99410252  1
  Na  Na20  1  0.63999383  0.91637502  0.24242675  1
  Na  Na21  1  0.64018711  0.91543367  0.49381381  1
  Na  Na22  1  0.64046665  0.91472635  0.74305954  1
  Na  Na23  1  0.63988228  0.91582711  0.99420824  1
  Na  Na24  1  0.35960562  0.08375504  0.00593587  1
  Na  Na25  1  0.35974580  0.08315394  0.25608559  1
  Na  Na26  1  0.35975218  0.08277943  0.50632065  1
  Na  Na27  1  0.35954370  0.08197660  0.75564424  1
  Na  Na28  1  0.36061622  0.41762030  0.00650016  1
  Na  Na29  1  0.36044502  0.41780672  0.25755112  1
  Na  Na30  1  0.36035574  0.41793515  0.50718017  1
  Na  Na31  1  0.36086016  0.41663797  0.75743894  1
  Na  Na32  1  0.36055101  0.75082268  0.00662262  1
  Na  Na33  1  0.36048855  0.74993538  0.25840483  1
  Na  Na34  1  0.36031120  0.75012683  0.50738350  1
  Na  Na35  1  0.36037101  0.74975115  0.75611109  1
  Na  Na36  1  0.85886732  0.08390986  0.00718256  1
  Na  Na37  1  0.85889761  0.08386688  0.25498068  1
  Na  Na38  1  0.85854015  0.08420573  0.50672476  1
  Na  Na39  1  0.85894634  0.08297330  0.75569753  1
  Na  Na40  1  0.85980622  0.41606906  0.00570209  1
  Na  Na41  1  0.85901972  0.41675210  0.25627678  1
  Na  Na42  1  0.85907108  0.41596803  0.50599936  1
  Na  Na43  1  0.85936387  0.41510956  0.75558193  1
  Na  Na44  1  0.85934135  0.75116782  0.00590269  1
  Na  Na45  1  0.85936997  0.75060757  0.25648231  1
  Na  Na46  1  0.85940784  0.74999678  0.50573039  1
  Na  Na47  1  0.85945877  0.74826427  0.75639073  1
  Na  Na48  1  0.10922777  0.08402739  0.11869259  1
  Na  Na49  1  0.10908519  0.08299896  0.36963783  1
  Na  Na50  1  0.10945920  0.08451696  0.61963657  1
  Na  Na51  1  0.10957571  0.08551653  0.86880391  1
  Na  Na52  1  0.10974072  0.41662900  0.11873195  1
  Na  Na53  1  0.11010202  0.41707938  0.37001884  1
  Na  Na54  1  0.11019756  0.41724507  0.61981069  1
  Na  Na55  1  0.10974059  0.41693444  0.86833154  1
  Na  Na56  1  0.11034219  0.75174933  0.12020754  1
  Na  Na57  1  0.11030069  0.75147394  0.36850222  1
  Na  Na58  1  0.11034008  0.74982868  0.61899275  1
  Na  Na59  1  0.11024090  0.75089428  0.86864668  1
  Na  Na60  1  0.60908948  0.08353301  0.11732756  1
  Na  Na61  1  0.60906677  0.08337250  0.36779843  1
  Na  Na62  1  0.60949477  0.08319308  0.61686900  1
  Na  Na63  1  0.60915854  0.08358110  0.86850422  1
  Na  Na64  1  0.60937010  0.41520531  0.11880480  1
  Na  Na65  1  0.60935943  0.41517334  0.36672191  1
  Na  Na66  1  0.60948862  0.41549591  0.61748075  1
  Na  Na67  1  0.60960112  0.41632862  0.86850975  1
  Na  Na68  1  0.60966059  0.74867758  0.11915675  1
  Na  Na69  1  0.60940732  0.74837330  0.36829494  1
  Na  Na70  1  0.60973012  0.74896975  0.61837641  1
  Na  Na71  1  0.60996310  0.74955986  0.86856759  1
  Na  Na72  1  0.39062064  0.25055166  0.13039795  1
  Na  Na73  1  0.39095694  0.24980279  0.38066973  1
  Na  Na74  1  0.39098115  0.25085552  0.63106728  1
  Na  Na75  1  0.39113731  0.25104131  0.88171171  1
  Na  Na76  1  0.39149660  0.58257451  0.13288568  1
  Na  Na77  1  0.39048406  0.58316088  0.38315689  1
  Na  Na78  1  0.39061851  0.58358115  0.63259751  1
  Na  Na79  1  0.39093163  0.58250649  0.88177113  1
  Na  Na80  1  0.39058854  0.91513222  0.13211910  1
  Na  Na81  1  0.39058127  0.91519308  0.38222534  1
  Na  Na82  1  0.39015466  0.91593102  0.63130713  1
  Na  Na83  1  0.39053464  0.91608183  0.88106610  1
  Na  Na84  1  0.88967590  0.24983736  0.13065782  1
  Na  Na85  1  0.88935260  0.25030860  0.38096899  1
  Na  Na86  1  0.88957414  0.25047030  0.63112903  1
  Na  Na87  1  0.88994879  0.25030934  0.88026058  1
  Na  Na88  1  0.89065273  0.58386699  0.13107615  1
  Na  Na89  1  0.88974638  0.58276822  0.38169669  1
  Na  Na90  1  0.88995497  0.58272000  0.63096633  1
  Na  Na91  1  0.89060153  0.58267664  0.88029739  1
  Na  Na92  1  0.88963572  0.91722466  0.13163691  1
  Na  Na93  1  0.88986837  0.91720314  0.37983937  1
  Na  Na94  1  0.89010859  0.91706905  0.63202686  1
  Na  Na95  1  0.88987266  0.91755125  0.88141670  1
  Mn  Mn96  1  0.00101970  0.49981703  -0.00029889  1
  Mn  Mn97  1  0.74993205  0.49907800  0.62355836  1
  Mn  Mn98  1  -0.00075895  0.16801263  0.49963543  1
  Mn  Mn99  1  0.50017712  0.66561783  0.00052849  1
  Mn  Mn100  1  0.25035019  0.33400030  0.87467788  1
  Mn  Mn101  1  0.00015898  0.83329401  0.75071747  1
  Mn  Mn102  1  -0.00011124  0.33303172  0.24962944  1
  Mn  Mn103  1  0.00010480  0.66743587  0.00053689  1
  Mn  Mn104  1  -0.00061463  0.00057470  0.50028370  1
  Mn  Mn105  1  0.50068479  0.66667073  0.75087738  1
  Mn  Mn106  1  0.25084032  0.66736261  0.87497647  1
  Mn  Mn107  1  0.74998780  0.83197540  0.62446846  1
  Mn  Mn108  1  0.74913646  0.00029709  0.37442363  1
  Mn  Mn109  1  0.49972828  0.16755598  0.74880299  1
  Mn  Mn110  1  0.75059571  0.49950066  0.12495203  1
  Mn  Mn111  1  0.24983202  0.16717906  0.12525263  1
  Mn  Mn112  1  0.25048586  0.50161997  0.12592384  1
  Mn  Mn113  1  -0.00016092  0.66664551  0.49971829  1
  Mn  Mn114  1  0.74852328  0.16737951  0.37460021  1
  Mn  Mn115  1  0.74891428  -0.00116231  0.87520747  1
  Mn  Mn116  1  -0.00028984  0.83427828  -0.00007962  1
  Mn  Mn117  1  0.25063025  0.16601842  0.62496948  1
  Mn  Mn118  1  0.25032526  -0.00055456  0.87541718  1
  Mn  Mn119  1  0.00053042  0.49910495  0.50107658  1
  Mn  Mn120  1  0.00036862  0.16642453  0.25060456  1
  Mn  Mn121  1  0.49983986  -0.00062400  -0.00009698  1
  Mn  Mn122  1  0.74921472  0.16612127  0.87453559  1
  Mn  Mn123  1  -0.00013235  0.49998232  0.75014950  1
  Mn  Mn124  1  0.25141835  0.66855359  0.12521770  1
  Mn  Mn125  1  0.75074847  0.66706022  0.12414186  1
  Mn  Mn126  1  0.24948804  -0.00088537  0.37572926  1
  Mn  Mn127  1  -0.00032949  0.49982665  0.25002155  1
  Mn  Mn128  1  0.24989877  -0.00048870  0.12565158  1
  Mn  Mn129  1  0.50004987  -0.00071077  0.49911206  1
  Mn  Mn130  1  0.25105502  0.33441620  0.62533480  1
  Mn  Mn131  1  0.00047081  0.00175650  0.75097648  1
  Mn  Mn132  1  0.50006190  -0.00064721  0.74911594  1
  Mn  Mn133  1  -0.00010071  0.83370511  0.50032021  1
  Mn  Mn134  1  0.00026614  0.66763901  0.25059434  1
  Mn  Mn135  1  0.50013506  0.49935197  0.50037798  1
  Mn  Mn136  1  0.75014803  0.83289199  0.37488958  1
  Mn  Mn137  1  0.00020180  0.00159445  0.00034842  1
  Mn  Mn138  1  0.75005211  0.66582808  0.87500628  1
  Mn  Mn139  1  0.74996575  0.33312630  0.87415076  1
  Mn  Mn140  1  0.24961868  0.16683812  0.37556189  1
  Mn  Mn141  1  0.49969382  -0.00045433  0.24976212  1
  Mn  Mn142  1  0.25007424  0.33462419  0.12480482  1
  Mn  Mn143  1  0.25077217  0.33499643  0.37528764  1
  Fe  Fe144  1  0.25073091  0.66703617  0.62522460  1
  Fe  Fe145  1  -0.00083180  0.00054770  0.24957032  1
  Fe  Fe146  1  0.49993309  0.33240750  0.24899830  1
  Fe  Fe147  1  0.00013920  0.66674546  0.75004947  1
  Fe  Fe148  1  0.50049151  0.83241352  0.50014544  1
  Fe  Fe149  1  0.50036704  0.83208650  0.25078610  1
  Fe  Fe150  1  0.74964684  -0.00099345  0.62492856  1
  Fe  Fe151  1  -0.00068059  0.16766127  -0.00043110  1
  Fe  Fe152  1  0.50089597  0.49897636  0.00104766  1
  Fe  Fe153  1  0.74961153  0.66646201  0.37452854  1
  Fe  Fe154  1  0.75005783  0.66535734  0.62478318  1
  Fe  Fe155  1  0.74916053  0.16706396  0.12491241  1
  Fe  Fe156  1  0.25010072  0.50155641  0.37633354  1
  Fe  Fe157  1  0.50041011  0.49946184  0.75063603  1
  Fe  Fe158  1  0.49997607  0.49904309  0.25060986  1
  Fe  Fe159  1  0.25069901  0.83346030  0.37609079  1
  Fe  Fe160  1  0.25074711  0.66761357  0.37642220  1
  Fe  Fe161  1  0.50010362  0.33262402  0.49830415  1
  Fe  Fe162  1  -0.00048574  0.33306087  -0.00070503  1
  Fe  Fe163  1  0.25072523  0.50092457  0.62553265  1
  Fe  Fe164  1  0.74995683  0.33303357  0.37447970  1
  Fe  Fe165  1  0.49940563  0.16683988  0.49858859  1
  Fe  Fe166  1  0.49991021  0.33345376  0.00030411  1
  Fe  Fe167  1  0.74905721  0.16619934  0.62416419  1
  Fe  Fe168  1  0.49969203  0.16685258  -0.00080383  1
  Fe  Fe169  1  0.74889292  0.33287159  0.62416853  1
  Fe  Fe170  1  0.50043551  0.66614616  0.50030338  1
  Fe  Fe171  1  0.49954332  0.16656058  0.24868208  1
  Fe  Fe172  1  0.25029264  0.16652828  0.87467854  1
  Fe  Fe173  1  0.74934833  -0.00008318  0.12440878  1
  Fe  Fe174  1  -0.00003434  0.33345546  0.50067008  1
  Fe  Fe175  1  0.50039097  0.83297660  0.75003077  1
  Fe  Fe176  1  0.75002257  0.83291610  0.87493412  1
  Fe  Fe177  1  0.24943838  -0.00084305  0.62574920  1
  Fe  Fe178  1  0.25063796  0.83320581  0.87467949  1
  Fe  Fe179  1  -0.00065366  0.83428266  0.24980040  1
  Fe  Fe180  1  0.74956987  0.49969461  0.37456964  1
  Fe  Fe181  1  0.50013137  0.83225015  0.00087348  1
  Fe  Fe182  1  0.74917711  0.33346994  0.12488406  1
  Fe  Fe183  1  0.75005070  0.49922218  0.87427804  1
  Fe  Fe184  1  0.74932617  0.83336591  0.12512666  1
  Fe  Fe185  1  -0.00062881  0.16804273  0.74991846  1
  Fe  Fe186  1  0.50060828  0.33389167  0.75038376  1
  Fe  Fe187  1  0.25103680  0.50082202  0.87509268  1
  Fe  Fe188  1  0.49980249  0.66572381  0.25070066  1
  Fe  Fe189  1  0.25029464  0.83272950  0.62494693  1
  Fe  Fe190  1  -0.00016392  0.33344868  0.75002289  1
  Fe  Fe191  1  0.25080759  0.83367554  0.12578614  1
  P  P192  1  0.04160770  0.25015322  0.10112176  1
  P  P193  1  0.04300273  0.25065037  0.35372082  1
  P  P194  1  0.04192443  0.25166282  0.60354842  1
  P  P195  1  0.04122045  0.25065548  0.85208312  1
  P  P196  1  0.04339219  0.58380099  0.10339419  1
  P  P197  1  0.04275338  0.58322628  0.35352395  1
  P  P198  1  0.04282985  0.58362843  0.60396119  1
  P  P199  1  0.04284281  0.58468905  0.85235927  1
  P  P200  1  0.04225457  0.91752949  0.10420103  1
  P  P201  1  0.04098738  0.91758738  0.35138617  1
  P  P202  1  0.04273534  0.91728215  0.60364261  1
  P  P203  1  0.04322567  0.91776308  0.85356288  1
  P  P204  1  0.54068970  0.24944857  0.10160007  1
  P  P205  1  0.54112737  0.24913158  0.35081994  1
  P  P206  1  0.54094298  0.25024334  0.60050227  1
  P  P207  1  0.54230307  0.25120485  0.85245592  1
  P  P208  1  0.54231516  0.58115780  0.10377197  1
  P  P209  1  0.54105159  0.58253065  0.35225951  1
  P  P210  1  0.54214789  0.58383417  0.60283880  1
  P  P211  1  0.54246192  0.58148107  0.85319559  1
  P  P212  1  0.54161909  0.91448173  0.10317875  1
  P  P213  1  0.54220075  0.91471148  0.35257386  1
  P  P214  1  0.54208761  0.91476963  0.60241015  1
  P  P215  1  0.54232915  0.91519669  0.85259861  1
  P  P216  1  0.45766437  0.08424020  0.14656546  1
  P  P217  1  0.45789814  0.08411681  0.39648243  1
  P  P218  1  0.45742009  0.08349246  0.64561241  1
  P  P219  1  0.45776105  0.08428865  0.89711126  1
  P  P220  1  0.45887714  0.41639228  0.14813007  1
  P  P221  1  0.45817187  0.41536452  0.39676746  1
  P  P222  1  0.45925454  0.41641209  0.64846504  1
  P  P223  1  0.45930426  0.41694032  0.89837947  1
  P  P224  1  0.45886795  0.74913313  0.14909040  1
  P  P225  1  0.45923394  0.74933690  0.39833672  1
  P  P226  1  0.45860080  0.75074330  0.64731655  1
  P  P227  1  0.45867970  0.75078704  0.89781737  1
  P  P228  1  0.95740546  0.08333610  0.14710431  1
  P  P229  1  0.95622186  0.08344174  0.39659817  1
  P  P230  1  0.95740207  0.08542784  0.64789734  1
  P  P231  1  0.95715257  0.08593580  0.89725273  1
  P  P232  1  0.95693087  0.41608012  0.14603559  1
  P  P233  1  0.95747411  0.41532357  0.39802135  1
  P  P234  1  0.95749556  0.41521539  0.64753035  1
  P  P235  1  0.95805889  0.41527674  0.89683504  1
  P  P236  1  0.95748834  0.75163690  0.14780903  1
  P  P237  1  0.95716843  0.75098839  0.39632808  1
  P  P238  1  0.95768317  0.74882368  0.64781550  1
  P  P239  1  0.95707739  0.74991417  0.89645277  1
  P  P240  1  0.20677760  0.08316451  0.22848420  1
  P  P241  1  0.20705851  0.08259509  0.47919475  1
  P  P242  1  0.20802836  0.08203234  0.72815983  1
  P  P243  1  0.20781854  0.08453103  0.97735684  1
  P  P244  1  0.20752012  0.41823211  0.22905264  1
  P  P245  1  0.20854108  0.41943818  0.47866773  1
  P  P246  1  0.20890973  0.41863801  0.72810392  1
  P  P247  1  0.20813068  0.41901335  0.97716336  1
  P  P248  1  0.20881896  0.75177324  0.22892510  1
  P  P249  1  0.20905444  0.75065998  0.47791971  1
  P  P250  1  0.20923767  0.75014422  0.72687370  1
  P  P251  1  0.20841624  0.75214744  0.97778124  1
  P  P252  1  0.70771112  0.08328509  0.22576656  1
  P  P253  1  0.70652269  0.08340143  0.47845545  1
  P  P254  1  0.70778505  0.08232812  0.72578995  1
  P  P255  1  0.70691843  0.08302692  0.97882745  1
  P  P256  1  0.70768294  0.41548321  0.22799243  1
  P  P257  1  0.70822895  0.41588155  0.47596762  1
  P  P258  1  0.70754005  0.41520302  0.72665253  1
  P  P259  1  0.70785959  0.41732289  0.97715679  1
  P  P260  1  0.70791459  0.75025186  0.22755598  1
  P  P261  1  0.70778701  0.74798756  0.47748376  1
  P  P262  1  0.70775282  0.74742831  0.72731417  1
  P  P263  1  0.70779128  0.75127941  0.97760641  1
  P  P264  1  0.29239647  0.25043208  0.02112671  1
  P  P265  1  0.29294560  0.25056155  0.27212116  1
  P  P266  1  0.29319641  0.25062196  0.52204710  1
  P  P267  1  0.29272768  0.24874305  0.77265321  1
  P  P268  1  0.29390678  0.58425200  0.02202193  1
  P  P269  1  0.29210236  0.58448542  0.27481197  1
  P  P270  1  0.29191826  0.58405847  0.52346543  1
  P  P271  1  0.29311888  0.58261329  0.77209393  1
  P  P272  1  0.29268669  0.91547227  0.02273581  1
  P  P273  1  0.29261511  0.91508892  0.27311135  1
  P  P274  1  0.29152787  0.91605873  0.52378054  1
  P  P275  1  0.29246176  0.91505994  0.77184971  1
  P  P276  1  0.79045530  0.25044236  0.02329322  1
  P  P277  1  0.79124340  0.25115350  0.27139362  1
  P  P278  1  0.79032063  0.25024043  0.52270533  1
  P  P279  1  0.79157973  0.24903846  0.77030779  1
  P  P280  1  0.79311225  0.58274445  0.02109783  1
  P  P281  1  0.79120155  0.58343292  0.27320887  1
  P  P282  1  0.79195472  0.58416581  0.52115420  1
  P  P283  1  0.79223015  0.58122989  0.77175687  1
  P  P284  1  0.79097374  0.91629918  0.02314098  1
  P  P285  1  0.79156713  0.91694918  0.27061186  1
  P  P286  1  0.79217986  0.91740062  0.52254675  1
  P  P287  1  0.79190383  0.91497674  0.77219917  1
  O  O288  1  0.03700683  0.24993215  0.18113737  1
  O  O289  1  0.03798223  0.25115510  0.43367038  1
  O  O290  1  0.03651054  0.25125578  0.68344587  1
  O  O291  1  0.03592147  0.25056889  0.93199251  1
  O  O292  1  0.03805061  0.58367034  0.18334424  1
  O  O293  1  0.03774068  0.58309895  0.43351005  1
  O  O294  1  0.03752241  0.58409436  0.68389521  1
  O  O295  1  0.03793968  0.58437200  0.93234811  1
  O  O296  1  0.03663680  0.91750142  0.18410493  1
  O  O297  1  0.03608857  0.91733168  0.43139399  1
  O  O298  1  0.03789552  0.91724302  0.68359320  1
  O  O299  1  0.03813877  0.91774712  0.93352347  1
  O  O300  1  0.53576190  0.24899317  0.18144866  1
  O  O301  1  0.53636423  0.24923448  0.43070043  1
  O  O302  1  0.53653671  0.25044233  0.68042337  1
  O  O303  1  0.53685878  0.25072205  0.93226204  1
  O  O304  1  0.53667877  0.58138967  0.18360486  1
  O  O305  1  0.53629777  0.58314944  0.43222811  1
  O  O306  1  0.53763535  0.58367843  0.68276913  1
  O  O307  1  0.53750183  0.58114675  0.93314440  1
  O  O308  1  0.53600509  0.91452624  0.18307680  1
  O  O309  1  0.53689296  0.91480703  0.43252181  1
  O  O310  1  0.53667342  0.91489224  0.68234209  1
  O  O311  1  0.53704823  0.91535649  0.93256833  1
  O  O312  1  0.46330209  0.08416803  0.06665172  1
  O  O313  1  0.46299833  0.08422293  0.31651050  1
  O  O314  1  0.46259482  0.08357116  0.56565597  1
  O  O315  1  0.46309332  0.08400320  0.81716258  1
  O  O316  1  0.46393350  0.41670108  0.06826443  1
  O  O317  1  0.46338533  0.41609154  0.31695975  1
  O  O318  1  0.46353619  0.41669979  0.56855278  1
  O  O319  1  0.46432757  0.41675133  0.81851741  1
  O  O320  1  0.46349628  0.74892362  0.06911127  1
  O  O321  1  0.46410263  0.74909205  0.31843630  1
  O  O322  1  0.46388431  0.75032199  0.56745146  1
  O  O323  1  0.46413967  0.75096627  0.81793849  1
  O  O324  1  0.96260782  0.08424797  0.06718082  1
  O  O325  1  0.96148959  0.08283185  0.31663626  1
  O  O326  1  0.96229447  0.08510438  0.56793250  1
  O  O327  1  0.96239990  0.08610358  0.81732080  1
  O  O328  1  0.96226497  0.41580724  0.06607248  1
  O  O329  1  0.96231096  0.41578053  0.31802413  1
  O  O330  1  0.96264180  0.41510075  0.56760229  1
  O  O331  1  0.96339668  0.41516295  0.81688847  1
  O  O332  1  0.96230844  0.75143670  0.06781934  1
  O  O333  1  0.96234477  0.75165997  0.31637174  1
  O  O334  1  0.96269511  0.74930507  0.56780617  1
  O  O335  1  0.96241272  0.74927859  0.81649007  1
  O  O336  1  0.21266172  0.08443873  0.05733954  1
  O  O337  1  0.21159825  0.08309066  0.30847716  1
  O  O338  1  0.21250397  0.08188610  0.55911388  1
  O  O339  1  0.21368535  0.08285055  0.80808522  1
  O  O340  1  0.21300927  0.41869783  0.05717065  1
  O  O341  1  0.21261343  0.41840819  0.30902938  1
  O  O342  1  0.21412673  0.41957747  0.55859077  1
  O  O343  1  0.21412149  0.41856675  0.80803141  1
  O  O344  1  0.21374754  0.75214487  0.05771549  1
  O  O345  1  0.21403369  0.75137634  0.30878670  1
  O  O346  1  0.21384268  0.75034364  0.55781054  1
  O  O347  1  0.21405674  0.75022608  0.80681348  1
  O  O348  1  0.71233273  0.08321617  0.05869376  1
  O  O349  1  0.71210225  0.08370573  0.30579495  1
  O  O350  1  0.71192790  0.08333397  0.55833152  1
  O  O351  1  0.71257602  0.08234694  0.80583466  1
  O  O352  1  0.71297946  0.41672304  0.05708243  1
  O  O353  1  0.71303854  0.41550026  0.30784833  1
  O  O354  1  0.71285124  0.41572313  0.55597335  1
  O  O355  1  0.71272734  0.41590816  0.80654376  1
  O  O356  1  0.71316164  0.75160418  0.05756124  1
  O  O357  1  0.71306247  0.74946527  0.30752265  1
  O  O358  1  0.71309246  0.74761355  0.55741756  1
  O  O359  1  0.71297897  0.74809037  0.80721166  1
  O  O360  1  0.28770949  0.25073558  0.19211782  1
  O  O361  1  0.28792017  0.25088189  0.44213299  1
  O  O362  1  0.28783276  0.24910236  0.69266889  1
  O  O363  1  0.28715865  0.24987851  0.94113824  1
  O  O364  1  0.28782528  0.58509544  0.19480084  1
  O  O365  1  0.28693776  0.58414972  0.44357618  1
  O  O366  1  0.28769885  0.58271147  0.69222800  1
  O  O367  1  0.28886368  0.58384024  0.94206901  1
  O  O368  1  0.28775606  0.91500460  0.19314325  1
  O  O369  1  0.28644416  0.91569552  0.44381637  1
  O  O370  1  0.28669874  0.91538917  0.69203347  1
  O  O371  1  0.28751643  0.91546439  0.94277599  1
  O  O372  1  0.78587942  0.25109840  0.19153987  1
  O  O373  1  0.78550114  0.25064641  0.44270095  1
  O  O374  1  0.78607085  0.24897086  0.69046491  1
  O  O375  1  0.78577435  0.24977636  0.94330991  1
  O  O376  1  0.78699264  0.58312379  0.19316211  1
  O  O377  1  0.78635724  0.58417602  0.44130535  1
  O  O378  1  0.78695109  0.58176339  0.69180120  1
  O  O379  1  0.78773430  0.58224898  0.94119816  1
  O  O380  1  0.78590745  0.91685151  0.19073659  1
  O  O381  1  0.78701753  0.91727648  0.44260293  1
  O  O382  1  0.78677631  0.91547732  0.69227587  1
  O  O383  1  0.78601159  0.91571288  0.94312461  1
  O  O384  1  0.22805937  0.25088604  0.05647464  1
  O  O385  1  0.22855646  0.25095347  0.30726907  1
  O  O386  1  0.22889675  0.25057931  0.55735047  1
  O  O387  1  0.22831467  0.24917009  0.80785674  1
  O  O388  1  0.22949327  0.58507162  0.05715339  1
  O  O389  1  0.22782597  0.58400356  0.31028412  1
  O  O390  1  0.22788569  0.58361321  0.55967281  1
  O  O391  1  0.22901164  0.58241331  0.80838212  1
  O  O392  1  0.22841552  0.91506679  0.05852794  1
  O  O393  1  0.22819799  0.91454365  0.30848387  1
  O  O394  1  0.22740658  0.91606472  0.55990035  1
  O  O395  1  0.22843672  0.91489797  0.80832001  1
  O  O396  1  0.72622562  0.25096168  0.05896872  1
  O  O397  1  0.72701425  0.25176933  0.30739156  1
  O  O398  1  0.72608949  0.24972370  0.55848939  1
  O  O399  1  0.72741482  0.24955827  0.80616631  1
  O  O400  1  0.72883523  0.58305156  0.05655617  1
  O  O401  1  0.72686874  0.58347841  0.30855461  1
  O  O402  1  0.72784529  0.58423000  0.55745637  1
  O  O403  1  0.72803067  0.58105514  0.80769632  1
  O  O404  1  0.72680442  0.91660251  0.05912355  1
  O  O405  1  0.72746349  0.91632087  0.30662920  1
  O  O406  1  0.72784561  0.91701043  0.55804784  1
  O  O407  1  0.72755699  0.91428699  0.80781216  1
  O  O408  1  0.27131755  0.08329143  0.19371977  1
  O  O409  1  0.27135518  0.08275983  0.44373989  1
  O  O410  1  0.27212085  0.08118733  0.69199624  1
  O  O411  1  0.27219911  0.08442522  0.94204627  1
  O  O412  1  0.27199980  0.41780120  0.19395487  1
  O  O413  1  0.27272732  0.41974532  0.44269692  1
  O  O414  1  0.27321273  0.41872089  0.69251758  1
  O  O415  1  0.27258243  0.41875415  0.94193215  1
  O  O416  1  0.27309577  0.75246979  0.19291745  1
  O  O417  1  0.27328603  0.75118745  0.44201030  1
  O  O418  1  0.27338995  0.75060394  0.69095440  1
  O  O419  1  0.27272728  0.75194577  0.94204174  1
  O  O420  1  0.77193902  0.08271920  0.19024577  1
  O  O421  1  0.77071679  0.08402353  0.44267221  1
  O  O422  1  0.77197921  0.08277929  0.69001936  1
  O  O423  1  0.77108539  0.08274656  0.94296585  1
  O  O424  1  0.77183122  0.41458936  0.19185515  1
  O  O425  1  0.77245107  0.41571807  0.44027240  1
  O  O426  1  0.77175386  0.41454870  0.69083353  1
  O  O427  1  0.77211911  0.41767398  0.94134442  1
  O  O428  1  0.77215861  0.75111852  0.19184600  1
  O  O429  1  0.77201433  0.74806859  0.44167704  1
  O  O430  1  0.77200491  0.74739455  0.69147316  1
  O  O431  1  0.77196033  0.75100204  0.94165231  1
  O  O432  1  0.02164286  0.08231166  0.18294679  1
  O  O433  1  0.02064514  0.08403843  0.43175499  1
  O  O434  1  0.02177734  0.08602448  0.68328834  1
  O  O435  1  0.02149913  0.08629809  0.93284376  1
  O  O436  1  0.02132561  0.41664653  0.18129215  1
  O  O437  1  0.02191481  0.41476764  0.43336546  1
  O  O438  1  0.02179672  0.41566566  0.68311870  1
  O  O439  1  0.02227636  0.41492049  0.93270120  1
  O  O440  1  0.02188307  0.75190942  0.18302498  1
  O  O441  1  0.02158802  0.75071349  0.43152201  1
  O  O442  1  0.02209845  0.74867300  0.68315061  1
  O  O443  1  0.02150439  0.75054046  0.93159281  1
  O  O444  1  0.52182556  0.08415357  0.18262384  1
  O  O445  1  0.52209415  0.08366597  0.43213900  1
  O  O446  1  0.52169692  0.08347798  0.68108826  1
  O  O447  1  0.52193854  0.08415760  0.93296191  1
  O  O448  1  0.52286408  0.41686659  0.18455956  1
  O  O449  1  0.52237214  0.41524749  0.43280563  1
  O  O450  1  0.52353307  0.41572684  0.68410062  1
  O  O451  1  0.52331919  0.41676896  0.93478604  1
  O  O452  1  0.52306258  0.74931289  0.18485092  1
  O  O453  1  0.52331944  0.74982303  0.43445458  1
  O  O454  1  0.52271380  0.75088088  0.68352836  1
  O  O455  1  0.52274368  0.75053841  0.93403911  1
  O  O456  1  0.47678024  0.24942692  0.06507922  1
  O  O457  1  0.47699945  0.24881148  0.31480508  1
  O  O458  1  0.47676166  0.25075549  0.56469530  1
  O  O459  1  0.47815271  0.25192475  0.81624232  1
  O  O460  1  0.47828748  0.58097777  0.06736379  1
  O  O461  1  0.47690390  0.58179415  0.31639556  1
  O  O462  1  0.47779807  0.58341611  0.56748962  1
  O  O463  1  0.47827857  0.58202682  0.81742465  1
  O  O464  1  0.47758855  0.91462720  0.06687397  1
  O  O465  1  0.47792736  0.91477437  0.31688862  1
  O  O466  1  0.47792575  0.91461980  0.56643631  1
  O  O467  1  0.47808663  0.91504265  0.81674469  1
  O  O468  1  0.97719621  0.25005177  0.06562765  1
  O  O469  1  0.97852989  0.25007497  0.31871865  1
  O  O470  1  0.97770034  0.25222997  0.56744288  1
  O  O471  1  0.97715065  0.25062291  0.81569049  1
  O  O472  1  0.97897325  0.58330727  0.06830395  1
  O  O473  1  0.97828320  0.58361105  0.31855888  1
  O  O474  1  0.97850402  0.58313124  0.56859933  1
  O  O475  1  0.97841607  0.58482960  0.81706326  1
  O  O476  1  0.97804536  0.91787687  0.06836480  1
  O  O477  1  0.97681257  0.91788994  0.31545783  1
  O  O478  1  0.97816247  0.91696613  0.56892106  1
  O  O479  1  0.97872687  0.91764124  0.81872173  1
  O  O480  1  0.07220373  0.31398030  0.07291026  1
  O  O481  1  0.07412141  0.31384704  0.32493955  1
  O  O482  1  0.07312909  0.31505396  0.57510609  1
  O  O483  1  0.07232486  0.31425120  0.82377882  1
  O  O484  1  0.07415418  0.64764558  0.07564523  1
  O  O485  1  0.07400741  0.64675170  0.32568222  1
  O  O486  1  0.07399726  0.64685236  0.57530986  1
  O  O487  1  0.07354159  0.64829265  0.82394749  1
  O  O488  1  0.07376985  0.98079385  0.07584633  1
  O  O489  1  0.07199268  0.98122515  0.32343762  1
  O  O490  1  0.07338905  0.98090492  0.57527616  1
  O  O491  1  0.07412359  0.98142914  0.82568097  1
  O  O492  1  0.57130838  0.31350447  0.07359135  1
  O  O493  1  0.57146246  0.31305466  0.32195123  1
  O  O494  1  0.57226213  0.31348431  0.57179084  1
  O  O495  1  0.57351312  0.31450457  0.82377939  1
  O  O496  1  0.57345195  0.64478398  0.07554494  1
  O  O497  1  0.57137388  0.64633271  0.32336641  1
  O  O498  1  0.57218771  0.64765131  0.57368018  1
  O  O499  1  0.57390084  0.64513463  0.82575292  1
  O  O500  1  0.57281123  0.97820702  0.07562139  1
  O  O501  1  0.57323656  0.97845394  0.32464052  1
  O  O502  1  0.57308161  0.97852251  0.57458331  1
  O  O503  1  0.57323814  0.97904620  0.82467302  1
  O  O504  1  0.42656117  0.02045174  0.17426373  1
  O  O505  1  0.42642389  0.02053733  0.42409843  1
  O  O506  1  0.42648585  0.01987199  0.67385854  1
  O  O507  1  0.42641523  0.02074001  0.92486544  1
  O  O508  1  0.42862593  0.35213786  0.17619969  1
  O  O509  1  0.42750286  0.35162380  0.42512265  1
  O  O510  1  0.42779824  0.35322067  0.67692851  1
  O  O511  1  0.42841617  0.35330299  0.92708204  1
  O  O512  1  0.42851472  0.68514052  0.17772461  1
  O  O513  1  0.42894004  0.68541344  0.42729323  1
  O  O514  1  0.42747239  0.68723087  0.67572764  1
  O  O515  1  0.42758530  0.68688416  0.92521297  1
  O  O516  1  0.92626225  0.01982389  0.17516495  1
  O  O517  1  0.92520563  0.02019915  0.42547353  1
  O  O518  1  0.92675017  0.02158692  0.67594347  1
  O  O519  1  0.92647880  0.02192808  0.92499644  1
  O  O520  1  0.92602697  0.35262123  0.17451529  1
  O  O521  1  0.92652939  0.35187276  0.42638167  1
  O  O522  1  0.92675520  0.35187286  0.67646060  1
  O  O523  1  0.92668809  0.35211663  0.92544512  1
  O  O524  1  0.92647776  0.68789176  0.17558067  1
  O  O525  1  0.92618490  0.68722170  0.42406814  1
  O  O526  1  0.92702083  0.68510380  0.67596485  1
  O  O527  1  0.92600043  0.68663381  0.92510509  1
  O  O528  1  0.17618117  0.01948232  0.20014026  1
  O  O529  1  0.17570553  0.01943854  0.45054379  1
  O  O530  1  0.17691728  0.01841913  0.70030766  1
  O  O531  1  0.17672244  0.02076875  0.94988140  1
  O  O532  1  0.17631783  0.35483357  0.20057741  1
  O  O533  1  0.17765535  0.35549127  0.45118790  1
  O  O534  1  0.17801964  0.35468853  0.70045129  1
  O  O535  1  0.17685609  0.35551374  0.94921795  1
  O  O536  1  0.17812323  0.68799413  0.20049100  1
  O  O537  1  0.17877953  0.68679810  0.44896478  1
  O  O538  1  0.17920939  0.68594034  0.69849591  1
  O  O539  1  0.17735179  0.68841733  0.94986869  1
  O  O540  1  0.67637258  0.01987711  0.19787405  1
  O  O541  1  0.67565517  0.01980058  0.44999296  1
  O  O542  1  0.67743209  0.01819599  0.69794444  1
  O  O543  1  0.67555225  0.01965280  0.95050447  1
  O  O544  1  0.67612362  0.35252643  0.19900667  1
  O  O545  1  0.67687349  0.35269897  0.44746407  1
  O  O546  1  0.67650595  0.35168989  0.69833376  1
  O  O547  1  0.67668644  0.35385158  0.94900653  1
  O  O548  1  0.67710824  0.68661864  0.19921178  1
  O  O549  1  0.67667181  0.68491853  0.44836060  1
  O  O550  1  0.67721506  0.68361590  0.69906623  1
  O  O551  1  0.67659718  0.68740208  0.95041001  1
  O  O552  1  0.32347808  0.31416599  0.04892008  1
  O  O553  1  0.32435717  0.31387731  0.30012409  1
  O  O554  1  0.32425186  0.31414496  0.55018927  1
  O  O555  1  0.32415440  0.31224272  0.80034801  1
  O  O556  1  0.32525392  0.64768658  0.05010567  1
  O  O557  1  0.32238475  0.64829108  0.30370383  1
  O  O558  1  0.32229204  0.64804331  0.55205680  1
  O  O559  1  0.32419779  0.64636300  0.79993472  1
  O  O560  1  0.32322654  0.97960005  0.05044238  1
  O  O561  1  0.32306647  0.97923499  0.30084090  1
  O  O562  1  0.32213835  0.97997948  0.55173751  1
  O  O563  1  0.32378741  0.97852997  0.80003353  1
  O  O564  1  0.82162342  0.31405529  0.05088979  1
  O  O565  1  0.82273644  0.31411412  0.30041756  1
  O  O566  1  0.82095806  0.31392361  0.55121792  1
  O  O567  1  0.82314031  0.31224946  0.79874572  1
  O  O568  1  0.82415497  0.64648872  0.04892641  1
  O  O569  1  0.82210031  0.64712354  0.30108586  1
  O  O570  1  0.82311456  0.64726991  0.55023858  1
  O  O571  1  0.82360544  0.64451732  0.79992451  1
  O  O572  1  0.82183211  0.98024847  0.05077433  1
  O  O573  1  0.82237860  0.98066694  0.29877450  1
  O  O574  1  0.82256675  0.98109113  0.55119781  1
  O  O575  1  0.82268783  0.97868949  0.80045816  1
  O  O576  1  0.42664288  0.14754557  0.17501440  1
  O  O577  1  0.42743569  0.14764859  0.42541590  1
  O  O578  1  0.42615002  0.14675668  0.67387373  1
  O  O579  1  0.42719638  0.14801738  0.92520925  1
  O  O580  1  0.42726664  0.47934209  0.17698435  1
  O  O581  1  0.42694413  0.47853759  0.42566293  1
  O  O582  1  0.42943507  0.48053923  0.67740640  1
  O  O583  1  0.42836466  0.48041693  0.92687591  1
  O  O584  1  0.42770464  0.81247465  0.17739121  1
  O  O585  1  0.42783410  0.81264647  0.42658434  1
  O  O586  1  0.42769964  0.81417916  0.67591178  1
  O  O587  1  0.42775926  0.81402847  0.92663010  1
  O  O588  1  0.92666884  0.14694501  0.17542869  1
  O  O589  1  0.92507130  0.14703426  0.42444266  1
  O  O590  1  0.92644331  0.14887183  0.67604091  1
  O  O591  1  0.92593861  0.14900772  0.92611190  1
  O  O592  1  0.92567386  0.47948168  0.17428652  1
  O  O593  1  0.92689604  0.47913008  0.42604601  1
  O  O594  1  0.92623416  0.47888695  0.67510579  1
  O  O595  1  0.92744929  0.47931369  0.92428804  1
  O  O596  1  0.92675171  0.81515977  0.17620999  1
  O  O597  1  0.92594493  0.81412409  0.42502891  1
  O  O598  1  0.92667117  0.81244618  0.67567583  1
  O  O599  1  0.92591926  0.81355740  0.92416760  1
  O  O600  1  0.07231091  0.18651561  0.07284711  1
  O  O601  1  0.07404652  0.18703968  0.32571475  1
  O  O602  1  0.07279302  0.18806356  0.57525260  1
  O  O603  1  0.07213502  0.18713466  0.82353685  1
  O  O604  1  0.07473746  0.52062160  0.07500999  1
  O  O605  1  0.07343168  0.51963818  0.32538604  1
  O  O606  1  0.07390055  0.51994596  0.57626324  1
  O  O607  1  0.07367470  0.52094881  0.82456791  1
  O  O608  1  0.07331278  0.85407153  0.07588616  1
  O  O609  1  0.07144499  0.85363852  0.32334965  1
  O  O610  1  0.07378477  0.85385710  0.57537095  1
  O  O611  1  0.07429108  0.85436043  0.82539201  1
  O  O612  1  0.57190271  0.18625360  0.07271657  1
  O  O613  1  0.57245305  0.18588918  0.32223736  1
  O  O614  1  0.57083792  0.18608632  0.57192586  1
  O  O615  1  0.57315007  0.18758515  0.82400343  1
  O  O616  1  0.57349458  0.51789375  0.07520868  1
  O  O617  1  0.57240271  0.51906151  0.32448661  1
  O  O618  1  0.57374244  0.52063066  0.57472354  1
  O  O619  1  0.57278556  0.51805886  0.82382150  1
  O  O620  1  0.57246705  0.85101100  0.07477125  1
  O  O621  1  0.57317498  0.85133599  0.32416915  1
  O  O622  1  0.57324503  0.85151191  0.57397228  1
  O  O623  1  0.57331045  0.85188791  0.82402462  1
  O  O624  1  0.32355451  0.18722036  0.04968831  1
  O  O625  1  0.32356200  0.18677499  0.30004259  1
  O  O626  1  0.32426993  0.18708633  0.54978775  1
  O  O627  1  0.32299022  0.18488825  0.80095863  1
  O  O628  1  0.32458386  0.52085411  0.05088069  1
  O  O629  1  0.32307083  0.52084799  0.30268984  1
  O  O630  1  0.32342989  0.52084784  0.55191566  1
  O  O631  1  0.32414247  0.51934417  0.80095316  1
  O  O632  1  0.32392395  0.85245865  0.05161459  1
  O  O633  1  0.32396377  0.85225854  0.30232663  1
  O  O634  1  0.32265826  0.85259682  0.55199034  1
  O  O635  1  0.32337824  0.85161411  0.80044215  1
  O  O636  1  0.82069595  0.18656032  0.05199950  1
  O  O637  1  0.82183564  0.18723428  0.29947658  1
  O  O638  1  0.82131043  0.18659195  0.55072758  1
  O  O639  1  0.82244524  0.18560056  0.79901165  1
  O  O640  1  0.82433062  0.51964655  0.04981054  1
  O  O641  1  0.82150973  0.51953678  0.30178082  1
  O  O642  1  0.82302209  0.52034678  0.54886812  1
  O  O643  1  0.82273707  0.51738239  0.79992318  1
  O  O644  1  0.82181248  0.85285023  0.05180289  1
  O  O645  1  0.82324670  0.85391160  0.29910234  1
  O  O646  1  0.82352752  0.85386403  0.55012915  1
  O  O647  1  0.82279600  0.85151555  0.80069746  1
  O  O648  1  0.17565608  0.14656467  0.20034364  1
  O  O649  1  0.17612041  0.14642217  0.45166274  1
  O  O650  1  0.17707271  0.14565993  0.70014703  1
  O  O651  1  0.17735562  0.14809004  0.94846375  1
  O  O652  1  0.17671178  0.48174238  0.20066252  1
  O  O653  1  0.17735075  0.48263056  0.45006362  1
  O  O654  1  0.17781858  0.48181016  0.69939476  1
  O  O655  1  0.17779399  0.48275047  0.94875368  1
  O  O656  1  0.17755490  0.81487393  0.20009486  1
  O  O657  1  0.17769898  0.81392244  0.44941644  1
  O  O658  1  0.17761118  0.81318770  0.69852936  1
  O  O659  1  0.17756285  0.81540966  0.94896403  1
  O  O660  1  0.67768193  0.14742320  0.19737092  1
  O  O661  1  0.67496555  0.14649703  0.44980509  1
  O  O662  1  0.67659271  0.14579289  0.69765805  1
  O  O663  1  0.67584191  0.14638438  0.95017486  1
  O  O664  1  0.67723084  0.47946392  0.19998975  1
  O  O665  1  0.67808961  0.48007625  0.44776503  1
  O  O666  1  0.67664758  0.47867907  0.69824567  1
  O  O667  1  0.67732776  0.48102423  0.94869957  1
  O  O668  1  0.67681430  0.81371660  0.19938845  1
  O  O669  1  0.67697286  0.81201388  0.45017754  1
  O  O670  1  0.67645098  0.81075958  0.69906945  1
  O  O671  1  0.67706414  0.81454705  0.94854776  1
