# generated using pymatgen
data_Na2MnFe(PO4)2
_symmetry_space_group_name_H-M   'P 1'
_cell_length_a   22.34727173
_cell_length_b   20.09606478
_cell_length_c   19.44631451
_cell_angle_alpha   90.01479123
_cell_angle_beta   90.04657177
_cell_angle_gamma   89.99727870
_symmetry_Int_Tables_number   1
_chemical_formula_structural   Na2MnFe(PO4)2
_chemical_formula_sum   'Na96 Mn48 Fe48 P96 O384'
_cell_volume   8733.18537688
_cell_formula_units_Z   48
loop_
 _symmetry_equiv_pos_site_id
 _symmetry_equiv_pos_as_xyz
  1  'x, y, z'
loop_
 _atom_site_type_symbol
 _atom_site_label
 _atom_site_symmetry_multiplicity
 _atom_site_fract_x
 _atom_site_fract_y
 _atom_site_fract_z
 _atom_site_occupancy
  Na  Na0  1  0.14034206  0.25144845  0.24368434  1
  Na  Na1  1  0.13989084  0.25014854  0.49405783  1
  Na  Na2  1  0.14044559  0.24937631  0.74344025  1
  Na  Na3  1  0.14079341  0.25081781  0.99440078  1
  Na  Na4  1  0.14100168  0.58255291  0.24387107  1
  Na  Na5  1  0.14121324  0.58338360  0.49323417  1
  Na  Na6  1  0.14112677  0.58226679  0.74477447  1
  Na  Na7  1  0.14062358  0.58285013  0.99461351  1
  Na  Na8  1  0.13965839  0.91587674  0.24372707  1
  Na  Na9  1  0.14009049  0.91545600  0.49325297  1
  Na  Na10  1  0.14011319  0.91670396  0.74408392  1
  Na  Na11  1  0.13941850  0.91660675  0.99260527  1
  Na  Na12  1  0.63974065  0.24996043  0.24295004  1
  Na  Na13  1  0.63959131  0.25063534  0.49322145  1
  Na  Na14  1  0.63973311  0.25137602  0.74283768  1
  Na  Na15  1  0.64007812  0.25022776  0.99188798  1
  Na  Na16  1  0.64023637  0.58313258  0.24479535  1
  Na  Na17  1  0.63982299  0.58278089  0.49425905  1
  Na  Na18  1  0.64086772  0.58295119  0.74367590  1
  Na  Na19  1  0.64068563  0.58392206  0.99256162  1
  Na  Na20  1  0.63927080  0.91682598  0.24307802  1
  Na  Na21  1  0.63993360  0.91625614  0.49509693  1
  Na  Na22  1  0.63931731  0.91700124  0.74490786  1
  Na  Na23  1  0.63937932  0.91737286  0.99254528  1
  Na  Na24  1  0.36001100  0.08337609  0.00606883  1
  Na  Na25  1  0.35951870  0.08387408  0.25609700  1
  Na  Na26  1  0.35949565  0.08439864  0.50712503  1
  Na  Na27  1  0.35990068  0.08300452  0.75722721  1
  Na  Na28  1  0.36038270  0.41634125  0.00639460  1
  Na  Na29  1  0.36067161  0.41697446  0.25656155  1
  Na  Na30  1  0.36027361  0.41570417  0.50748810  1
  Na  Na31  1  0.36027326  0.41516392  0.75536563  1
  Na  Na32  1  0.36000682  0.74980764  0.00660109  1
  Na  Na33  1  0.35992686  0.75027829  0.25644014  1
  Na  Na34  1  0.35976935  0.74941020  0.50619140  1
  Na  Na35  1  0.35961242  0.74953497  0.75758300  1
  Na  Na36  1  0.85986249  0.08294254  0.00565653  1
  Na  Na37  1  0.85949669  0.08289573  0.25560517  1
  Na  Na38  1  0.85882356  0.08277209  0.50598412  1
  Na  Na39  1  0.85985577  0.08354424  0.75720310  1
  Na  Na40  1  0.86010088  0.41708862  0.00554046  1
  Na  Na41  1  0.86031400  0.41646987  0.25627602  1
  Na  Na42  1  0.86005686  0.41639451  0.50567128  1
  Na  Na43  1  0.85957141  0.41699311  0.75526497  1
  Na  Na44  1  0.85943703  0.75194780  0.00615017  1
  Na  Na45  1  0.85941942  0.75085015  0.25656496  1
  Na  Na46  1  0.85976863  0.74976679  0.50570590  1
  Na  Na47  1  0.85937150  0.75108661  0.75635555  1
  Na  Na48  1  0.10925135  0.08240906  0.11926822  1
  Na  Na49  1  0.10870798  0.08301375  0.36829158  1
  Na  Na50  1  0.10927616  0.08344862  0.61942517  1
  Na  Na51  1  0.10973534  0.08259823  0.86842593  1
  Na  Na52  1  0.11061612  0.41658146  0.11946426  1
  Na  Na53  1  0.10993687  0.41504636  0.36782887  1
  Na  Na54  1  0.11001295  0.41579153  0.61866827  1
  Na  Na55  1  0.11029767  0.41688220  0.86971315  1
  Na  Na56  1  0.10906896  0.75051997  0.11923143  1
  Na  Na57  1  0.10985575  0.75030133  0.36816940  1
  Na  Na58  1  0.11028016  0.74989556  0.61844213  1
  Na  Na59  1  0.10950043  0.75131834  0.86861104  1
  Na  Na60  1  0.60887791  0.08305900  0.11726615  1
  Na  Na61  1  0.60889942  0.08351636  0.36845763  1
  Na  Na62  1  0.60914600  0.08388338  0.61959997  1
  Na  Na63  1  0.60870509  0.08323824  0.86831476  1
  Na  Na64  1  0.60951975  0.41614184  0.11774161  1
  Na  Na65  1  0.60978576  0.41712998  0.36961074  1
  Na  Na66  1  0.60971034  0.41618440  0.61733455  1
  Na  Na67  1  0.61042561  0.41532885  0.86708880  1
  Na  Na68  1  0.60900872  0.75138150  0.11804053  1
  Na  Na69  1  0.60909309  0.74976561  0.36979394  1
  Na  Na70  1  0.60924040  0.75040591  0.61968714  1
  Na  Na71  1  0.60924280  0.75163632  0.86892094  1
  Na  Na72  1  0.39088706  0.25050619  0.13061811  1
  Na  Na73  1  0.39057021  0.25160538  0.38227165  1
  Na  Na74  1  0.39047122  0.24939264  0.63159591  1
  Na  Na75  1  0.39090028  0.24928803  0.88054753  1
  Na  Na76  1  0.39112889  0.58357942  0.13140222  1
  Na  Na77  1  0.39095554  0.58313253  0.38237063  1
  Na  Na78  1  0.39044100  0.58333737  0.63163750  1
  Na  Na79  1  0.39094562  0.58210482  0.88216085  1
  Na  Na80  1  0.38991804  0.91673006  0.12995271  1
  Na  Na81  1  0.39027718  0.91592603  0.38169326  1
  Na  Na82  1  0.39042482  0.91731634  0.63257467  1
  Na  Na83  1  0.39004750  0.91647102  0.88252701  1
  Na  Na84  1  0.89095459  0.24997785  0.13112257  1
  Na  Na85  1  0.89045473  0.24973919  0.37994266  1
  Na  Na86  1  0.89016383  0.25017416  0.63110885  1
  Na  Na87  1  0.89048217  0.24982014  0.88088705  1
  Na  Na88  1  0.89085634  0.58292388  0.13136732  1
  Na  Na89  1  0.89077753  0.58205789  0.38140766  1
  Na  Na90  1  0.89070093  0.58315665  0.63049926  1
  Na  Na91  1  0.89061886  0.58373245  0.88133337  1
  Na  Na92  1  0.89021410  0.91796954  0.13081560  1
  Na  Na93  1  0.88964634  0.91734284  0.38052431  1
  Na  Na94  1  0.89014905  0.91652401  0.63138856  1
  Na  Na95  1  0.88999660  0.91740332  0.88180414  1
  Mn  Mn96  1  0.74994301  0.66669636  0.62534595  1
  Mn  Mn97  1  0.74920328  0.83477809  0.12568678  1
  Mn  Mn98  1  0.75007817  0.50018820  0.12418374  1
  Mn  Mn99  1  0.00061070  0.50011688  0.74972536  1
  Mn  Mn100  1  0.50023831  0.83300935  0.50116512  1
  Mn  Mn101  1  0.75010535  0.16737216  0.87458922  1
  Mn  Mn102  1  0.74993077  0.16567085  0.12349917  1
  Mn  Mn103  1  0.75040455  0.66739098  0.87434658  1
  Mn  Mn104  1  0.00072156  0.16561929  0.00086092  1
  Mn  Mn105  1  0.50079653  0.49927625  0.00003351  1
  Mn  Mn106  1  0.24948852  0.16770078  0.12567385  1
  Mn  Mn107  1  0.74932519  0.16734450  0.62516493  1
  Mn  Mn108  1  0.50082434  0.49944906  0.25049498  1
  Mn  Mn109  1  0.74888449  0.83393240  0.37529235  1
  Mn  Mn110  1  0.25054903  0.83215971  0.62500215  1
  Mn  Mn111  1  -0.00091496  0.16696992  0.49920014  1
  Mn  Mn112  1  0.74985973  0.33351482  0.12414222  1
  Mn  Mn113  1  0.74962314  0.66577044  0.37621624  1
  Mn  Mn114  1  0.00106415  0.49879392  0.50003914  1
  Mn  Mn115  1  0.25056268  0.66544750  0.87572062  1
  Mn  Mn116  1  0.25069325  0.16633795  0.87519623  1
  Mn  Mn117  1  -0.00022553  0.66672109  0.24974438  1
  Mn  Mn118  1  0.24958577  0.66597670  0.12520418  1
  Mn  Mn119  1  0.00095653  0.33359012  0.00080366  1
  Mn  Mn120  1  0.50068893  0.49904533  0.75051436  1
  Mn  Mn121  1  0.24936142  -0.00045981  0.37584576  1
  Mn  Mn122  1  0.49951225  0.16783531  0.24890156  1
  Mn  Mn123  1  0.50011348  0.00089933  0.50049054  1
  Mn  Mn124  1  0.50050790  0.66742189  0.25046860  1
  Mn  Mn125  1  0.00070205  0.66707572  0.49926034  1
  Mn  Mn126  1  0.50049156  0.66717954  0.75099935  1
  Mn  Mn127  1  0.00017621  0.66703538  0.00065909  1
  Mn  Mn128  1  0.74962086  -0.00077187  0.62605911  1
  Mn  Mn129  1  0.25039847  0.49940294  0.62457764  1
  Mn  Mn130  1  0.25045786  -0.00003561  0.62472588  1
  Mn  Mn131  1  0.25052137  0.49986150  0.37554984  1
  Mn  Mn132  1  -0.00058476  0.83448523  0.74961100  1
  Mn  Mn133  1  0.00036155  0.66731575  0.75044169  1
  Mn  Mn134  1  0.24970523  0.83311534  0.12506382  1
  Mn  Mn135  1  -0.00015268  0.33273869  0.75045807  1
  Mn  Mn136  1  0.74939806  0.16584042  0.37425752  1
  Mn  Mn137  1  0.75015917  0.33382934  0.37421239  1
  Mn  Mn138  1  0.24991275  -0.00024793  0.12519003  1
  Mn  Mn139  1  0.24961665  0.16774767  0.37577638  1
  Mn  Mn140  1  0.75008042  0.66702525  0.12471297  1
  Mn  Mn141  1  0.25059552  0.33394112  0.87483542  1
  Mn  Mn142  1  -0.00087117  -0.00046428  0.49921399  1
  Mn  Mn143  1  0.49893863  -0.00011895  0.24928704  1
  Fe  Fe144  1  0.00006046  0.33243645  0.49940609  1
  Fe  Fe145  1  0.00047520  0.49992178  0.00068414  1
  Fe  Fe146  1  0.50042369  0.33287044  0.49998890  1
  Fe  Fe147  1  -0.00030566  0.83375012  0.49942509  1
  Fe  Fe148  1  0.74883004  -0.00017308  0.37537029  1
  Fe  Fe149  1  0.50008341  0.33249180  0.74909601  1
  Fe  Fe150  1  0.49955493  0.83371539  0.24963359  1
  Fe  Fe151  1  0.49942569  0.16688438  0.50041381  1
  Fe  Fe152  1  0.49939333  0.00009620  -0.00059298  1
  Fe  Fe153  1  0.50000403  0.16668377  -0.00084777  1
  Fe  Fe154  1  0.49991060  0.16668541  0.75001655  1
  Fe  Fe155  1  0.49912109  0.00049652  0.75075013  1
  Fe  Fe156  1  0.50009143  0.49952300  0.50066846  1
  Fe  Fe157  1  0.00037535  0.49932237  0.25054234  1
  Fe  Fe158  1  0.25057713  0.66666813  0.37470404  1
  Fe  Fe159  1  0.24935104  -0.00021374  0.87491746  1
  Fe  Fe160  1  0.00019275  0.00012923  0.74998859  1
  Fe  Fe161  1  0.25009793  0.66618850  0.62538446  1
  Fe  Fe162  1  0.74956420  0.00019258  0.87481952  1
  Fe  Fe163  1  0.00024268  0.33315907  0.24984151  1
  Fe  Fe164  1  0.00008207  0.16637228  0.25004061  1
  Fe  Fe165  1  0.75011198  0.49981438  0.37501124  1
  Fe  Fe166  1  0.74903642  0.00022582  0.12447453  1
  Fe  Fe167  1  0.24949686  0.33282198  0.62567695  1
  Fe  Fe168  1  -0.00068953  0.83390783  0.24915859  1
  Fe  Fe169  1  0.50020646  0.33250734  -0.00091455  1
  Fe  Fe170  1  0.50039228  0.33345924  0.25031030  1
  Fe  Fe171  1  0.50036623  0.66708113  0.00059443  1
  Fe  Fe172  1  0.75070781  0.50015409  0.87374296  1
  Fe  Fe173  1  0.25066020  0.33349007  0.37556408  1
  Fe  Fe174  1  0.25094863  0.33432428  0.12494918  1
  Fe  Fe175  1  0.25134726  0.49989714  0.12557013  1
  Fe  Fe176  1  0.49948430  0.66662212  0.50050135  1
  Fe  Fe177  1  0.25026476  0.83267314  0.37505299  1
  Fe  Fe178  1  -0.00034437  0.00003329  0.00022995  1
  Fe  Fe179  1  0.49888929  0.83357758  0.75081251  1
  Fe  Fe180  1  0.75002205  0.33412093  0.62406007  1
  Fe  Fe181  1  0.49959757  0.83380771  -0.00038086  1
  Fe  Fe182  1  0.24937084  0.16659704  0.62565046  1
  Fe  Fe183  1  0.24960553  0.83251603  0.87484905  1
  Fe  Fe184  1  0.00018810  0.16616291  0.75036296  1
  Fe  Fe185  1  0.75034123  0.49990372  0.62472523  1
  Fe  Fe186  1  -0.00008285  0.83409111  -0.00009434  1
  Fe  Fe187  1  0.75046205  0.33414409  0.87351009  1
  Fe  Fe188  1  0.25068661  0.49921234  0.87489431  1
  Fe  Fe189  1  -0.00033920  -0.00048976  0.24962808  1
  Fe  Fe190  1  0.74991946  0.83353206  0.62537664  1
  Fe  Fe191  1  0.74981469  0.83426409  0.87563488  1
  P  P192  1  0.04306191  0.24962232  0.10449714  1
  P  P193  1  0.04155973  0.24988211  0.35144200  1
  P  P194  1  0.04176530  0.25020858  0.60265576  1
  P  P195  1  0.04275396  0.24839258  0.85275667  1
  P  P196  1  0.04231325  0.58181847  0.10341916  1
  P  P197  1  0.04262520  0.58205871  0.35216850  1
  P  P198  1  0.04359188  0.58348155  0.60279241  1
  P  P199  1  0.04312210  0.58342243  0.85409577  1
  P  P200  1  0.04118334  0.91682543  0.10208138  1
  P  P201  1  0.04095189  0.91614229  0.35130134  1
  P  P202  1  0.04213107  0.91604476  0.60216477  1
  P  P203  1  0.04188713  0.91830967  0.85297941  1
  P  P204  1  0.54195781  0.24995892  0.10088213  1
  P  P205  1  0.54208806  0.25137249  0.35289664  1
  P  P206  1  0.54136830  0.24973101  0.60212637  1
  P  P207  1  0.54124041  0.24976884  0.85170347  1
  P  P208  1  0.54279542  0.58452717  0.10244037  1
  P  P209  1  0.54248139  0.58323250  0.35448246  1
  P  P210  1  0.54107264  0.58348853  0.60208512  1
  P  P211  1  0.54312691  0.58338359  0.85396778  1
  P  P212  1  0.54073073  0.91680586  0.10117514  1
  P  P213  1  0.54160806  0.91586508  0.35228328  1
  P  P214  1  0.54198674  0.91737801  0.60478500  1
  P  P215  1  0.54004412  0.91692171  0.85252012  1
  P  P216  1  0.45684832  0.08378121  0.14542938  1
  P  P217  1  0.45723992  0.08509777  0.39770766  1
  P  P218  1  0.45831956  0.08380401  0.64854355  1
  P  P219  1  0.45848574  0.08335804  0.89745251  1
  P  P220  1  0.45876931  0.41495532  0.14723341  1
  P  P221  1  0.45885683  0.41631076  0.39873909  1
  P  P222  1  0.45860837  0.41507726  0.64664505  1
  P  P223  1  0.45851722  0.41450821  0.89685689  1
  P  P224  1  0.45797508  0.75155743  0.14680105  1
  P  P225  1  0.45774777  0.74911775  0.39788744  1
  P  P226  1  0.45761422  0.75088076  0.64821341  1
  P  P227  1  0.45843097  0.75022229  0.89857162  1
  P  P228  1  0.95861912  0.08303091  0.14838214  1
  P  P229  1  0.95673212  0.08337845  0.39556279  1
  P  P230  1  0.95810736  0.08317253  0.64848906  1
  P  P231  1  0.95821061  0.08216543  0.89703643  1
  P  P232  1  0.95902996  0.41687337  0.14829774  1
  P  P233  1  0.95850377  0.41470634  0.39655664  1
  P  P234  1  0.95769841  0.41589808  0.64633752  1
  P  P235  1  0.95835844  0.41771946  0.89797680  1
  P  P236  1  0.95743395  0.75178454  0.14695557  1
  P  P237  1  0.95787174  0.75179633  0.39662036  1
  P  P238  1  0.95731435  0.75044947  0.64628716  1
  P  P239  1  0.95772711  0.75176761  0.89791069  1
  P  P240  1  0.20708738  0.08362148  0.22857711  1
  P  P241  1  0.20669751  0.08387805  0.47891270  1
  P  P242  1  0.20819171  0.08349692  0.72795886  1
  P  P243  1  0.20767199  0.08234092  0.97742236  1
  P  P244  1  0.20956177  0.41694183  0.22711646  1
  P  P245  1  0.20810406  0.41496809  0.47796967  1
  P  P246  1  0.20779281  0.41575172  0.72769640  1
  P  P247  1  0.20864448  0.41800060  0.97851374  1
  P  P248  1  0.20730454  0.74958351  0.22909589  1
  P  P249  1  0.20869031  0.74906848  0.47675196  1
  P  P250  1  0.20811990  0.74839267  0.72811726  1
  P  P251  1  0.20756565  0.75035196  0.97739035  1
  P  P252  1  0.70688385  0.08185063  0.22706449  1
  P  P253  1  0.70692513  0.08217746  0.47767238  1
  P  P254  1  0.70727290  0.08339485  0.72891786  1
  P  P255  1  0.70742352  0.08226661  0.97691497  1
  P  P256  1  0.70715749  0.41713487  0.22785674  1
  P  P257  1  0.70817175  0.41791589  0.47793595  1
  P  P258  1  0.70858447  0.41695951  0.72640174  1
  P  P259  1  0.70879689  0.41715634  0.97519203  1
  P  P260  1  0.70668052  0.75000998  0.22832841  1
  P  P261  1  0.70692265  0.75012709  0.47923520  1
  P  P262  1  0.70781272  0.75190369  0.72820926  1
  P  P263  1  0.70755527  0.75178688  0.97729041  1
  P  P264  1  0.29246838  0.25139585  0.02285984  1
  P  P265  1  0.29232971  0.25212073  0.27261627  1
  P  P266  1  0.29116097  0.25018511  0.52401544  1
  P  P267  1  0.29248357  0.24972199  0.77118756  1
  P  P268  1  0.29285277  0.58151570  0.02259864  1
  P  P269  1  0.29302943  0.58391847  0.27270343  1
  P  P270  1  0.29239577  0.58464069  0.52247169  1
  P  P271  1  0.29315574  0.58145251  0.77257441  1
  P  P272  1  0.29177840  0.91642693  0.02070250  1
  P  P273  1  0.29204755  0.91560247  0.27305889  1
  P  P274  1  0.29295186  0.91560361  0.52166137  1
  P  P275  1  0.29122898  0.91638619  0.77374078  1
  P  P276  1  0.79301895  0.25030311  0.02064492  1
  P  P277  1  0.79250834  0.24938638  0.27113335  1
  P  P278  1  0.79179878  0.25102820  0.52212098  1
  P  P279  1  0.79202713  0.25202564  0.77141355  1
  P  P280  1  0.79307964  0.58370294  0.02078509  1
  P  P281  1  0.79259817  0.58222620  0.27283438  1
  P  P282  1  0.79237483  0.58182210  0.52241094  1
  P  P283  1  0.79269645  0.58230833  0.77163601  1
  P  P284  1  0.79141155  0.91848622  0.02190693  1
  P  P285  1  0.79121180  0.91867985  0.27242237  1
  P  P286  1  0.79203473  0.91567240  0.52260120  1
  P  P287  1  0.79122683  0.91646965  0.77350165  1
  O  O288  1  0.03747292  0.24971364  0.18435796  1
  O  O289  1  0.03619356  0.25054036  0.43142063  1
  O  O290  1  0.03652398  0.24935158  0.68260348  1
  O  O291  1  0.03811044  0.24855545  0.93277472  1
  O  O292  1  0.03673529  0.58180006  0.18335120  1
  O  O293  1  0.03771791  0.58239453  0.43215024  1
  O  O294  1  0.03851880  0.58371049  0.68279088  1
  O  O295  1  0.03767707  0.58304676  0.93407756  1
  O  O296  1  0.03595473  0.91653208  0.18197961  1
  O  O297  1  0.03610483  0.91590655  0.43127341  1
  O  O298  1  0.03711296  0.91692305  0.68212012  1
  O  O299  1  0.03672906  0.91812833  0.93285808  1
  O  O300  1  0.53704927  0.25053513  0.18084473  1
  O  O301  1  0.53682653  0.25096378  0.43276965  1
  O  O302  1  0.53626460  0.24998473  0.68200899  1
  O  O303  1  0.53626422  0.24955573  0.93160207  1
  O  O304  1  0.53764394  0.58434161  0.18242941  1
  O  O305  1  0.53676981  0.58326144  0.43435228  1
  O  O306  1  0.53659545  0.58296859  0.68211600  1
  O  O307  1  0.53790435  0.58373452  0.93390758  1
  O  O308  1  0.53594029  0.91679430  0.18115487  1
  O  O309  1  0.53671964  0.91623412  0.43226633  1
  O  O310  1  0.53605850  0.91756165  0.68461831  1
  O  O311  1  0.53482186  0.91667355  0.93242941  1
  O  O312  1  0.46224221  0.08388946  0.06553087  1
  O  O313  1  0.46221580  0.08494713  0.31771398  1
  O  O314  1  0.46312220  0.08443132  0.56857026  1
  O  O315  1  0.46347471  0.08271970  0.81754209  1
  O  O316  1  0.46411879  0.41476350  0.06729023  1
  O  O317  1  0.46370853  0.41645102  0.31875115  1
  O  O318  1  0.46396875  0.41541385  0.56675848  1
  O  O319  1  0.46377625  0.41445855  0.81690074  1
  O  O320  1  0.46348369  0.75110143  0.06691037  1
  O  O321  1  0.46301325  0.74983982  0.31797878  1
  O  O322  1  0.46295698  0.74995209  0.56830778  1
  O  O323  1  0.46335612  0.75068385  0.81858592  1
  O  O324  1  0.96369113  0.08232534  0.06842103  1
  O  O325  1  0.96211491  0.08335518  0.31573847  1
  O  O326  1  0.96288710  0.08314469  0.56846356  1
  O  O327  1  0.96359108  0.08253717  0.81715529  1
  O  O328  1  0.96420272  0.41746106  0.06831992  1
  O  O329  1  0.96410649  0.41517384  0.31663575  1
  O  O330  1  0.96299263  0.41506618  0.56639442  1
  O  O331  1  0.96341502  0.41738614  0.81801337  1
  O  O332  1  0.96308663  0.75175288  0.06704928  1
  O  O333  1  0.96321263  0.75170368  0.31665383  1
  O  O334  1  0.96247697  0.75083947  0.56631995  1
  O  O335  1  0.96275625  0.75151051  0.81792336  1
  O  O336  1  0.21242284  0.08264684  0.05742926  1
  O  O337  1  0.21210975  0.08359953  0.30855337  1
  O  O338  1  0.21196075  0.08419889  0.55889739  1
  O  O339  1  0.21348559  0.08267348  0.80792522  1
  O  O340  1  0.21441549  0.41769112  0.05838826  1
  O  O341  1  0.21434615  0.41670592  0.30711348  1
  O  O342  1  0.21302518  0.41482274  0.55793640  1
  O  O343  1  0.21315559  0.41668372  0.80763452  1
  O  O344  1  0.21236307  0.75016872  0.05739897  1
  O  O345  1  0.21283213  0.74983023  0.30901583  1
  O  O346  1  0.21347119  0.74871033  0.55681669  1
  O  O347  1  0.21352696  0.74903378  0.80806221  1
  O  O348  1  0.71234942  0.08209994  0.05692501  1
  O  O349  1  0.71186057  0.08179208  0.30708993  1
  O  O350  1  0.71229731  0.08257173  0.55763663  1
  O  O351  1  0.71270877  0.08334832  0.80882974  1
  O  O352  1  0.71335159  0.41680038  0.05521827  1
  O  O353  1  0.71215898  0.41744425  0.30784150  1
  O  O354  1  0.71363480  0.41745083  0.55783887  1
  O  O355  1  0.71389978  0.41685887  0.80634186  1
  O  O356  1  0.71251340  0.75154632  0.05728559  1
  O  O357  1  0.71160447  0.74988040  0.30833714  1
  O  O358  1  0.71241429  0.75060531  0.55918500  1
  O  O359  1  0.71359368  0.75203401  0.80813921  1
  O  O360  1  0.28702399  0.25232231  0.19266561  1
  O  O361  1  0.28661700  0.25042688  0.44397694  1
  O  O362  1  0.28680665  0.24944130  0.69131733  1
  O  O363  1  0.28762162  0.25103571  0.94288125  1
  O  O364  1  0.28783517  0.58310660  0.19272361  1
  O  O365  1  0.28710221  0.58489138  0.44253065  1
  O  O366  1  0.28779532  0.58235563  0.69264217  1
  O  O367  1  0.28774232  0.58126470  0.94262057  1
  O  O368  1  0.28703461  0.91574399  0.19303066  1
  O  O369  1  0.28769499  0.91516927  0.44172706  1
  O  O370  1  0.28676785  0.91632806  0.69365601  1
  O  O371  1  0.28633663  0.91640692  0.94077299  1
  O  O372  1  0.78756910  0.24928175  0.19114819  1
  O  O373  1  0.78680288  0.25051095  0.44212555  1
  O  O374  1  0.78667738  0.25212681  0.69145793  1
  O  O375  1  0.78802267  0.25084535  0.94061888  1
  O  O376  1  0.78762235  0.58285583  0.19279819  1
  O  O377  1  0.78713170  0.58170853  0.44244918  1
  O  O378  1  0.78710423  0.58226200  0.69170731  1
  O  O379  1  0.78802724  0.58340851  0.94078907  1
  O  O380  1  0.78614681  0.91890711  0.19243860  1
  O  O381  1  0.78641187  0.91667945  0.44270045  1
  O  O382  1  0.78638790  0.91575706  0.69351401  1
  O  O383  1  0.78616236  0.91818066  0.94198722  1
  O  O384  1  0.22815355  0.25211831  0.05820659  1
  O  O385  1  0.22805717  0.25230233  0.30834522  1
  O  O386  1  0.22689059  0.25021837  0.55967167  1
  O  O387  1  0.22843985  0.24989786  0.80715541  1
  O  O388  1  0.22858394  0.58102876  0.05825759  1
  O  O389  1  0.22875566  0.58413826  0.30834037  1
  O  O390  1  0.22821529  0.58440269  0.55832093  1
  O  O391  1  0.22891566  0.58103179  0.80839713  1
  O  O392  1  0.22760233  0.91654169  0.05646680  1
  O  O393  1  0.22767530  0.91530620  0.30827314  1
  O  O394  1  0.22863011  0.91591958  0.55690044  1
  O  O395  1  0.22693849  0.91639588  0.80911290  1
  O  O396  1  0.72855029  0.24987443  0.05557424  1
  O  O397  1  0.72811859  0.24980869  0.30614493  1
  O  O398  1  0.72747825  0.25133448  0.55751401  1
  O  O399  1  0.72784682  0.25176460  0.80718736  1
  O  O400  1  0.72861795  0.58383184  0.05582550  1
  O  O401  1  0.72820203  0.58155500  0.30818225  1
  O  O402  1  0.72814386  0.58191626  0.55814442  1
  O  O403  1  0.72854572  0.58239303  0.80759836  1
  O  O404  1  0.72712625  0.91889218  0.05770229  1
  O  O405  1  0.72687770  0.91856174  0.30796936  1
  O  O406  1  0.72783967  0.91498535  0.55855380  1
  O  O407  1  0.72700434  0.91628577  0.80931489  1
  O  O408  1  0.27145886  0.08369378  0.19348823  1
  O  O409  1  0.27107547  0.08365369  0.44378379  1
  O  O410  1  0.27236702  0.08423506  0.69220088  1
  O  O411  1  0.27207420  0.08180714  0.94225299  1
  O  O412  1  0.27376969  0.41700901  0.19129003  1
  O  O413  1  0.27248855  0.41529742  0.44259076  1
  O  O414  1  0.27199488  0.41499946  0.69191289  1
  O  O415  1  0.27274683  0.41826336  0.94219208  1
  O  O416  1  0.27149389  0.74943676  0.19339410  1
  O  O417  1  0.27289568  0.74916282  0.44094113  1
  O  O418  1  0.27235597  0.74791840  0.69231936  1
  O  O419  1  0.27196180  0.75052486  0.94224367  1
  O  O420  1  0.77127449  0.08143842  0.19158589  1
  O  O421  1  0.77117573  0.08162291  0.44200082  1
  O  O422  1  0.77145039  0.08366222  0.69333492  1
  O  O423  1  0.77176326  0.08234612  0.94159292  1
  O  O424  1  0.77163517  0.41685707  0.19291087  1
  O  O425  1  0.77224313  0.41832723  0.44163448  1
  O  O426  1  0.77262657  0.41693589  0.69009599  1
  O  O427  1  0.77310842  0.41767017  0.93976201  1
  O  O428  1  0.77115535  0.75060429  0.19342748  1
  O  O429  1  0.77109369  0.75025745  0.44357411  1
  O  O430  1  0.77190289  0.75177635  0.69204960  1
  O  O431  1  0.77192504  0.75205959  0.94198691  1
  O  O432  1  0.02263655  0.08361283  0.18465479  1
  O  O433  1  0.02093183  0.08327744  0.43138276  1
  O  O434  1  0.02237129  0.08300847  0.68429199  1
  O  O435  1  0.02231200  0.08131165  0.93332628  1
  O  O436  1  0.02315629  0.41656513  0.18441136  1
  O  O437  1  0.02262732  0.41393635  0.43284254  1
  O  O438  1  0.02200099  0.41585666  0.68178549  1
  O  O439  1  0.02268656  0.41809323  0.93355157  1
  O  O440  1  0.02159200  0.75149182  0.18299056  1
  O  O441  1  0.02211010  0.75212682  0.43257257  1
  O  O442  1  0.02167660  0.75063819  0.68164136  1
  O  O443  1  0.02203763  0.75176818  0.93345072  1
  O  O444  1  0.52100328  0.08362478  0.18135844  1
  O  O445  1  0.52161851  0.08552424  0.43321142  1
  O  O446  1  0.52239986  0.08284216  0.68462636  1
  O  O447  1  0.52245426  0.08416542  0.93387836  1
  O  O448  1  0.52293517  0.41485406  0.18328711  1
  O  O449  1  0.52296725  0.41579396  0.43470793  1
  O  O450  1  0.52269919  0.41469499  0.68291736  1
  O  O451  1  0.52274849  0.41465415  0.93271484  1
  O  O452  1  0.52207571  0.75210124  0.18311814  1
  O  O453  1  0.52191822  0.74829376  0.43395461  1
  O  O454  1  0.52186336  0.75191792  0.68404208  1
  O  O455  1  0.52258610  0.75041699  0.93457658  1
  O  O456  1  0.47772244  0.24952578  0.06490360  1
  O  O457  1  0.47786725  0.25189963  0.31679665  1
  O  O458  1  0.47730186  0.24965674  0.56566768  1
  O  O459  1  0.47723948  0.25030345  0.81530624  1
  O  O460  1  0.47850129  0.58416201  0.06683759  1
  O  O461  1  0.47849490  0.58328193  0.31813201  1
  O  O462  1  0.47688916  0.58410390  0.56637055  1
  O  O463  1  0.47883502  0.58300202  0.81853535  1
  O  O464  1  0.47659972  0.91633566  0.06521081  1
  O  O465  1  0.47725151  0.91544260  0.31672367  1
  O  O466  1  0.47800293  0.91732298  0.56842492  1
  O  O467  1  0.47609328  0.91693390  0.81590412  1
  O  O468  1  0.97894214  0.24976887  0.06848066  1
  O  O469  1  0.97753008  0.24954884  0.31507158  1
  O  O470  1  0.97752703  0.25133891  0.56671174  1
  O  O471  1  0.97830003  0.24818510  0.81755381  1
  O  O472  1  0.97819892  0.58211436  0.06727003  1
  O  O473  1  0.97824555  0.58188708  0.31682054  1
  O  O474  1  0.97922161  0.58323408  0.56760067  1
  O  O475  1  0.97881841  0.58355835  0.81854311  1
  O  O476  1  0.97715758  0.91697632  0.06549771  1
  O  O477  1  0.97674212  0.91628094  0.31541179  1
  O  O478  1  0.97772654  0.91508677  0.56661041  1
  O  O479  1  0.97766379  0.91894845  0.81697732  1
  O  O480  1  0.07437624  0.31294927  0.07612037  1
  O  O481  1  0.07257597  0.31328684  0.32289958  1
  O  O482  1  0.07306528  0.31350272  0.57445516  1
  O  O483  1  0.07366889  0.31215254  0.82508346  1
  O  O484  1  0.07356876  0.64559082  0.07606188  1
  O  O485  1  0.07348406  0.64574328  0.32432039  1
  O  O486  1  0.07452618  0.64687046  0.57437361  1
  O  O487  1  0.07399231  0.64720161  0.82627872  1
  O  O488  1  0.07216095  0.98048500  0.07402165  1
  O  O489  1  0.07146438  0.98014693  0.32318377  1
  O  O490  1  0.07277767  0.97967918  0.57372119  1
  O  O491  1  0.07308950  0.98135164  0.82383366  1
  O  O492  1  0.57277340  0.31342892  0.07212440  1
  O  O493  1  0.57310277  0.31474130  0.32417624  1
  O  O494  1  0.57239102  0.31317704  0.57353719  1
  O  O495  1  0.57265193  0.31297917  0.82317480  1
  O  O496  1  0.57317283  0.64830384  0.07407773  1
  O  O497  1  0.57393895  0.64647857  0.32622052  1
  O  O498  1  0.57227607  0.64707494  0.57450727  1
  O  O499  1  0.57417040  0.64676484  0.82556896  1
  O  O500  1  0.57079777  0.98091227  0.07263053  1
  O  O501  1  0.57227861  0.97963307  0.32424406  1
  O  O502  1  0.57335138  0.98061713  0.57624318  1
  O  O503  1  0.57111523  0.98055172  0.82456108  1
  O  O504  1  0.42550249  0.02046023  0.17379005  1
  O  O505  1  0.42656166  0.02126308  0.42553718  1
  O  O506  1  0.42676312  0.02046445  0.67644873  1
  O  O507  1  0.42821130  0.01950876  0.92638252  1
  O  O508  1  0.42778116  0.35180379  0.17617446  1
  O  O509  1  0.42730543  0.35316382  0.42697858  1
  O  O510  1  0.42745427  0.35173624  0.67510366  1
  O  O511  1  0.42753558  0.35118245  0.92542016  1
  O  O512  1  0.42696672  0.68793469  0.17493839  1
  O  O513  1  0.42679683  0.68556399  0.42609397  1
  O  O514  1  0.42692510  0.68729793  0.67668683  1
  O  O515  1  0.42815877  0.68605910  0.92650069  1
  O  O516  1  0.92813220  0.01924464  0.17688593  1
  O  O517  1  0.92550126  0.02014005  0.42425893  1
  O  O518  1  0.92730606  0.01947908  0.67658527  1
  O  O519  1  0.92676066  0.01910064  0.92575312  1
  O  O520  1  0.92817077  0.35292659  0.17587138  1
  O  O521  1  0.92710155  0.35147846  0.42486590  1
  O  O522  1  0.92615408  0.35305476  0.67524015  1
  O  O523  1  0.92772343  0.35377746  0.92568374  1
  O  O524  1  0.92621764  0.68810775  0.17461721  1
  O  O525  1  0.92719799  0.68772308  0.42414508  1
  O  O526  1  0.92658543  0.68673624  0.67444981  1
  O  O527  1  0.92654536  0.68824491  0.92569482  1
  O  O528  1  0.17612135  0.02009910  0.20045616  1
  O  O529  1  0.17563895  0.02024332  0.45088325  1
  O  O530  1  0.17707222  0.02008180  0.69964789  1
  O  O531  1  0.17676600  0.01898236  0.94871175  1
  O  O532  1  0.17858908  0.35352641  0.19850361  1
  O  O533  1  0.17748431  0.35167624  0.44876191  1
  O  O534  1  0.17674580  0.35208395  0.69987115  1
  O  O535  1  0.17750723  0.35433412  0.95049036  1
  O  O536  1  0.17612123  0.68611755  0.20079686  1
  O  O537  1  0.17764946  0.68573964  0.44808086  1
  O  O538  1  0.17742337  0.68470553  0.69984591  1
  O  O539  1  0.17667951  0.68651786  0.94986445  1
  O  O540  1  0.67561334  0.01882802  0.19809090  1
  O  O541  1  0.67588807  0.01867295  0.44957506  1
  O  O542  1  0.67614232  0.01990738  0.70096499  1
  O  O543  1  0.67650570  0.01902487  0.94796808  1
  O  O544  1  0.67620820  0.35354915  0.19952885  1
  O  O545  1  0.67710730  0.35430422  0.44978536  1
  O  O546  1  0.67766327  0.35339114  0.69775505  1
  O  O547  1  0.67858112  0.35316094  0.94666837  1
  O  O548  1  0.67614081  0.68637093  0.19987791  1
  O  O549  1  0.67617452  0.68622848  0.45157564  1
  O  O550  1  0.67675702  0.68791650  0.70097379  1
  O  O551  1  0.67670054  0.68818911  0.94917099  1
  O  O552  1  0.32361165  0.31476746  0.05112756  1
  O  O553  1  0.32335713  0.31527648  0.30166380  1
  O  O554  1  0.32218020  0.31363158  0.55242373  1
  O  O555  1  0.32387126  0.31310355  0.79927128  1
  O  O556  1  0.32317444  0.64575554  0.05021833  1
  O  O557  1  0.32367677  0.64766825  0.30084257  1
  O  O558  1  0.32313590  0.64782191  0.55172947  1
  O  O559  1  0.32433225  0.64476357  0.80118832  1
  O  O560  1  0.32307976  0.97975378  0.04919671  1
  O  O561  1  0.32306896  0.97933782  0.30070057  1
  O  O562  1  0.32406339  0.97924191  0.54961912  1
  O  O563  1  0.32193645  0.98016139  0.80184800  1
  O  O564  1  0.82407634  0.31353157  0.04943898  1
  O  O565  1  0.82380039  0.31275254  0.29915583  1
  O  O566  1  0.82257297  0.31464908  0.55028253  1
  O  O567  1  0.82285591  0.31542443  0.80019021  1
  O  O568  1  0.82387551  0.64737506  0.04902831  1
  O  O569  1  0.82325464  0.64598823  0.30103116  1
  O  O570  1  0.82337441  0.64568034  0.55002134  1
  O  O571  1  0.82381377  0.64610432  0.79917493  1
  O  O572  1  0.82252115  0.98175009  0.05067754  1
  O  O573  1  0.82201402  0.98189534  0.30152146  1
  O  O574  1  0.82306256  0.97918356  0.55103670  1
  O  O575  1  0.82130803  0.98087443  0.80117874  1
  O  O576  1  0.42572127  0.14715514  0.17398250  1
  O  O577  1  0.42631700  0.14846841  0.42632469  1
  O  O578  1  0.42821414  0.14772476  0.67731060  1
  O  O579  1  0.42695241  0.14675186  0.92533300  1
  O  O580  1  0.42797170  0.47892321  0.17480562  1
  O  O581  1  0.42872723  0.48040812  0.42727098  1
  O  O582  1  0.42758494  0.47872098  0.67479683  1
  O  O583  1  0.42747845  0.47822148  0.92463479  1
  O  O584  1  0.42694610  0.81497704  0.17543830  1
  O  O585  1  0.42684570  0.81265601  0.42611991  1
  O  O586  1  0.42643951  0.81439149  0.67629582  1
  O  O587  1  0.42707324  0.81351153  0.92679610  1
  O  O588  1  0.92739846  0.14669489  0.17592715  1
  O  O589  1  0.92562799  0.14677494  0.42413135  1
  O  O590  1  0.92754269  0.14701202  0.67660595  1
  O  O591  1  0.92748025  0.14595176  0.92529057  1
  O  O592  1  0.92799875  0.48025580  0.17691955  1
  O  O593  1  0.92776813  0.47849749  0.42472403  1
  O  O594  1  0.92705243  0.47990499  0.67388513  1
  O  O595  1  0.92743580  0.48113960  0.92631386  1
  O  O596  1  0.92647279  0.81518566  0.17539596  1
  O  O597  1  0.92665710  0.81494510  0.42523461  1
  O  O598  1  0.92581477  0.81350887  0.67490130  1
  O  O599  1  0.92712779  0.81546920  0.92615126  1
  O  O600  1  0.07421313  0.18620662  0.07618156  1
  O  O601  1  0.07247980  0.18597094  0.32404812  1
  O  O602  1  0.07229056  0.18645694  0.57425328  1
  O  O603  1  0.07328491  0.18487779  0.82394984  1
  O  O604  1  0.07313736  0.51844238  0.07476134  1
  O  O605  1  0.07343739  0.51839100  0.32414887  1
  O  O606  1  0.07471664  0.51990902  0.57500644  1
  O  O607  1  0.07442190  0.52026153  0.82555913  1
  O  O608  1  0.07207005  0.85322568  0.07346788  1
  O  O609  1  0.07212625  0.85288620  0.32274028  1
  O  O610  1  0.07316464  0.85256650  0.57388932  1
  O  O611  1  0.07268470  0.85453428  0.82485480  1
  O  O612  1  0.57276915  0.18620622  0.07283135  1
  O  O613  1  0.57298716  0.18781698  0.32434991  1
  O  O614  1  0.57217021  0.18600251  0.57385986  1
  O  O615  1  0.57154910  0.18581520  0.82306801  1
  O  O616  1  0.57421400  0.52102197  0.07483894  1
  O  O617  1  0.57370227  0.51980192  0.32613767  1
  O  O618  1  0.57125584  0.51945668  0.57361856  1
  O  O619  1  0.57422412  0.51989838  0.82578416  1
  O  O620  1  0.57234369  0.85370555  0.07286515  1
  O  O621  1  0.57235812  0.85229823  0.32395699  1
  O  O622  1  0.57337700  0.85397264  0.57675051  1
  O  O623  1  0.57097536  0.85328998  0.82415661  1
  O  O624  1  0.32292916  0.18745905  0.05079167  1
  O  O625  1  0.32311566  0.18820435  0.30035275  1
  O  O626  1  0.32151908  0.18617501  0.55230328  1
  O  O627  1  0.32379292  0.18646514  0.79979300  1
  O  O628  1  0.32435826  0.51866933  0.05157733  1
  O  O629  1  0.32429317  0.52060682  0.30117977  1
  O  O630  1  0.32343241  0.52065406  0.54966545  1
  O  O631  1  0.32387400  0.51763681  0.80044263  1
  O  O632  1  0.32295809  0.85303875  0.04915536  1
  O  O633  1  0.32280259  0.85204132  0.30147670  1
  O  O634  1  0.32412634  0.85244263  0.55039937  1
  O  O635  1  0.32173157  0.85249265  0.80191555  1
  O  O636  1  0.82401622  0.18660945  0.04852559  1
  O  O637  1  0.82319508  0.18579187  0.29945182  1
  O  O638  1  0.82279437  0.18736498  0.55011673  1
  O  O639  1  0.82329488  0.18838641  0.79905806  1
  O  O640  1  0.82414846  0.52041861  0.04942938  1
  O  O641  1  0.82351128  0.51868956  0.30096504  1
  O  O642  1  0.82343686  0.51855586  0.55100024  1
  O  O643  1  0.82361790  0.51893821  0.80020768  1
  O  O644  1  0.82228183  0.85485907  0.05030183  1
  O  O645  1  0.82215183  0.85477876  0.29993975  1
  O  O646  1  0.82300817  0.85211294  0.55061138  1
  O  O647  1  0.82267300  0.85345916  0.80230667  1
  O  O648  1  0.17621236  0.14722635  0.20055669  1
  O  O649  1  0.17554560  0.14712051  0.45036146  1
  O  O650  1  0.17725180  0.14718174  0.69992832  1
  O  O651  1  0.17698822  0.14625432  0.94968261  1
  O  O652  1  0.17893375  0.48081485  0.19902462  1
  O  O653  1  0.17710089  0.47874265  0.45021926  1
  O  O654  1  0.17679074  0.47914167  0.69918792  1
  O  O655  1  0.17759005  0.48122375  0.94969215  1
  O  O656  1  0.17599932  0.81280583  0.20045523  1
  O  O657  1  0.17827436  0.81315273  0.44869278  1
  O  O658  1  0.17697955  0.81188304  0.69990411  1
  O  O659  1  0.17681730  0.81377612  0.94864102  1
  O  O660  1  0.67642707  0.14588146  0.19908893  1
  O  O661  1  0.67616356  0.14593900  0.44971047  1
  O  O662  1  0.67602480  0.14682823  0.70081199  1
  O  O663  1  0.67648078  0.14608325  0.94924542  1
  O  O664  1  0.67611696  0.48039994  0.19914308  1
  O  O665  1  0.67715881  0.48135920  0.44952491  1
  O  O666  1  0.67756470  0.48062202  0.69822670  1
  O  O667  1  0.67770294  0.48069185  0.94723475  1
  O  O668  1  0.67542662  0.81342280  0.20028270  1
  O  O669  1  0.67526101  0.81313235  0.45080053  1
  O  O670  1  0.67674511  0.81511850  0.69964532  1
  O  O671  1  0.67672798  0.81535951  0.94905487  1
