# generated using pymatgen
data_Na2MnFe(PO4)2
_symmetry_space_group_name_H-M   'P 1'
_cell_length_a   22.34618612
_cell_length_b   20.09765543
_cell_length_c   19.44739357
_cell_angle_alpha   89.93637671
_cell_angle_beta   90.06043202
_cell_angle_gamma   89.98178460
_symmetry_Int_Tables_number   1
_chemical_formula_structural   Na2MnFe(PO4)2
_chemical_formula_sum   'Na96 Mn48 Fe48 P96 O384'
_cell_volume   8733.92945643
_cell_formula_units_Z   48
loop_
 _symmetry_equiv_pos_site_id
 _symmetry_equiv_pos_as_xyz
  1  'x, y, z'
loop_
 _atom_site_type_symbol
 _atom_site_label
 _atom_site_symmetry_multiplicity
 _atom_site_fract_x
 _atom_site_fract_y
 _atom_site_fract_z
 _atom_site_occupancy
  Na  Na0  1  0.13973123  0.24897793  0.24434159  1
  Na  Na1  1  0.14024537  0.24911664  0.49356870  1
  Na  Na2  1  0.14036296  0.25102999  0.74280691  1
  Na  Na3  1  0.13987903  0.25057767  0.99247412  1
  Na  Na4  1  0.13950345  0.58409663  0.24400734  1
  Na  Na5  1  0.13947030  0.58315325  0.49414068  1
  Na  Na6  1  0.13985126  0.58490573  0.74386394  1
  Na  Na7  1  0.13981363  0.58377629  0.99271653  1
  Na  Na8  1  0.13937568  0.91751999  0.24409540  1
  Na  Na9  1  0.13910009  0.91749590  0.49347768  1
  Na  Na10  1  0.13962453  0.91807161  0.74191094  1
  Na  Na11  1  0.13978169  0.91638018  0.99278059  1
  Na  Na12  1  0.64064252  0.24931241  0.24348257  1
  Na  Na13  1  0.64122196  0.24852883  0.49281159  1
  Na  Na14  1  0.64089658  0.24885619  0.74449729  1
  Na  Na15  1  0.64036793  0.24929473  0.99412920  1
  Na  Na16  1  0.64067879  0.58446474  0.24441950  1
  Na  Na17  1  0.64026444  0.58362990  0.49418951  1
  Na  Na18  1  0.64053278  0.58300043  0.74424900  1
  Na  Na19  1  0.64086720  0.58389891  0.99411157  1
  Na  Na20  1  0.64041639  0.91847686  0.24372193  1
  Na  Na21  1  0.63985018  0.91739813  0.49382732  1
  Na  Na22  1  0.64047280  0.91632111  0.74296485  1
  Na  Na23  1  0.64050777  0.91616898  0.99503672  1
  Na  Na24  1  0.35961804  0.08321463  0.00533474  1
  Na  Na25  1  0.35991414  0.08276101  0.25629864  1
  Na  Na26  1  0.35922266  0.08215738  0.50542971  1
  Na  Na27  1  0.35956489  0.08364635  0.75418219  1
  Na  Na28  1  0.35986251  0.41677053  0.00542143  1
  Na  Na29  1  0.35961698  0.41553333  0.25593667  1
  Na  Na30  1  0.35942524  0.41629282  0.50634830  1
  Na  Na31  1  0.35976700  0.41866477  0.75643200  1
  Na  Na32  1  0.35963304  0.74985101  0.00512093  1
  Na  Na33  1  0.35981067  0.75045875  0.25694193  1
  Na  Na34  1  0.35973525  0.75052284  0.50767446  1
  Na  Na35  1  0.35927337  0.75180472  0.75614587  1
  Na  Na36  1  0.86024626  0.08212014  0.00757684  1
  Na  Na37  1  0.86011038  0.08398349  0.25691530  1
  Na  Na38  1  0.85953880  0.08141004  0.50611258  1
  Na  Na39  1  0.85996067  0.08097198  0.75560331  1
  Na  Na40  1  0.86044587  0.41649442  0.00672478  1
  Na  Na41  1  0.85979761  0.41583403  0.25698892  1
  Na  Na42  1  0.86007098  0.41454212  0.50687720  1
  Na  Na43  1  0.86036683  0.41558155  0.75658364  1
  Na  Na44  1  0.85993491  0.75092592  0.00678351  1
  Na  Na45  1  0.86058158  0.75183590  0.25700279  1
  Na  Na46  1  0.86029138  0.75042947  0.50783392  1
  Na  Na47  1  0.86013901  0.74945949  0.75710346  1
  Na  Na48  1  0.10940443  0.08373338  0.11908493  1
  Na  Na49  1  0.10934146  0.08227649  0.36797192  1
  Na  Na50  1  0.10969772  0.08254114  0.61699435  1
  Na  Na51  1  0.10914330  0.08222278  0.86721865  1
  Na  Na52  1  0.10879432  0.41765135  0.11764315  1
  Na  Na53  1  0.10886424  0.41683737  0.36956249  1
  Na  Na54  1  0.10909085  0.41748264  0.61837239  1
  Na  Na55  1  0.10937472  0.41803380  0.86828072  1
  Na  Na56  1  0.10904131  0.75014655  0.11916370  1
  Na  Na57  1  0.10859107  0.75094741  0.36970482  1
  Na  Na58  1  0.10863983  0.75058026  0.61850684  1
  Na  Na59  1  0.10894640  0.74982899  0.86761672  1
  Na  Na60  1  0.60994389  0.08275809  0.11869430  1
  Na  Na61  1  0.61045105  0.08355948  0.36779920  1
  Na  Na62  1  0.61036204  0.08253086  0.61705810  1
  Na  Na63  1  0.60985114  0.08264798  0.86952189  1
  Na  Na64  1  0.60951576  0.41517748  0.11930425  1
  Na  Na65  1  0.60952948  0.41718025  0.36872730  1
  Na  Na66  1  0.60961882  0.41792312  0.61905804  1
  Na  Na67  1  0.61011139  0.41617076  0.86938527  1
  Na  Na68  1  0.60982147  0.74987381  0.11950149  1
  Na  Na69  1  0.60935035  0.75149175  0.36994433  1
  Na  Na70  1  0.60932418  0.75172505  0.61891323  1
  Na  Na71  1  0.60996174  0.75026254  0.86892900  1
  Na  Na72  1  0.39051468  0.24897666  0.13028750  1
  Na  Na73  1  0.39035416  0.24944604  0.38104678  1
  Na  Na74  1  0.39060983  0.25021751  0.63038811  1
  Na  Na75  1  0.39085932  0.25015256  0.88025363  1
  Na  Na76  1  0.39059627  0.58262393  0.13023575  1
  Na  Na77  1  0.39078618  0.58470779  0.38132842  1
  Na  Na78  1  0.39037323  0.58473666  0.63223196  1
  Na  Na79  1  0.39006973  0.58319714  0.88152427  1
  Na  Na80  1  0.39044470  0.91559343  0.13053371  1
  Na  Na81  1  0.39046206  0.91684798  0.38205332  1
  Na  Na82  1  0.38934182  0.91720075  0.63084952  1
  Na  Na83  1  0.39011727  0.91737877  0.88001174  1
  Na  Na84  1  0.89076404  0.24963635  0.13225401  1
  Na  Na85  1  0.89017075  0.24869288  0.38240737  1
  Na  Na86  1  0.89036767  0.24900947  0.63105542  1
  Na  Na87  1  0.89125427  0.24972451  0.88144861  1
  Na  Na88  1  0.89102495  0.58433378  0.13060427  1
  Na  Na89  1  0.89126392  0.58386997  0.38248607  1
  Na  Na90  1  0.89100996  0.58299095  0.63156452  1
  Na  Na91  1  0.89068165  0.58282163  0.88238103  1
  Na  Na92  1  0.89083862  0.91718878  0.13284607  1
  Na  Na93  1  0.89017977  0.91624157  0.38179703  1
  Na  Na94  1  0.89019638  0.91536486  0.63234977  1
  Na  Na95  1  0.89015567  0.91536042  0.88123692  1
  Mn  Mn96  1  0.49985512  0.66753259  0.75052107  1
  Mn  Mn97  1  0.25057475  0.33454249  0.87323533  1
  Mn  Mn98  1  0.24888649  0.83443311  0.37579441  1
  Mn  Mn99  1  0.24974912  0.83429972  0.87440302  1
  Mn  Mn100  1  0.75115988  0.66824555  0.12464560  1
  Mn  Mn101  1  0.24965493  0.66697903  0.62534910  1
  Mn  Mn102  1  0.24998183  0.66691160  0.12471110  1
  Mn  Mn103  1  0.50080658  0.16660413  0.74940350  1
  Mn  Mn104  1  0.74958089  0.33134383  0.62560237  1
  Mn  Mn105  1  0.50017985  -0.00083401  -0.00061128  1
  Mn  Mn106  1  0.25010987  0.16616733  0.87340158  1
  Mn  Mn107  1  0.50012562  0.33440759  0.50037131  1
  Mn  Mn108  1  0.75030792  0.49890254  0.62482299  1
  Mn  Mn109  1  0.24973139  0.83356656  0.12452149  1
  Mn  Mn110  1  0.24882850  0.33208047  0.37568423  1
  Mn  Mn111  1  0.50009375  0.50006337  0.25020672  1
  Mn  Mn112  1  0.75048359  0.16522082  0.87513388  1
  Mn  Mn113  1  0.50117054  0.33421765  0.75029809  1
  Mn  Mn114  1  0.75029330  0.50016401  0.12593154  1
  Mn  Mn115  1  0.24987159  0.49962063  0.37481864  1
  Mn  Mn116  1  -0.00074272  0.50113705  0.24996984  1
  Mn  Mn117  1  0.74977856  -0.00138489  0.87583726  1
  Mn  Mn118  1  0.49930917  0.50204518  0.49903967  1
  Mn  Mn119  1  0.24947336  0.16623208  0.12415811  1
  Mn  Mn120  1  0.00046790  0.16617801  0.74982845  1
  Mn  Mn121  1  0.24986445  0.50013129  0.12474091  1
  Mn  Mn122  1  -0.00038619  0.49982601  0.75005099  1
  Mn  Mn123  1  -0.00022306  0.16574521  0.50054372  1
  Mn  Mn124  1  0.49979121  0.83318468  0.25080697  1
  Mn  Mn125  1  0.00006729  0.83337653  -0.00011295  1
  Mn  Mn126  1  0.75071653  0.66659025  0.62583180  1
  Mn  Mn127  1  0.50065529  0.66685342  -0.00017575  1
  Mn  Mn128  1  0.74966759  0.83494826  0.37603636  1
  Mn  Mn129  1  0.24993477  0.33374120  0.62456313  1
  Mn  Mn130  1  0.75029134  0.66749416  0.37533730  1
  Mn  Mn131  1  0.24990637  -0.00008168  0.12465751  1
  Mn  Mn132  1  0.74984794  0.33243356  0.12534400  1
  Mn  Mn133  1  -0.00009585  0.16637341  -0.00026099  1
  Mn  Mn134  1  0.24940865  0.33302391  0.12461130  1
  Mn  Mn135  1  0.24977081  0.66680238  0.37584380  1
  Mn  Mn136  1  -0.00056462  0.33314547  0.25008372  1
  Mn  Mn137  1  0.50000665  0.16627365  0.24956216  1
  Mn  Mn138  1  0.50112425  0.49870236  0.00127753  1
  Mn  Mn139  1  0.75108671  0.49915172  0.37499294  1
  Mn  Mn140  1  0.49980692  -0.00049409  0.74970918  1
  Mn  Mn141  1  0.75137042  0.33294611  0.87492158  1
  Mn  Mn142  1  0.50079966  0.16650996  0.49938734  1
  Mn  Mn143  1  0.75004678  0.66706205  0.87515245  1
  Fe  Fe144  1  0.74980188  0.83341805  0.62561794  1
  Fe  Fe145  1  0.49982960  0.66727324  0.25044472  1
  Fe  Fe146  1  0.50009776  0.83383473  0.74922080  1
  Fe  Fe147  1  0.49991213  0.33243248  -0.00044031  1
  Fe  Fe148  1  -0.00041693  0.66731150  0.50037062  1
  Fe  Fe149  1  0.24986382  0.50076921  0.62535888  1
  Fe  Fe150  1  -0.00018726  0.66632813  0.74989618  1
  Fe  Fe151  1  0.24980226  0.00020276  0.37515087  1
  Fe  Fe152  1  -0.00030866  0.50024193  0.50030057  1
  Fe  Fe153  1  0.49998200  0.16601208  0.00007163  1
  Fe  Fe154  1  0.49986007  0.33277175  0.24958977  1
  Fe  Fe155  1  0.49924681  0.83415865  0.49971357  1
  Fe  Fe156  1  0.75022342  0.49970006  0.87534447  1
  Fe  Fe157  1  0.00019807  0.33327279  0.74999811  1
  Fe  Fe158  1  0.24946782  0.50120772  0.87492300  1
  Fe  Fe159  1  -0.00001138  0.83354160  0.25023270  1
  Fe  Fe160  1  0.75015112  0.83349870  0.87558608  1
  Fe  Fe161  1  0.49974956  -0.00034085  0.24943018  1
  Fe  Fe162  1  0.74995576  0.83442987  0.12591773  1
  Fe  Fe163  1  -0.00026707  -0.00009957  0.25016100  1
  Fe  Fe164  1  0.74991234  0.33189702  0.37545813  1
  Fe  Fe165  1  0.25004640  0.16587805  0.37467911  1
  Fe  Fe166  1  0.00030833  0.16645704  0.25023061  1
  Fe  Fe167  1  -0.00068434  -0.00091161  0.49927226  1
  Fe  Fe168  1  0.50004513  0.50063401  0.75031362  1
  Fe  Fe169  1  0.24899676  0.83436365  0.62540457  1
  Fe  Fe170  1  0.50010980  0.66796390  0.50098232  1
  Fe  Fe171  1  0.24910796  0.00086498  0.62391343  1
  Fe  Fe172  1  0.75057756  0.16509538  0.62430888  1
  Fe  Fe173  1  0.49988436  0.83296592  0.00037150  1
  Fe  Fe174  1  0.00012530  -0.00032053  0.00011666  1
  Fe  Fe175  1  -0.00080630  0.83342381  0.50025486  1
  Fe  Fe176  1  0.00034592  0.33352185  0.00038689  1
  Fe  Fe177  1  0.49987068  -0.00000872  0.49932322  1
  Fe  Fe178  1  0.75009338  0.16578517  0.37492922  1
  Fe  Fe179  1  0.24953665  0.00047266  0.87337175  1
  Fe  Fe180  1  0.75066164  0.00043769  0.12567739  1
  Fe  Fe181  1  -0.00018865  0.66705721  -0.00007193  1
  Fe  Fe182  1  0.75044909  0.00078400  0.37481917  1
  Fe  Fe183  1  -0.00016248  0.83279087  0.74983397  1
  Fe  Fe184  1  0.00014604  0.66726614  0.25085295  1
  Fe  Fe185  1  0.74988892  -0.00057585  0.62474012  1
  Fe  Fe186  1  -0.00028213  -0.00109945  0.74937653  1
  Fe  Fe187  1  0.24962669  0.66759391  0.87434032  1
  Fe  Fe188  1  0.00023155  0.33286711  0.50013925  1
  Fe  Fe189  1  -0.00001526  0.50051876  -0.00034616  1
  Fe  Fe190  1  0.24989638  0.16655255  0.62397576  1
  Fe  Fe191  1  0.75084755  0.16659041  0.12583284  1
  P  P192  1  0.04218193  0.25067506  0.10255598  1
  P  P193  1  0.04156877  0.24872590  0.35304697  1
  P  P194  1  0.04221145  0.25099129  0.60281566  1
  P  P195  1  0.04233523  0.25130883  0.85259360  1
  P  P196  1  0.04124105  0.58417591  0.10166547  1
  P  P197  1  0.04166188  0.58504860  0.35365302  1
  P  P198  1  0.04082630  0.58402454  0.60193986  1
  P  P199  1  0.04142567  0.58455893  0.85294968  1
  P  P200  1  0.04204297  0.91789474  0.10300385  1
  P  P201  1  0.04047656  0.91651497  0.35221068  1
  P  P202  1  0.04042053  0.91659490  0.60183800  1
  P  P203  1  0.04118738  0.91615820  0.85118466  1
  P  P204  1  0.54136746  0.24957368  0.10170583  1
  P  P205  1  0.54244449  0.25087543  0.35200692  1
  P  P206  1  0.54370382  0.25043397  0.60277330  1
  P  P207  1  0.54316180  0.24959893  0.85393582  1
  P  P208  1  0.54335022  0.58358098  0.10403219  1
  P  P209  1  0.54243820  0.58577258  0.35293612  1
  P  P210  1  0.54218395  0.58527718  0.60306481  1
  P  P211  1  0.54244041  0.58235145  0.85274548  1
  P  P212  1  0.54216056  0.91511035  0.10288612  1
  P  P213  1  0.54192188  0.91837597  0.35304357  1
  P  P214  1  0.54081633  0.91684444  0.60144092  1
  P  P215  1  0.54246974  0.91490245  0.85244719  1
  P  P216  1  0.45797183  0.08195633  0.14664694  1
  P  P217  1  0.45811704  0.08203784  0.39668610  1
  P  P218  1  0.45781530  0.08282321  0.64570352  1
  P  P219  1  0.45779170  0.08417949  0.89722778  1
  P  P220  1  0.45791672  0.41467361  0.14724356  1
  P  P221  1  0.45695839  0.41696560  0.39631848  1
  P  P222  1  0.45786221  0.41883127  0.64772927  1
  P  P223  1  0.45823901  0.41579837  0.89740816  1
  P  P224  1  0.45759845  0.74904480  0.14758161  1
  P  P225  1  0.45836744  0.75014096  0.39867184  1
  P  P226  1  0.45736557  0.75196877  0.64704382  1
  P  P227  1  0.45799137  0.75179192  0.89706834  1
  P  P228  1  0.95887995  0.08349575  0.14843168  1
  P  P229  1  0.95801447  0.08175447  0.39691449  1
  P  P230  1  0.95835448  0.08123799  0.64708149  1
  P  P231  1  0.95805915  0.08111528  0.89714767  1
  P  P232  1  0.95728345  0.41716774  0.14630829  1
  P  P233  1  0.95856145  0.41647191  0.39886558  1
  P  P234  1  0.95810294  0.41515245  0.64694641  1
  P  P235  1  0.95900372  0.41632850  0.89836962  1
  P  P236  1  0.95895100  0.74985102  0.14857934  1
  P  P237  1  0.95822626  0.75043139  0.39837109  1
  P  P238  1  0.95864483  0.74955931  0.64805791  1
  P  P239  1  0.95773975  0.74880434  0.89704878  1
  P  P240  1  0.20723539  0.08312859  0.22865222  1
  P  P241  1  0.20811967  0.08326620  0.47684423  1
  P  P242  1  0.20804469  0.08370339  0.72564623  1
  P  P243  1  0.20723321  0.08197284  0.97608526  1
  P  P244  1  0.20626949  0.41622945  0.22796527  1
  P  P245  1  0.20689518  0.41682393  0.47888739  1
  P  P246  1  0.20772719  0.41910413  0.72750290  1
  P  P247  1  0.20765308  0.41789989  0.97655072  1
  P  P248  1  0.20692144  0.75060656  0.22828428  1
  P  P249  1  0.20683981  0.75065288  0.47931923  1
  P  P250  1  0.20749002  0.75173604  0.72772712  1
  P  P251  1  0.20709213  0.74934431  0.97668023  1
  P  P252  1  0.70895650  0.08377058  0.22732639  1
  P  P253  1  0.70874279  0.08274416  0.47698376  1
  P  P254  1  0.70862669  0.08243792  0.72615034  1
  P  P255  1  0.70777071  0.08246476  0.97946736  1
  P  P256  1  0.70744744  0.41568226  0.22905632  1
  P  P257  1  0.70804699  0.41452601  0.47738902  1
  P  P258  1  0.70758338  0.41614348  0.72882844  1
  P  P259  1  0.70841219  0.41716492  0.97766795  1
  P  P260  1  0.70812893  0.75215942  0.22790203  1
  P  P261  1  0.70765541  0.75083167  0.47930297  1
  P  P262  1  0.70801237  0.75123967  0.72815105  1
  P  P263  1  0.70804231  0.75202336  0.97818883  1
  P  P264  1  0.29260422  0.24999750  0.02087662  1
  P  P265  1  0.29208719  0.24852384  0.27261031  1
  P  P266  1  0.29216345  0.24815041  0.52183703  1
  P  P267  1  0.29306736  0.24993091  0.77021354  1
  P  P268  1  0.29245082  0.58360091  0.02054778  1
  P  P269  1  0.29294132  0.58359230  0.27200464  1
  P  P270  1  0.29237576  0.58239151  0.52305081  1
  P  P271  1  0.29121822  0.58423987  0.77306234  1
  P  P272  1  0.29267624  0.91688192  0.02079555  1
  P  P273  1  0.29228952  0.91798460  0.27297846  1
  P  P274  1  0.29030943  0.91722568  0.52319333  1
  P  P275  1  0.29136582  0.91870822  0.77074652  1
  P  P276  1  0.79305168  0.24826108  0.02305837  1
  P  P277  1  0.79163880  0.24902556  0.27362039  1
  P  P278  1  0.79218974  0.24743695  0.52179751  1
  P  P279  1  0.79355211  0.24811028  0.77151142  1
  P  P280  1  0.79280206  0.58332942  0.02155416  1
  P  P281  1  0.79362891  0.58405606  0.27221781  1
  P  P282  1  0.79330357  0.58289753  0.52217434  1
  P  P283  1  0.79265174  0.58192105  0.77312601  1
  P  P284  1  0.79207850  0.91644482  0.02416188  1
  P  P285  1  0.79213177  0.91891055  0.27234633  1
  P  P286  1  0.79141356  0.91657153  0.52368592  1
  P  P287  1  0.79191300  0.91494190  0.77223799  1
  O  O288  1  0.03674220  0.24994922  0.18249279  1
  O  O289  1  0.03612480  0.24905441  0.43297701  1
  O  O290  1  0.03707774  0.25101561  0.68277037  1
  O  O291  1  0.03688847  0.25112986  0.93254091  1
  O  O292  1  0.03628645  0.58410674  0.18165608  1
  O  O293  1  0.03596447  0.58474327  0.43348731  1
  O  O294  1  0.03581681  0.58371764  0.68191444  1
  O  O295  1  0.03623598  0.58450165  0.93279706  1
  O  O296  1  0.03662692  0.91769826  0.18282501  1
  O  O297  1  0.03553951  0.91670672  0.43207218  1
  O  O298  1  0.03571828  0.91648888  0.68172527  1
  O  O299  1  0.03680059  0.91618866  0.93114758  1
  O  O300  1  0.53618474  0.24993339  0.18169995  1
  O  O301  1  0.53755168  0.25049712  0.43195241  1
  O  O302  1  0.53892166  0.25020405  0.68276191  1
  O  O303  1  0.53742023  0.24922745  0.93383786  1
  O  O304  1  0.53788776  0.58424921  0.18393923  1
  O  O305  1  0.53690787  0.58603863  0.43290370  1
  O  O306  1  0.53683875  0.58432830  0.68301956  1
  O  O307  1  0.53775292  0.58239075  0.93274122  1
  O  O308  1  0.53673353  0.91577727  0.18279043  1
  O  O309  1  0.53652257  0.91849832  0.43292678  1
  O  O310  1  0.53634757  0.91613152  0.68143006  1
  O  O311  1  0.53721175  0.91484481  0.93240150  1
  O  O312  1  0.46340902  0.08272998  0.06671950  1
  O  O313  1  0.46316934  0.08193332  0.31669642  1
  O  O314  1  0.46301742  0.08235141  0.56574728  1
  O  O315  1  0.46298524  0.08387174  0.81725207  1
  O  O316  1  0.46359704  0.41436979  0.06732356  1
  O  O317  1  0.46211264  0.41623957  0.31637587  1
  O  O318  1  0.46268292  0.41913174  0.56772373  1
  O  O319  1  0.46374177  0.41695847  0.81748161  1
  O  O320  1  0.46305195  0.74984156  0.06766512  1
  O  O321  1  0.46303749  0.74987093  0.31868524  1
  O  O322  1  0.46246008  0.75148053  0.56716322  1
  O  O323  1  0.46333437  0.75191515  0.81713769  1
  O  O324  1  0.96346551  0.08313896  0.06846158  1
  O  O325  1  0.96351965  0.08255238  0.31709119  1
  O  O326  1  0.96365951  0.08117545  0.56715678  1
  O  O327  1  0.96352107  0.08112484  0.81722829  1
  O  O328  1  0.96281829  0.41693828  0.06643791  1
  O  O329  1  0.96320312  0.41695075  0.31885615  1
  O  O330  1  0.96368169  0.41544398  0.56710520  1
  O  O331  1  0.96372783  0.41623213  0.81835687  1
  O  O332  1  0.96404470  0.74988661  0.06864877  1
  O  O333  1  0.96328529  0.75073948  0.31851836  1
  O  O334  1  0.96348580  0.74976472  0.56817647  1
  O  O335  1  0.96306238  0.74889104  0.81722420  1
  O  O336  1  0.21215051  0.08223307  0.05609652  1
  O  O337  1  0.21234954  0.08314936  0.30859786  1
  O  O338  1  0.21326545  0.08347604  0.55678509  1
  O  O339  1  0.21290161  0.08282048  0.80561298  1
  O  O340  1  0.21234896  0.41735976  0.05658853  1
  O  O341  1  0.21115005  0.41595570  0.30800740  1
  O  O342  1  0.21238002  0.41733947  0.55884547  1
  O  O343  1  0.21325521  0.41941289  0.80744819  1
  O  O344  1  0.21218434  0.74953542  0.05667955  1
  O  O345  1  0.21186768  0.75064524  0.30832054  1
  O  O346  1  0.21203402  0.75115101  0.55928351  1
  O  O347  1  0.21299758  0.75103456  0.80765213  1
  O  O348  1  0.71317542  0.08268499  0.05933677  1
  O  O349  1  0.71392020  0.08385475  0.30726678  1
  O  O350  1  0.71379932  0.08267255  0.55686147  1
  O  O351  1  0.71319861  0.08186959  0.80616094  1
  O  O352  1  0.71341352  0.41683588  0.05768439  1
  O  O353  1  0.71280809  0.41493097  0.30899747  1
  O  O354  1  0.71304470  0.41450616  0.55741435  1
  O  O355  1  0.71314914  0.41683814  0.80879155  1
  O  O356  1  0.71351391  0.75223052  0.05812628  1
  O  O357  1  0.71304500  0.75191119  0.30790755  1
  O  O358  1  0.71301472  0.75097223  0.55924205  1
  O  O359  1  0.71319217  0.75136262  0.80814499  1
  O  O360  1  0.28695795  0.24907164  0.19260059  1
  O  O361  1  0.28663823  0.24793625  0.44189430  1
  O  O362  1  0.28766135  0.24952402  0.69027166  1
  O  O363  1  0.28787969  0.25019871  0.94085171  1
  O  O364  1  0.28798025  0.58378827  0.19197032  1
  O  O365  1  0.28739758  0.58275598  0.44309456  1
  O  O366  1  0.28618801  0.58363351  0.69304820  1
  O  O367  1  0.28702462  0.58382375  0.94057960  1
  O  O368  1  0.28776192  0.91736502  0.19294305  1
  O  O369  1  0.28546325  0.91792458  0.44323108  1
  O  O370  1  0.28560011  0.91829614  0.69089287  1
  O  O371  1  0.28774476  0.91725493  0.94080979  1
  O  O372  1  0.78669739  0.24878548  0.19361438  1
  O  O373  1  0.78657031  0.24795791  0.44189168  1
  O  O374  1  0.78808972  0.24769591  0.69154674  1
  O  O375  1  0.78826755  0.24845366  0.94305808  1
  O  O376  1  0.78854840  0.58418437  0.19220058  1
  O  O377  1  0.78838980  0.58327401  0.44219289  1
  O  O378  1  0.78758513  0.58221576  0.69312597  1
  O  O379  1  0.78713829  0.58281904  0.94159915  1
  O  O380  1  0.78689232  0.91868302  0.19246920  1
  O  O381  1  0.78710581  0.91735384  0.44371472  1
  O  O382  1  0.78641364  0.91515307  0.69239854  1
  O  O383  1  0.78715969  0.91593134  0.94415129  1
  O  O384  1  0.22803111  0.24978382  0.05556017  1
  O  O385  1  0.22770190  0.24770624  0.30797373  1
  O  O386  1  0.22795710  0.24869341  0.55765417  1
  O  O387  1  0.22876586  0.25030976  0.80552962  1
  O  O388  1  0.22818104  0.58362902  0.05612837  1
  O  O389  1  0.22839034  0.58364039  0.30674762  1
  O  O390  1  0.22791098  0.58238384  0.55818556  1
  O  O391  1  0.22704561  0.58475861  0.80896129  1
  O  O392  1  0.22820009  0.91677409  0.05576719  1
  O  O393  1  0.22772704  0.91862721  0.30786275  1
  O  O394  1  0.22615215  0.91663035  0.55899752  1
  O  O395  1  0.22731847  0.91884386  0.80707006  1
  O  O396  1  0.72858560  0.24763989  0.05818761  1
  O  O397  1  0.72743456  0.24924561  0.30939296  1
  O  O398  1  0.72813343  0.24678124  0.55809156  1
  O  O399  1  0.72929868  0.24900274  0.80692095  1
  O  O400  1  0.72868552  0.58405257  0.05731283  1
  O  O401  1  0.72915820  0.58342617  0.30705609  1
  O  O402  1  0.72883877  0.58324744  0.55699138  1
  O  O403  1  0.72832266  0.58180363  0.80851974  1
  O  O404  1  0.72788026  0.91659932  0.05999780  1
  O  O405  1  0.72796604  0.91924031  0.30835721  1
  O  O406  1  0.72709791  0.91592608  0.55906387  1
  O  O407  1  0.72778994  0.91459522  0.80842878  1
  O  O408  1  0.27152884  0.08326209  0.19316434  1
  O  O409  1  0.27220423  0.08307253  0.44055460  1
  O  O410  1  0.27224113  0.08413896  0.68993771  1
  O  O411  1  0.27168499  0.08162818  0.94089887  1
  O  O412  1  0.27085561  0.41633226  0.19333252  1
  O  O413  1  0.27115224  0.41607606  0.44351225  1
  O  O414  1  0.27193747  0.41889016  0.69171095  1
  O  O415  1  0.27203491  0.41843443  0.94137046  1
  O  O416  1  0.27141271  0.75044604  0.19342898  1
  O  O417  1  0.27118481  0.75087046  0.44412429  1
  O  O418  1  0.27159907  0.75213487  0.69178036  1
  O  O419  1  0.27144441  0.74929827  0.94134370  1
  O  O420  1  0.77310145  0.08397648  0.19124171  1
  O  O421  1  0.77283070  0.08299994  0.44074208  1
  O  O422  1  0.77291305  0.08282489  0.69069381  1
  O  O423  1  0.77200282  0.08187033  0.94379323  1
  O  O424  1  0.77177825  0.41579704  0.19380619  1
  O  O425  1  0.77241706  0.41408019  0.44209293  1
  O  O426  1  0.77185185  0.41531139  0.69341187  1
  O  O427  1  0.77274323  0.41774334  0.94220407  1
  O  O428  1  0.77252574  0.75271143  0.19260486  1
  O  O429  1  0.77195081  0.75111297  0.44394806  1
  O  O430  1  0.77231426  0.75143506  0.69260617  1
  O  O431  1  0.77221544  0.75164005  0.94227806  1
  O  O432  1  0.02298755  0.08399908  0.18440649  1
  O  O433  1  0.02206782  0.08133319  0.43328444  1
  O  O434  1  0.02251717  0.08114132  0.68307598  1
  O  O435  1  0.02225900  0.08139354  0.93314872  1
  O  O436  1  0.02137210  0.41713943  0.18241006  1
  O  O437  1  0.02271371  0.41628526  0.43468596  1
  O  O438  1  0.02214042  0.41516701  0.68344214  1
  O  O439  1  0.02309532  0.41610230  0.93444499  1
  O  O440  1  0.02294022  0.74961534  0.18506623  1
  O  O441  1  0.02222541  0.74999630  0.43484707  1
  O  O442  1  0.02266232  0.74911203  0.68445332  1
  O  O443  1  0.02190309  0.74879398  0.93325006  1
  O  O444  1  0.52212729  0.08169625  0.18278075  1
  O  O445  1  0.52243762  0.08177534  0.43232940  1
  O  O446  1  0.52216174  0.08254065  0.68107713  1
  O  O447  1  0.52206092  0.08407625  0.93289818  1
  O  O448  1  0.52206224  0.41495166  0.18340297  1
  O  O449  1  0.52136816  0.41776451  0.43155301  1
  O  O450  1  0.52230275  0.41911259  0.68300163  1
  O  O451  1  0.52241168  0.41449884  0.93349463  1
  O  O452  1  0.52183183  0.74881030  0.18358198  1
  O  O453  1  0.52254213  0.75004141  0.43454022  1
  O  O454  1  0.52163605  0.75188740  0.68301481  1
  O  O455  1  0.52222814  0.75191859  0.93304835  1
  O  O456  1  0.47731421  0.24974139  0.06538403  1
  O  O457  1  0.47805535  0.25081214  0.31661009  1
  O  O458  1  0.47912599  0.25012973  0.56802070  1
  O  O459  1  0.47906727  0.25003528  0.81780575  1
  O  O460  1  0.47914817  0.58319437  0.06831867  1
  O  O461  1  0.47821122  0.58531426  0.31697370  1
  O  O462  1  0.47787782  0.58599059  0.56726801  1
  O  O463  1  0.47803580  0.58264084  0.81740618  1
  O  O464  1  0.47802296  0.91486254  0.06671274  1
  O  O465  1  0.47776969  0.91837455  0.31685240  1
  O  O466  1  0.47658108  0.91774495  0.56573181  1
  O  O467  1  0.47813822  0.91493765  0.81669872  1
  O  O468  1  0.97797623  0.25098287  0.06656585  1
  O  O469  1  0.97744540  0.24826556  0.31693587  1
  O  O470  1  0.97797892  0.25087077  0.56697057  1
  O  O471  1  0.97817998  0.25100933  0.81651506  1
  O  O472  1  0.97718275  0.58439065  0.06542302  1
  O  O473  1  0.97760514  0.58565415  0.31717700  1
  O  O474  1  0.97678046  0.58441059  0.56577965  1
  O  O475  1  0.97731926  0.58460656  0.81672388  1
  O  O476  1  0.97788833  0.91784387  0.06671612  1
  O  O477  1  0.97655974  0.91598331  0.31573080  1
  O  O478  1  0.97629552  0.91708654  0.56567000  1
  O  O479  1  0.97690963  0.91648024  0.81550250  1
  O  O480  1  0.07293911  0.31439441  0.07443166  1
  O  O481  1  0.07270886  0.31231574  0.32523829  1
  O  O482  1  0.07312635  0.31421711  0.57389689  1
  O  O483  1  0.07313680  0.31472761  0.82401240  1
  O  O484  1  0.07250658  0.64758739  0.07359181  1
  O  O485  1  0.07286542  0.64835569  0.32508206  1
  O  O486  1  0.07234607  0.64733245  0.57405551  1
  O  O487  1  0.07237535  0.64782974  0.82389958  1
  O  O488  1  0.07275347  0.98136515  0.07405594  1
  O  O489  1  0.07101234  0.98028944  0.32344709  1
  O  O490  1  0.07183719  0.97975307  0.57312486  1
  O  O491  1  0.07246546  0.97935740  0.82254314  1
  O  O492  1  0.57267672  0.31283036  0.07330617  1
  O  O493  1  0.57295357  0.31449181  0.32359047  1
  O  O494  1  0.57422698  0.31425906  0.57480674  1
  O  O495  1  0.57463989  0.31294174  0.82585736  1
  O  O496  1  0.57457345  0.64668267  0.07514974  1
  O  O497  1  0.57313882  0.64924068  0.32428013  1
  O  O498  1  0.57304333  0.64904012  0.57521218  1
  O  O499  1  0.57357368  0.64602402  0.82508356  1
  O  O500  1  0.57340083  0.97851834  0.07475567  1
  O  O501  1  0.57285534  0.98150450  0.32370169  1
  O  O502  1  0.57221376  0.98028734  0.57352162  1
  O  O503  1  0.57324920  0.97890427  0.82473375  1
  O  O504  1  0.42734129  0.01815649  0.17467345  1
  O  O505  1  0.42696921  0.01892848  0.42558915  1
  O  O506  1  0.42630601  0.01982091  0.67438209  1
  O  O507  1  0.42665840  0.02047379  0.92476222  1
  O  O508  1  0.42703704  0.35124685  0.17578916  1
  O  O509  1  0.42613613  0.35367076  0.42533494  1
  O  O510  1  0.42714833  0.35484924  0.67512048  1
  O  O511  1  0.42689629  0.35225442  0.92502810  1
  O  O512  1  0.42688667  0.68535016  0.17574874  1
  O  O513  1  0.42706216  0.68709789  0.42747294  1
  O  O514  1  0.42606431  0.68867863  0.67566350  1
  O  O515  1  0.42732833  0.68769989  0.92452516  1
  O  O516  1  0.92847241  0.01969429  0.17713724  1
  O  O517  1  0.92688308  0.01823925  0.42512732  1
  O  O518  1  0.92711572  0.01806063  0.67566272  1
  O  O519  1  0.92730626  0.01776105  0.92608317  1
  O  O520  1  0.92595087  0.35385566  0.17488189  1
  O  O521  1  0.92770570  0.35261037  0.42645324  1
  O  O522  1  0.92721691  0.35173198  0.67565507  1
  O  O523  1  0.92762458  0.35307107  0.92668392  1
  O  O524  1  0.92763533  0.68657900  0.17683202  1
  O  O525  1  0.92680201  0.68720840  0.42681101  1
  O  O526  1  0.92727371  0.68624717  0.67643817  1
  O  O527  1  0.92676137  0.68558736  0.92605394  1
  O  O528  1  0.17617080  0.01974489  0.20014941  1
  O  O529  1  0.17721557  0.01954035  0.44874800  1
  O  O530  1  0.17727324  0.02025318  0.69669962  1
  O  O531  1  0.17649557  0.01853034  0.94752018  1
  O  O532  1  0.17542857  0.35275210  0.19960518  1
  O  O533  1  0.17556781  0.35327332  0.45125190  1
  O  O534  1  0.17667767  0.35530153  0.70010459  1
  O  O535  1  0.17685930  0.35434390  0.94828324  1
  O  O536  1  0.17581245  0.68727207  0.20009005  1
  O  O537  1  0.17623376  0.68679717  0.45145343  1
  O  O538  1  0.17625759  0.68830147  0.69978094  1
  O  O539  1  0.17641403  0.68589357  0.94812832  1
  O  O540  1  0.67827774  0.02009209  0.19887184  1
  O  O541  1  0.67814100  0.01903900  0.44839779  1
  O  O542  1  0.67826472  0.01858486  0.69752490  1
  O  O543  1  0.67628015  0.01924339  0.95103859  1
  O  O544  1  0.67617867  0.35264351  0.20010003  1
  O  O545  1  0.67710557  0.35113575  0.44899202  1
  O  O546  1  0.67613297  0.35267618  0.70124880  1
  O  O547  1  0.67786155  0.35322410  0.94998676  1
  O  O548  1  0.67753121  0.68843358  0.19979693  1
  O  O549  1  0.67685384  0.68721177  0.45114396  1
  O  O550  1  0.67725945  0.68722329  0.70075976  1
  O  O551  1  0.67676126  0.68837132  0.95060173  1
  O  O552  1  0.32334965  0.31342370  0.04943354  1
  O  O553  1  0.32264146  0.31224576  0.30083553  1
  O  O554  1  0.32358502  0.31171814  0.54933148  1
  O  O555  1  0.32420449  0.31355153  0.79792981  1
  O  O556  1  0.32378598  0.64685978  0.04896491  1
  O  O557  1  0.32384572  0.64696270  0.30056334  1
  O  O558  1  0.32333849  0.64598499  0.55105685  1
  O  O559  1  0.32208317  0.64818049  0.80057667  1
  O  O560  1  0.32389205  0.97999163  0.04946370  1
  O  O561  1  0.32307170  0.98140388  0.30146571  1
  O  O562  1  0.32086990  0.98094267  0.55170896  1
  O  O563  1  0.32233071  0.98217098  0.79916203  1
  O  O564  1  0.82353158  0.31216836  0.05093428  1
  O  O565  1  0.82257330  0.31267887  0.30170817  1
  O  O566  1  0.82313141  0.31100594  0.55003697  1
  O  O567  1  0.82502175  0.31146272  0.79947145  1
  O  O568  1  0.82414786  0.64700477  0.04897064  1
  O  O569  1  0.82412225  0.64778918  0.30035220  1
  O  O570  1  0.82453919  0.64605642  0.55071786  1
  O  O571  1  0.82354421  0.64570138  0.80072352  1
  O  O572  1  0.82265566  0.98033151  0.05222336  1
  O  O573  1  0.82309154  0.98224702  0.30107030  1
  O  O574  1  0.82161744  0.98034651  0.55265421  1
  O  O575  1  0.82283767  0.97860185  0.80042137  1
  O  O576  1  0.42662863  0.14527838  0.17477393  1
  O  O577  1  0.42742104  0.14601532  0.42422356  1
  O  O578  1  0.42710269  0.14661403  0.67350768  1
  O  O579  1  0.42709959  0.14768880  0.92562078  1
  O  O580  1  0.42672404  0.47847716  0.17445597  1
  O  O581  1  0.42568894  0.48055827  0.42393360  1
  O  O582  1  0.42712890  0.48219442  0.67661461  1
  O  O583  1  0.42754252  0.47936406  0.92585349  1
  O  O584  1  0.42632382  0.81237286  0.17592041  1
  O  O585  1  0.42808415  0.81440234  0.42656556  1
  O  O586  1  0.42672696  0.81559924  0.67547289  1
  O  O587  1  0.42678987  0.81487699  0.92577217  1
  O  O588  1  0.92782274  0.14706233  0.17654189  1
  O  O589  1  0.92683115  0.14505527  0.42547715  1
  O  O590  1  0.92758125  0.14515832  0.67461398  1
  O  O591  1  0.92687502  0.14481318  0.92476199  1
  O  O592  1  0.92602980  0.48054549  0.17455142  1
  O  O593  1  0.92808453  0.48028162  0.42727089  1
  O  O594  1  0.92682158  0.47867946  0.67500219  1
  O  O595  1  0.92882532  0.48053659  0.92640049  1
  O  O596  1  0.92862095  0.81394219  0.17667690  1
  O  O597  1  0.92776947  0.81425212  0.42721356  1
  O  O598  1  0.92831515  0.81347245  0.67669990  1
  O  O599  1  0.92670501  0.81240785  0.92529309  1
  O  O600  1  0.07347045  0.18735402  0.07431840  1
  O  O601  1  0.07246674  0.18519266  0.32477083  1
  O  O602  1  0.07313595  0.18710697  0.57531068  1
  O  O603  1  0.07348022  0.18757030  0.82493477  1
  O  O604  1  0.07151901  0.52019711  0.07316010  1
  O  O605  1  0.07251772  0.52135666  0.32549025  1
  O  O606  1  0.07103813  0.51995955  0.57357422  1
  O  O607  1  0.07256101  0.52100675  0.82484496  1
  O  O608  1  0.07330643  0.85442757  0.07484823  1
  O  O609  1  0.07192407  0.85317101  0.32397481  1
  O  O610  1  0.07064441  0.85262511  0.57320468  1
  O  O611  1  0.07128017  0.85210099  0.82263393  1
  O  O612  1  0.57180067  0.18538820  0.07410465  1
  O  O613  1  0.57351043  0.18726694  0.32412295  1
  O  O614  1  0.57480136  0.18714698  0.57433059  1
  O  O615  1  0.57433549  0.18620829  0.82550319  1
  O  O616  1  0.57454526  0.51983507  0.07665586  1
  O  O617  1  0.57374772  0.52207664  0.32561500  1
  O  O618  1  0.57327125  0.52200329  0.57442146  1
  O  O619  1  0.57286271  0.51874965  0.82417240  1
  O  O620  1  0.57286271  0.85142611  0.07485141  1
  O  O621  1  0.57308320  0.85457741  0.32560181  1
  O  O622  1  0.57098746  0.85306609  0.57249374  1
  O  O623  1  0.57347567  0.85187893  0.82344226  1
  O  O624  1  0.32346217  0.18638650  0.04913144  1
  O  O625  1  0.32323560  0.18505536  0.30074019  1
  O  O626  1  0.32279275  0.18456745  0.55041652  1
  O  O627  1  0.32417731  0.18661626  0.79882251  1
  O  O628  1  0.32355864  0.52012058  0.04905039  1
  O  O629  1  0.32379831  0.51988167  0.29987310  1
  O  O630  1  0.32301907  0.51880499  0.55156387  1
  O  O631  1  0.32194511  0.52070332  0.80179722  1
  O  O632  1  0.32339340  0.85313419  0.04913901  1
  O  O633  1  0.32293597  0.85430726  0.30151581  1
  O  O634  1  0.32141814  0.85359081  0.55117335  1
  O  O635  1  0.32272150  0.85526055  0.79890624  1
  O  O636  1  0.82406879  0.18497450  0.05180351  1
  O  O637  1  0.82246450  0.18542920  0.30209055  1
  O  O638  1  0.82342669  0.18400612  0.55014941  1
  O  O639  1  0.82437534  0.18459322  0.79999125  1
  O  O640  1  0.82389889  0.52004987  0.05008847  1
  O  O641  1  0.82497732  0.52062744  0.30022968  1
  O  O642  1  0.82392166  0.51899803  0.54997458  1
  O  O643  1  0.82346408  0.51835505  0.80147935  1
  O  O644  1  0.82311332  0.85304492  0.05281968  1
  O  O645  1  0.82312224  0.85532271  0.30075251  1
  O  O646  1  0.82255008  0.85305821  0.55195061  1
  O  O647  1  0.82311529  0.85175889  0.80117313  1
  O  O648  1  0.17603910  0.14641913  0.19983053  1
  O  O649  1  0.17723585  0.14681523  0.44824283  1
  O  O650  1  0.17709069  0.14750662  0.69784854  1
  O  O651  1  0.17643064  0.14574683  0.94809409  1
  O  O652  1  0.17537232  0.47984793  0.19978946  1
  O  O653  1  0.17588098  0.48016000  0.45029512  1
  O  O654  1  0.17671830  0.48248622  0.69887100  1
  O  O655  1  0.17679074  0.48156884  0.94835946  1
  O  O656  1  0.17618585  0.81427978  0.19999917  1
  O  O657  1  0.17527810  0.81369385  0.45070648  1
  O  O658  1  0.17658115  0.81539373  0.69961767  1
  O  O659  1  0.17596812  0.81299323  0.94882966  1
  O  O660  1  0.67787498  0.14724667  0.19873127  1
  O  O661  1  0.67752253  0.14607006  0.44823958  1
  O  O662  1  0.67760701  0.14596892  0.69803359  1
  O  O663  1  0.67689139  0.14585796  0.95055854  1
  O  O664  1  0.67652821  0.47952584  0.20140868  1
  O  O665  1  0.67730455  0.47852243  0.44985391  1
  O  O666  1  0.67665339  0.47951044  0.70000977  1
  O  O667  1  0.67736166  0.48066714  0.94945055  1
  O  O668  1  0.67713876  0.81573396  0.19979890  1
  O  O669  1  0.67620425  0.81404399  0.45093767  1
  O  O670  1  0.67687863  0.81434020  0.69906145  1
  O  O671  1  0.67730982  0.81540735  0.94935101  1
