# generated using pymatgen
data_Na2MnFe(PO4)2
_symmetry_space_group_name_H-M   'P 1'
_cell_length_a   22.34430978
_cell_length_b   20.10000324
_cell_length_c   19.44787966
_cell_angle_alpha   90.02066214
_cell_angle_beta   89.93776696
_cell_angle_gamma   90.02310596
_symmetry_Int_Tables_number   1
_chemical_formula_structural   Na2MnFe(PO4)2
_chemical_formula_sum   'Na96 Mn48 Fe48 P96 O384'
_cell_volume   8734.43887305
_cell_formula_units_Z   48
loop_
 _symmetry_equiv_pos_site_id
 _symmetry_equiv_pos_as_xyz
  1  'x, y, z'
loop_
 _atom_site_type_symbol
 _atom_site_label
 _atom_site_symmetry_multiplicity
 _atom_site_fract_x
 _atom_site_fract_y
 _atom_site_fract_z
 _atom_site_occupancy
  Na  Na0  1  0.14137264  0.24940802  0.24412168  1
  Na  Na1  1  0.14095071  0.24938396  0.49426561  1
  Na  Na2  1  0.14089665  0.24935565  0.74243718  1
  Na  Na3  1  0.14116929  0.24878529  0.99345242  1
  Na  Na4  1  0.14072485  0.58255406  0.24282294  1
  Na  Na5  1  0.14084922  0.58244768  0.49406933  1
  Na  Na6  1  0.14060660  0.58313907  0.74149112  1
  Na  Na7  1  0.14046340  0.58296424  0.99383615  1
  Na  Na8  1  0.14176358  0.91707596  0.24345903  1
  Na  Na9  1  0.14086247  0.91668920  0.49543624  1
  Na  Na10  1  0.14127031  0.91742522  0.74250510  1
  Na  Na11  1  0.14099020  0.91748289  0.99352206  1
  Na  Na12  1  0.64044079  0.25082902  0.24425808  1
  Na  Na13  1  0.64011517  0.24905025  0.49407153  1
  Na  Na14  1  0.63945789  0.24932772  0.74361514  1
  Na  Na15  1  0.64023986  0.25119866  0.99462723  1
  Na  Na16  1  0.64019383  0.58353661  0.24398908  1
  Na  Na17  1  0.63993608  0.58280912  0.49442851  1
  Na  Na18  1  0.63944100  0.58319924  0.74292326  1
  Na  Na19  1  0.63976307  0.58309140  0.99350062  1
  Na  Na20  1  0.64031892  0.91809177  0.24462750  1
  Na  Na21  1  0.64019912  0.91620794  0.49331589  1
  Na  Na22  1  0.64049052  0.91649482  0.74238187  1
  Na  Na23  1  0.64020270  0.91752393  0.99402531  1
  Na  Na24  1  0.35887519  0.08391118  0.00706039  1
  Na  Na25  1  0.36017470  0.08438840  0.25739910  1
  Na  Na26  1  0.36017983  0.08327750  0.50791366  1
  Na  Na27  1  0.35964285  0.08489202  0.75661092  1
  Na  Na28  1  0.35889946  0.41601792  0.00563488  1
  Na  Na29  1  0.35913283  0.41669136  0.25681062  1
  Na  Na30  1  0.35920781  0.41697492  0.50753724  1
  Na  Na31  1  0.35950653  0.41608493  0.75653806  1
  Na  Na32  1  0.35936427  0.75113951  0.00803589  1
  Na  Na33  1  0.35920142  0.75065808  0.25611608  1
  Na  Na34  1  0.35912287  0.75036751  0.50831434  1
  Na  Na35  1  0.35999400  0.75044955  0.75658519  1
  Na  Na36  1  0.85933207  0.08448925  0.00481482  1
  Na  Na37  1  0.85952514  0.08493660  0.25624755  1
  Na  Na38  1  0.86017318  0.08318184  0.50693829  1
  Na  Na39  1  0.85985888  0.08328074  0.75565946  1
  Na  Na40  1  0.85883256  0.41643922  0.00589935  1
  Na  Na41  1  0.85891901  0.41715333  0.25582009  1
  Na  Na42  1  0.85912744  0.41565900  0.50554648  1
  Na  Na43  1  0.85935933  0.41598212  0.75620056  1
  Na  Na44  1  0.85976533  0.74893614  0.00508646  1
  Na  Na45  1  0.85959954  0.74947849  0.25551116  1
  Na  Na46  1  0.85948816  0.74903183  0.50612722  1
  Na  Na47  1  0.85963616  0.74870265  0.75566111  1
  Na  Na48  1  0.11085965  0.08309317  0.11812193  1
  Na  Na49  1  0.11072955  0.08341640  0.36937432  1
  Na  Na50  1  0.11067072  0.08268001  0.61907019  1
  Na  Na51  1  0.11056512  0.08226491  0.86719179  1
  Na  Na52  1  0.11007766  0.41617153  0.11925841  1
  Na  Na53  1  0.11062408  0.41686498  0.36830666  1
  Na  Na54  1  0.11007922  0.41605855  0.61817740  1
  Na  Na55  1  0.10990895  0.41547048  0.86728607  1
  Na  Na56  1  0.11049892  0.74878893  0.11848890  1
  Na  Na57  1  0.11031711  0.74907681  0.36870110  1
  Na  Na58  1  0.11034626  0.74958106  0.61916260  1
  Na  Na59  1  0.10998816  0.74941078  0.86740073  1
  Na  Na60  1  0.60978610  0.08393116  0.11971384  1
  Na  Na61  1  0.60978044  0.08429856  0.36936563  1
  Na  Na62  1  0.60919246  0.08378934  0.61795639  1
  Na  Na63  1  0.60953898  0.08456120  0.86850286  1
  Na  Na64  1  0.60981320  0.41770326  0.11816944  1
  Na  Na65  1  0.60925155  0.41650974  0.36854939  1
  Na  Na66  1  0.60891148  0.41580999  0.61926544  1
  Na  Na67  1  0.60876011  0.41711647  0.86812137  1
  Na  Na68  1  0.60910930  0.75057193  0.11904843  1
  Na  Na69  1  0.60951127  0.75122248  0.37030966  1
  Na  Na70  1  0.60979021  0.74944378  0.61777194  1
  Na  Na71  1  0.60879353  0.74943242  0.86893673  1
  Na  Na72  1  0.38935904  0.24959170  0.13278154  1
  Na  Na73  1  0.39019428  0.25025993  0.38256393  1
  Na  Na74  1  0.39000600  0.25040846  0.63272147  1
  Na  Na75  1  0.38904577  0.25024462  0.88130876  1
  Na  Na76  1  0.38994220  0.58472191  0.13126490  1
  Na  Na77  1  0.38963267  0.58386267  0.38245567  1
  Na  Na78  1  0.39002291  0.58239232  0.63235971  1
  Na  Na79  1  0.39002366  0.58455921  0.88036483  1
  Na  Na80  1  0.38999126  0.91777038  0.13231021  1
  Na  Na81  1  0.39030580  0.91915010  0.38242766  1
  Na  Na82  1  0.39026016  0.91719847  0.63199809  1
  Na  Na83  1  0.39022295  0.91693691  0.88184366  1
  Na  Na84  1  0.88963754  0.25067080  0.13190957  1
  Na  Na85  1  0.88986199  0.24992437  0.38130375  1
  Na  Na86  1  0.89044296  0.24852198  0.63106024  1
  Na  Na87  1  0.89022173  0.24883020  0.88052192  1
  Na  Na88  1  0.89007164  0.58266171  0.13135421  1
  Na  Na89  1  0.89015336  0.58374204  0.37999077  1
  Na  Na90  1  0.89035049  0.58376101  0.63178675  1
  Na  Na91  1  0.89016853  0.58253662  0.87939317  1
  Na  Na92  1  0.89067254  0.91590152  0.13061864  1
  Na  Na93  1  0.89102935  0.91696880  0.38094640  1
  Na  Na94  1  0.89080195  0.91604628  0.63242086  1
  Na  Na95  1  0.89062610  0.91623935  0.87863659  1
  Mn  Mn96  1  0.00035791  0.83250068  -0.00076111  1
  Mn  Mn97  1  0.74962425  0.83306445  0.87423122  1
  Mn  Mn98  1  0.49962636  0.33339373  0.50058554  1
  Mn  Mn99  1  0.74968300  0.49974517  0.37522301  1
  Mn  Mn100  1  0.49932803  0.33373635  -0.00006142  1
  Mn  Mn101  1  0.24983855  0.66713352  0.87477345  1
  Mn  Mn102  1  0.74963928  0.33174606  0.62570404  1
  Mn  Mn103  1  0.25019065  0.83414233  0.37578215  1
  Mn  Mn104  1  0.00035520  0.50009288  0.49947369  1
  Mn  Mn105  1  0.74945197  0.33310145  0.87531059  1
  Mn  Mn106  1  0.00035343  -0.00008953  0.25014487  1
  Mn  Mn107  1  0.24981149  0.49927305  0.87445141  1
  Mn  Mn108  1  0.49896484  0.33340959  0.25041954  1
  Mn  Mn109  1  0.75066458  0.00184298  0.12407949  1
  Mn  Mn110  1  -0.00006678  0.33236566  0.74907184  1
  Mn  Mn111  1  -0.00020395  0.33297366  -0.00067473  1
  Mn  Mn112  1  0.49977400  0.50103710  0.24976381  1
  Mn  Mn113  1  0.74971810  0.83384055  0.12485894  1
  Mn  Mn114  1  0.00022671  0.49960899  -0.00085688  1
  Mn  Mn115  1  0.00036752  0.16660511  0.24977257  1
  Mn  Mn116  1  0.74895868  0.66594387  0.12485371  1
  Mn  Mn117  1  0.50050776  0.00070946  0.75049709  1
  Mn  Mn118  1  0.75001397  0.00115182  0.87376119  1
  Mn  Mn119  1  0.49942147  -0.00003050  0.00007301  1
  Mn  Mn120  1  0.75082909  0.00081783  0.37473712  1
  Mn  Mn121  1  0.24993505  0.49908583  0.12482895  1
  Mn  Mn122  1  0.75064662  0.83264406  0.37449117  1
  Mn  Mn123  1  0.50053611  0.83306299  0.75038471  1
  Mn  Mn124  1  0.74905929  0.66540916  0.87513654  1
  Mn  Mn125  1  0.00105640  0.00049340  0.50088000  1
  Mn  Mn126  1  0.49937136  0.83509983  0.25027807  1
  Mn  Mn127  1  0.00014337  -0.00078803  -0.00108117  1
  Mn  Mn128  1  0.00013006  0.16603140  -0.00049910  1
  Mn  Mn129  1  0.25069766  0.16667543  0.37533451  1
  Mn  Mn130  1  0.49963795  0.66656371  0.50022869  1
  Mn  Mn131  1  0.24961803  0.66590783  0.37592602  1
  Mn  Mn132  1  0.00057333  0.66618941  0.49988069  1
  Mn  Mn133  1  0.00089725  0.33373526  0.25045014  1
  Mn  Mn134  1  0.00016470  0.83295525  0.50021818  1
  Mn  Mn135  1  0.00131584  0.83228413  0.24996540  1
  Mn  Mn136  1  0.49868869  0.50155872  -0.00115751  1
  Mn  Mn137  1  0.49955995  0.16700372  0.00043943  1
  Mn  Mn138  1  0.49975335  0.66802196  0.25103460  1
  Mn  Mn139  1  0.74976123  0.00000858  0.62434238  1
  Mn  Mn140  1  0.00034869  0.66557576  -0.00127873  1
  Mn  Mn141  1  0.74922415  0.49946662  0.62442238  1
  Mn  Mn142  1  -0.00032046  0.33269260  0.49971762  1
  Mn  Mn143  1  0.24982021  0.83460835  0.87566221  1
  Fe  Fe144  1  0.25036591  0.00097832  0.12488283  1
  Fe  Fe145  1  0.25035396  0.16668824  0.12502911  1
  Fe  Fe146  1  0.74978338  0.49982385  0.12519413  1
  Fe  Fe147  1  0.49958423  0.50033952  0.75019370  1
  Fe  Fe148  1  0.49960321  0.66746846  -0.00008616  1
  Fe  Fe149  1  0.49938336  0.83401407  0.50030884  1
  Fe  Fe150  1  0.24992965  0.83422757  0.12543188  1
  Fe  Fe151  1  0.49990497  0.16702018  0.50070676  1
  Fe  Fe152  1  0.25006261  0.33315315  0.62498928  1
  Fe  Fe153  1  -0.00019171  0.50013645  0.24934711  1
  Fe  Fe154  1  0.24998756  0.16682319  0.87515220  1
  Fe  Fe155  1  0.25036030  0.66662766  0.62497653  1
  Fe  Fe156  1  0.74943947  0.33353086  0.12497999  1
  Fe  Fe157  1  0.25040606  0.00038759  0.37521616  1
  Fe  Fe158  1  0.00045271  0.16622141  0.50032481  1
  Fe  Fe159  1  0.25046629  0.16686415  0.62519386  1
  Fe  Fe160  1  0.24945063  0.33255800  0.87504738  1
  Fe  Fe161  1  0.24989646  0.49914097  0.62467098  1
  Fe  Fe162  1  0.25076585  0.00071817  0.87474901  1
  Fe  Fe163  1  0.00057957  0.83263782  0.74981138  1
  Fe  Fe164  1  0.75006622  0.16636233  0.62467835  1
  Fe  Fe165  1  0.74928038  0.49948594  0.87486490  1
  Fe  Fe166  1  0.74944559  0.66634608  0.37493750  1
  Fe  Fe167  1  0.75019178  0.16733589  0.37519569  1
  Fe  Fe168  1  0.00061379  0.16582680  0.74997445  1
  Fe  Fe169  1  0.00007636  0.66604918  0.24929599  1
  Fe  Fe170  1  0.75032169  0.83232856  0.62402220  1
  Fe  Fe171  1  0.25059614  0.33324373  0.37549444  1
  Fe  Fe172  1  0.74956833  0.33312158  0.37458992  1
  Fe  Fe173  1  0.25049825  0.49938190  0.37532395  1
  Fe  Fe174  1  -0.00019246  0.49918509  0.74927262  1
  Fe  Fe175  1  0.25011498  0.66647484  0.12529354  1
  Fe  Fe176  1  0.00058252  0.66614709  0.74975589  1
  Fe  Fe177  1  0.74991586  0.16798670  0.12549685  1
  Fe  Fe178  1  0.49911907  0.16693427  0.74983525  1
  Fe  Fe179  1  0.49977431  0.49982746  0.50100685  1
  Fe  Fe180  1  0.50014672  0.83367718  0.00068544  1
  Fe  Fe181  1  0.25046308  0.83415228  0.62555585  1
  Fe  Fe182  1  0.24997355  0.33274008  0.12547318  1
  Fe  Fe183  1  0.49979017  0.00083181  0.50054202  1
  Fe  Fe184  1  0.49946419  0.66706754  0.74984817  1
  Fe  Fe185  1  0.75021661  0.66591469  0.62478547  1
  Fe  Fe186  1  0.50045230  0.00077076  0.25131756  1
  Fe  Fe187  1  0.25080548  0.00065785  0.62539689  1
  Fe  Fe188  1  0.00057424  -0.00031943  0.74940603  1
  Fe  Fe189  1  0.50008232  0.16662111  0.25135691  1
  Fe  Fe190  1  0.49937297  0.33326770  0.74971857  1
  Fe  Fe191  1  0.74945578  0.16746711  0.87532602  1
  P  P192  1  0.04310034  0.25007808  0.10277438  1
  P  P193  1  0.04331635  0.24946171  0.35382033  1
  P  P194  1  0.04237011  0.24812245  0.60278717  1
  P  P195  1  0.04271609  0.24830218  0.85169068  1
  P  P196  1  0.04272463  0.58270032  0.10334825  1
  P  P197  1  0.04209931  0.58320792  0.35082248  1
  P  P198  1  0.04279589  0.58289078  0.60394208  1
  P  P199  1  0.04227336  0.58238023  0.85039639  1
  P  P200  1  0.04339055  0.91597876  0.10261398  1
  P  P201  1  0.04386264  0.91657194  0.35332849  1
  P  P202  1  0.04272795  0.91621721  0.60454715  1
  P  P203  1  0.04229306  0.91613835  0.85061320  1
  P  P204  1  0.54199837  0.25004840  0.10398368  1
  P  P205  1  0.54170388  0.24912086  0.35338453  1
  P  P206  1  0.54149229  0.24905895  0.60347467  1
  P  P207  1  0.54048808  0.25002339  0.85132460  1
  P  P208  1  0.54185272  0.58515031  0.10202376  1
  P  P209  1  0.54245307  0.58376078  0.35406062  1
  P  P210  1  0.54148989  0.58186455  0.60356340  1
  P  P211  1  0.54075397  0.58443570  0.85153144  1
  P  P212  1  0.54206048  0.91660769  0.10314996  1
  P  P213  1  0.54199946  0.91878860  0.35408251  1
  P  P214  1  0.54127990  0.91696248  0.60165307  1
  P  P215  1  0.54313034  0.91649680  0.85364806  1
  P  P216  1  0.45874103  0.08332202  0.14953106  1
  P  P217  1  0.45884199  0.08426239  0.39869897  1
  P  P218  1  0.45796576  0.08453029  0.64712808  1
  P  P219  1  0.45682260  0.08402950  0.89677724  1
  P  P220  1  0.45649690  0.41737929  0.14693510  1
  P  P221  1  0.45734060  0.41810667  0.39842932  1
  P  P222  1  0.45843706  0.41709985  0.64854356  1
  P  P223  1  0.45681822  0.41704702  0.89557649  1
  P  P224  1  0.45715554  0.75085716  0.14663184  1
  P  P225  1  0.45677521  0.75212619  0.39836505  1
  P  P226  1  0.45793368  0.74931749  0.64737066  1
  P  P227  1  0.45802425  0.75037041  0.89857741  1
  P  P228  1  0.95715706  0.08301916  0.14656424  1
  P  P229  1  0.95800727  0.08428366  0.39796751  1
  P  P230  1  0.95909200  0.08336123  0.64809669  1
  P  P231  1  0.95783955  0.08256931  0.89505511  1
  P  P232  1  0.95762467  0.41740228  0.14752580  1
  P  P233  1  0.95747497  0.41709438  0.39609248  1
  P  P234  1  0.95737202  0.41703786  0.64703950  1
  P  P235  1  0.95705043  0.41644538  0.89549638  1
  P  P236  1  0.95791690  0.74828597  0.14707218  1
  P  P237  1  0.95765894  0.74918947  0.39632249  1
  P  P238  1  0.95899612  0.74950356  0.64853902  1
  P  P239  1  0.95759852  0.74931796  0.89504739  1
  P  P240  1  0.20923070  0.08353218  0.22686290  1
  P  P241  1  0.20902335  0.08204056  0.47835177  1
  P  P242  1  0.20950304  0.08365442  0.72720763  1
  P  P243  1  0.20904237  0.08314861  0.97682801  1
  P  P244  1  0.20823609  0.41495155  0.22834749  1
  P  P245  1  0.20897267  0.41620813  0.47738821  1
  P  P246  1  0.20864835  0.41585798  0.72649043  1
  P  P247  1  0.20747779  0.41451756  0.97739558  1
  P  P248  1  0.20916352  0.75005473  0.22679007  1
  P  P249  1  0.20780227  0.75009863  0.47941926  1
  P  P250  1  0.20938728  0.75052029  0.72649873  1
  P  P251  1  0.20750590  0.75047539  0.97899005  1
  P  P252  1  0.70815848  0.08579639  0.22793864  1
  P  P253  1  0.70840539  0.08476876  0.47762663  1
  P  P254  1  0.70735908  0.08485030  0.72714752  1
  P  P255  1  0.70747472  0.08561180  0.97757825  1
  P  P256  1  0.70811617  0.41658359  0.22691650  1
  P  P257  1  0.70728251  0.41469014  0.47727227  1
  P  P258  1  0.70676265  0.41625229  0.72853404  1
  P  P259  1  0.70701195  0.41791107  0.97804530  1
  P  P260  1  0.70672110  0.74996602  0.22849056  1
  P  P261  1  0.70814984  0.74836532  0.47814600  1
  P  P262  1  0.70828395  0.74929701  0.72589659  1
  P  P263  1  0.70668944  0.74972148  0.97786798  1
  P  P264  1  0.29137756  0.24997706  0.02322966  1
  P  P265  1  0.29254280  0.25138630  0.27262639  1
  P  P266  1  0.29171999  0.25035093  0.52362809  1
  P  P267  1  0.29071395  0.25012164  0.77279622  1
  P  P268  1  0.29198723  0.58404762  0.02267162  1
  P  P269  1  0.29198379  0.58206821  0.27274234  1
  P  P270  1  0.29125425  0.58264801  0.52360856  1
  P  P271  1  0.29194820  0.58327291  0.77071667  1
  P  P272  1  0.29153696  0.91781457  0.02359663  1
  P  P273  1  0.29226056  0.91858985  0.27224070  1
  P  P274  1  0.29168567  0.91743178  0.52379430  1
  P  P275  1  0.29251759  0.91858953  0.77209722  1
  P  P276  1  0.79121473  0.25034470  0.02327156  1
  P  P277  1  0.79125151  0.25055908  0.27274596  1
  P  P278  1  0.79225807  0.24825117  0.52187728  1
  P  P279  1  0.79195979  0.24826299  0.77239828  1
  P  P280  1  0.79186017  0.58125619  0.02214780  1
  P  P281  1  0.79159136  0.58399409  0.27228967  1
  P  P282  1  0.79216092  0.58401296  0.52207599  1
  P  P283  1  0.79132840  0.58176205  0.77189923  1
  P  P284  1  0.79297927  0.91725670  0.02105710  1
  P  P285  1  0.79343481  0.91724648  0.27156434  1
  P  P286  1  0.79264505  0.91514839  0.52239126  1
  P  P287  1  0.79217307  0.91617900  0.77031768  1
  O  O288  1  0.03843255  0.25023199  0.18280665  1
  O  O289  1  0.03798609  0.24887301  0.43380820  1
  O  O290  1  0.03692643  0.24798708  0.68274786  1
  O  O291  1  0.03770543  0.24879254  0.93166713  1
  O  O292  1  0.03747549  0.58279574  0.18328073  1
  O  O293  1  0.03746653  0.58329085  0.43089804  1
  O  O294  1  0.03758067  0.58255831  0.68385041  1
  O  O295  1  0.03757894  0.58240652  0.93047364  1
  O  O296  1  0.03862799  0.91605240  0.18263832  1
  O  O297  1  0.03864159  0.91663594  0.43335703  1
  O  O298  1  0.03723299  0.91631119  0.68445907  1
  O  O299  1  0.03744149  0.91602114  0.93064982  1
  O  O300  1  0.53683648  0.24955430  0.18394776  1
  O  O301  1  0.53660945  0.24914331  0.43336189  1
  O  O302  1  0.53592554  0.24919177  0.68333426  1
  O  O303  1  0.53581924  0.25048505  0.93132853  1
  O  O304  1  0.53703045  0.58490001  0.18203433  1
  O  O305  1  0.53727460  0.58299938  0.43403806  1
  O  O306  1  0.53582206  0.58209597  0.68343877  1
  O  O307  1  0.53544955  0.58521931  0.93147564  1
  O  O308  1  0.53705318  0.91757406  0.18312912  1
  O  O309  1  0.53635583  0.91824283  0.43395425  1
  O  O310  1  0.53688785  0.91695700  0.68171213  1
  O  O311  1  0.53783111  0.91604496  0.93359206  1
  O  O312  1  0.46326519  0.08336706  0.06951522  1
  O  O313  1  0.46394795  0.08392197  0.31878469  1
  O  O314  1  0.46337035  0.08436395  0.56724669  1
  O  O315  1  0.46192619  0.08442054  0.81681125  1
  O  O316  1  0.46134793  0.41734113  0.06690986  1
  O  O317  1  0.46229539  0.41779081  0.31846960  1
  O  O318  1  0.46325945  0.41711919  0.56854722  1
  O  O319  1  0.46241173  0.41690804  0.81567503  1
  O  O320  1  0.46252393  0.75065737  0.06669395  1
  O  O321  1  0.46184144  0.75214836  0.31838060  1
  O  O322  1  0.46309080  0.75012247  0.56746894  1
  O  O323  1  0.46322071  0.74997488  0.81853873  1
  O  O324  1  0.96204806  0.08297784  0.06652700  1
  O  O325  1  0.96283056  0.08386310  0.31797352  1
  O  O326  1  0.96427542  0.08410516  0.56810663  1
  O  O327  1  0.96348608  0.08270114  0.81510861  1
  O  O328  1  0.96229332  0.41694215  0.06746414  1
  O  O329  1  0.96280320  0.41760712  0.31614627  1
  O  O330  1  0.96233941  0.41681009  0.56703826  1
  O  O331  1  0.96211264  0.41658628  0.81548752  1
  O  O332  1  0.96288361  0.74847512  0.06701982  1
  O  O333  1  0.96295931  0.74857178  0.31637002  1
  O  O334  1  0.96391476  0.74952981  0.56853976  1
  O  O335  1  0.96312420  0.74937216  0.81511405  1
  O  O336  1  0.21410412  0.08342956  0.05670512  1
  O  O337  1  0.21398895  0.08354763  0.30680435  1
  O  O338  1  0.21440057  0.08221793  0.55817512  1
  O  O339  1  0.21423548  0.08384554  0.80708271  1
  O  O340  1  0.21280286  0.41455822  0.05731090  1
  O  O341  1  0.21389455  0.41542021  0.30819008  1
  O  O342  1  0.21426144  0.41625313  0.55728332  1
  O  O343  1  0.21296944  0.41592808  0.80642279  1
  O  O344  1  0.21282708  0.75020477  0.05887536  1
  O  O345  1  0.21372756  0.75025056  0.30681738  1
  O  O346  1  0.21334406  0.74986299  0.55927448  1
  O  O347  1  0.21391762  0.75103646  0.80651802  1
  O  O348  1  0.71304254  0.08573252  0.05751573  1
  O  O349  1  0.71371327  0.08576408  0.30787538  1
  O  O350  1  0.71322759  0.08459941  0.55761086  1
  O  O351  1  0.71239836  0.08496073  0.80712335  1
  O  O352  1  0.71235670  0.41789557  0.05792855  1
  O  O353  1  0.71305306  0.41590173  0.30689010  1
  O  O354  1  0.71238559  0.41480170  0.55720351  1
  O  O355  1  0.71192224  0.41672892  0.80847813  1
  O  O356  1  0.71164722  0.74967440  0.05781264  1
  O  O357  1  0.71209434  0.74942645  0.30845525  1
  O  O358  1  0.71395790  0.74860422  0.55802630  1
  O  O359  1  0.71283189  0.74940356  0.80592144  1
  O  O360  1  0.28748701  0.25117922  0.19279538  1
  O  O361  1  0.28708446  0.25041013  0.44368401  1
  O  O362  1  0.28603680  0.25008719  0.69292118  1
  O  O363  1  0.28627592  0.24942945  0.94337231  1
  O  O364  1  0.28673035  0.58264864  0.19280373  1
  O  O365  1  0.28641966  0.58183990  0.44362806  1
  O  O366  1  0.28657497  0.58335177  0.69082934  1
  O  O367  1  0.28679505  0.58395942  0.94271565  1
  O  O368  1  0.28667801  0.91856729  0.19239954  1
  O  O369  1  0.28700749  0.91724686  0.44384974  1
  O  O370  1  0.28720688  0.91822508  0.69223109  1
  O  O371  1  0.28685340  0.91782144  0.94359827  1
  O  O372  1  0.78611247  0.25053094  0.19284207  1
  O  O373  1  0.78702328  0.24858124  0.44200016  1
  O  O374  1  0.78701562  0.24804116  0.69244783  1
  O  O375  1  0.78623063  0.25018431  0.94331630  1
  O  O376  1  0.78612707  0.58314066  0.19238753  1
  O  O377  1  0.78693641  0.58426880  0.44213664  1
  O  O378  1  0.78618798  0.58268041  0.69195385  1
  O  O379  1  0.78657437  0.58088714  0.94218144  1
  O  O380  1  0.78829200  0.91756666  0.19160069  1
  O  O381  1  0.78800892  0.91541901  0.44237809  1
  O  O382  1  0.78671079  0.91551988  0.69036998  1
  O  O383  1  0.78758105  0.91734580  0.94105939  1
  O  O384  1  0.22737614  0.25015230  0.05975511  1
  O  O385  1  0.22841554  0.25137189  0.30882690  1
  O  O386  1  0.22751575  0.25083456  0.55949001  1
  O  O387  1  0.22669759  0.25021824  0.80913820  1
  O  O388  1  0.22775362  0.58387649  0.05840616  1
  O  O389  1  0.22778529  0.58124555  0.30874666  1
  O  O390  1  0.22716835  0.58362991  0.55961870  1
  O  O391  1  0.22778867  0.58318244  0.80669263  1
  O  O392  1  0.22738861  0.91828607  0.05956296  1
  O  O393  1  0.22820057  0.91861949  0.30875423  1
  O  O394  1  0.22758373  0.91810959  0.55981703  1
  O  O395  1  0.22833948  0.91918694  0.80826495  1
  O  O396  1  0.72704630  0.25018228  0.05932051  1
  O  O397  1  0.72722232  0.25042877  0.30929088  1
  O  O398  1  0.72795387  0.24786284  0.55780090  1
  O  O399  1  0.72756181  0.24865693  0.80791813  1
  O  O400  1  0.72753569  0.58101102  0.05791229  1
  O  O401  1  0.72744006  0.58435716  0.30842751  1
  O  O402  1  0.72780279  0.58420183  0.55769066  1
  O  O403  1  0.72704832  0.58102026  0.80769722  1
  O  O404  1  0.72860457  0.91767230  0.05641921  1
  O  O405  1  0.72904275  0.91714829  0.30678579  1
  O  O406  1  0.72814552  0.91524107  0.55742841  1
  O  O407  1  0.72796436  0.91692212  0.80600756  1
  O  O408  1  0.27341549  0.08329219  0.19089544  1
  O  O409  1  0.27311516  0.08183393  0.44200723  1
  O  O410  1  0.27355039  0.08337697  0.69088762  1
  O  O411  1  0.27310151  0.08287533  0.94043150  1
  O  O412  1  0.27222321  0.41470834  0.19172762  1
  O  O413  1  0.27299255  0.41660017  0.44079168  1
  O  O414  1  0.27293922  0.41515177  0.69085167  1
  O  O415  1  0.27169401  0.41453045  0.94139712  1
  O  O416  1  0.27322373  0.74992289  0.19083260  1
  O  O417  1  0.27191813  0.74991802  0.44336300  1
  O  O418  1  0.27356218  0.74976305  0.69079478  1
  O  O419  1  0.27178424  0.75071626  0.94325806  1
  O  O420  1  0.77231997  0.08607480  0.19185303  1
  O  O421  1  0.77274499  0.08492148  0.44215227  1
  O  O422  1  0.77173101  0.08443901  0.69155638  1
  O  O423  1  0.77165109  0.08577756  0.94140847  1
  O  O424  1  0.77219878  0.41713813  0.19069340  1
  O  O425  1  0.77157723  0.41467890  0.44162296  1
  O  O426  1  0.77108619  0.41610666  0.69312170  1
  O  O427  1  0.77118446  0.41796478  0.94179193  1
  O  O428  1  0.77101583  0.74971037  0.19297696  1
  O  O429  1  0.77215617  0.74761825  0.44156602  1
  O  O430  1  0.77264545  0.74925203  0.69041168  1
  O  O431  1  0.77111164  0.74933913  0.94277630  1
  O  O432  1  0.02178471  0.08313689  0.18114218  1
  O  O433  1  0.02249321  0.08475822  0.43308756  1
  O  O434  1  0.02324252  0.08290578  0.68400715  1
  O  O435  1  0.02205353  0.08264802  0.93078264  1
  O  O436  1  0.02208032  0.41791524  0.18256887  1
  O  O437  1  0.02180617  0.41640448  0.43137895  1
  O  O438  1  0.02180284  0.41691669  0.68210569  1
  O  O439  1  0.02150169  0.41607704  0.93050345  1
  O  O440  1  0.02233938  0.74758402  0.18236741  1
  O  O441  1  0.02205304  0.74964467  0.43149277  1
  O  O442  1  0.02320999  0.74922791  0.68424509  1
  O  O443  1  0.02190373  0.74922647  0.93055993  1
  O  O444  1  0.52296386  0.08301274  0.18519672  1
  O  O445  1  0.52284829  0.08472346  0.43494431  1
  O  O446  1  0.52206472  0.08529914  0.68326769  1
  O  O447  1  0.52120318  0.08368383  0.93184567  1
  O  O448  1  0.52098478  0.41699844  0.18176155  1
  O  O449  1  0.52172519  0.41818335  0.43373114  1
  O  O450  1  0.52245022  0.41745437  0.68452753  1
  O  O451  1  0.52095341  0.41743768  0.93144523  1
  O  O452  1  0.52135021  0.75118271  0.18240742  1
  O  O453  1  0.52117061  0.75194619  0.43362624  1
  O  O454  1  0.52220586  0.74865854  0.68302757  1
  O  O455  1  0.52215425  0.75042145  0.93466135  1
  O  O456  1  0.47760132  0.25029586  0.06879265  1
  O  O457  1  0.47743363  0.24886397  0.31784942  1
  O  O458  1  0.47740818  0.24885686  0.56729291  1
  O  O459  1  0.47625284  0.24955636  0.81579881  1
  O  O460  1  0.47743235  0.58585090  0.06678526  1
  O  O461  1  0.47804600  0.58397237  0.31895587  1
  O  O462  1  0.47743020  0.58169862  0.56726650  1
  O  O463  1  0.47671810  0.58432586  0.81530916  1
  O  O464  1  0.47775379  0.91582880  0.06755886  1
  O  O465  1  0.47790024  0.91959125  0.31784960  1
  O  O466  1  0.47695569  0.91657248  0.56640719  1
  O  O467  1  0.47878655  0.91675990  0.81841633  1
  O  O468  1  0.97849200  0.24967729  0.06818852  1
  O  O469  1  0.97897078  0.24984094  0.31860612  1
  O  O470  1  0.97816068  0.24787894  0.56697960  1
  O  O471  1  0.97828992  0.24812701  0.81657946  1
  O  O472  1  0.97843255  0.58268835  0.06779916  1
  O  O473  1  0.97774831  0.58364868  0.31542434  1
  O  O474  1  0.97851495  0.58306396  0.56848518  1
  O  O475  1  0.97790670  0.58276810  0.81512328  1
  O  O476  1  0.97886499  0.91595661  0.06783724  1
  O  O477  1  0.97942931  0.91597900  0.31836394  1
  O  O478  1  0.97862931  0.91666756  0.56865514  1
  O  O479  1  0.97808245  0.91615691  0.81502376  1
  O  O480  1  0.07364847  0.31369650  0.07430425  1
  O  O481  1  0.07437410  0.31314550  0.32610896  1
  O  O482  1  0.07305487  0.31214503  0.57521778  1
  O  O483  1  0.07371197  0.31181645  0.82352453  1
  O  O484  1  0.07391586  0.64593248  0.07454907  1
  O  O485  1  0.07319052  0.64669193  0.32265355  1
  O  O486  1  0.07402518  0.64626653  0.57557466  1
  O  O487  1  0.07334907  0.64600249  0.82244677  1
  O  O488  1  0.07424836  0.97948263  0.07422842  1
  O  O489  1  0.07440156  0.98036724  0.32524702  1
  O  O490  1  0.07428916  0.97948271  0.57630222  1
  O  O491  1  0.07311906  0.97987684  0.82263179  1
  O  O492  1  0.57293966  0.31363814  0.07577529  1
  O  O493  1  0.57248343  0.31299909  0.32555282  1
  O  O494  1  0.57257161  0.31276464  0.57552484  1
  O  O495  1  0.57086633  0.31391807  0.82281470  1
  O  O496  1  0.57299772  0.64840629  0.07359688  1
  O  O497  1  0.57322491  0.64765367  0.32641049  1
  O  O498  1  0.57269034  0.64542318  0.57556531  1
  O  O499  1  0.57189093  0.64775244  0.82283156  1
  O  O500  1  0.57304971  0.98009022  0.07471465  1
  O  O501  1  0.57337754  0.98205170  0.32562555  1
  O  O502  1  0.57153958  0.98100276  0.57346140  1
  O  O503  1  0.57416625  0.98009670  0.82557273  1
  O  O504  1  0.42775856  0.01981973  0.17773791  1
  O  O505  1  0.42833561  0.02049468  0.42756799  1
  O  O506  1  0.42731071  0.02069588  0.67520370  1
  O  O507  1  0.42583782  0.02046152  0.92494072  1
  O  O508  1  0.42534428  0.35408523  0.17537705  1
  O  O509  1  0.42643907  0.35438314  0.42635882  1
  O  O510  1  0.42822607  0.35281774  0.67656502  1
  O  O511  1  0.42576750  0.35365217  0.92415470  1
  O  O512  1  0.42611732  0.68750290  0.17540419  1
  O  O513  1  0.42566475  0.68846149  0.42600545  1
  O  O514  1  0.42705102  0.68570839  0.67556130  1
  O  O515  1  0.42687126  0.68689761  0.92673639  1
  O  O516  1  0.92634617  0.01953452  0.17495653  1
  O  O517  1  0.92730500  0.02054234  0.42614361  1
  O  O518  1  0.92816027  0.01943177  0.67554942  1
  O  O519  1  0.92663564  0.01908213  0.92313112  1
  O  O520  1  0.92687912  0.35374444  0.17569796  1
  O  O521  1  0.92620211  0.35361412  0.42411190  1
  O  O522  1  0.92611297  0.35344068  0.67469659  1
  O  O523  1  0.92600291  0.35288987  0.92376384  1
  O  O524  1  0.92679094  0.68496848  0.17546784  1
  O  O525  1  0.92660633  0.68596796  0.42517673  1
  O  O526  1  0.92797662  0.68589184  0.67651209  1
  O  O527  1  0.92638104  0.68589946  0.92343473  1
  O  O528  1  0.17776813  0.02040898  0.19842397  1
  O  O529  1  0.17787692  0.01881667  0.44952281  1
  O  O530  1  0.17814655  0.02034950  0.69884926  1
  O  O531  1  0.17780422  0.01980397  0.94831545  1
  O  O532  1  0.17712946  0.35157415  0.19988657  1
  O  O533  1  0.17828811  0.35236981  0.44922590  1
  O  O534  1  0.17702539  0.35280602  0.69805552  1
  O  O535  1  0.17653156  0.35125703  0.94858229  1
  O  O536  1  0.17831657  0.68627802  0.19887450  1
  O  O537  1  0.17638023  0.68682899  0.45088031  1
  O  O538  1  0.17792248  0.68714618  0.69881279  1
  O  O539  1  0.17634564  0.68716137  0.95023399  1
  O  O540  1  0.67734302  0.02189539  0.20022863  1
  O  O541  1  0.67761431  0.02084444  0.44991341  1
  O  O542  1  0.67613374  0.02119177  0.69932919  1
  O  O543  1  0.67657522  0.02183547  0.94975640  1
  O  O544  1  0.67764090  0.35289441  0.19809695  1
  O  O545  1  0.67649276  0.35124132  0.44880886  1
  O  O546  1  0.67593738  0.35242740  0.70078195  1
  O  O547  1  0.67586753  0.35418558  0.95015547  1
  O  O548  1  0.67504324  0.68697475  0.20008094  1
  O  O549  1  0.67660891  0.68521376  0.44975804  1
  O  O550  1  0.67756724  0.68547114  0.69797256  1
  O  O551  1  0.67558129  0.68624107  0.94970120  1
  O  O552  1  0.32258232  0.31344813  0.05137847  1
  O  O553  1  0.32352116  0.31461286  0.30169878  1
  O  O554  1  0.32324941  0.31346984  0.55199492  1
  O  O555  1  0.32169738  0.31360713  0.80142850  1
  O  O556  1  0.32253818  0.64763107  0.05133277  1
  O  O557  1  0.32279128  0.64574726  0.30099441  1
  O  O558  1  0.32282124  0.64614012  0.55111210  1
  O  O559  1  0.32319613  0.64665627  0.79908809  1
  O  O560  1  0.32318335  0.98099168  0.05171833  1
  O  O561  1  0.32306041  0.98200867  0.30120556  1
  O  O562  1  0.32343762  0.98049086  0.55191606  1
  O  O563  1  0.32377435  0.98181011  0.80070299  1
  O  O564  1  0.82147674  0.31443865  0.05152560  1
  O  O565  1  0.82198652  0.31434557  0.30108999  1
  O  O566  1  0.82316064  0.31191492  0.55017721  1
  O  O567  1  0.82306446  0.31194376  0.80019511  1
  O  O568  1  0.82255682  0.64535627  0.04954276  1
  O  O569  1  0.82244618  0.64762957  0.30025902  1
  O  O570  1  0.82330435  0.64704329  0.55121960  1
  O  O571  1  0.82217879  0.64536297  0.80024001  1
  O  O572  1  0.82426211  0.98068018  0.04897457  1
  O  O573  1  0.82443067  0.98069829  0.29992124  1
  O  O574  1  0.82382460  0.97869025  0.55027691  1
  O  O575  1  0.82347395  0.97978992  0.79785134  1
  O  O576  1  0.42841699  0.14728484  0.17781996  1
  O  O577  1  0.42737208  0.14758159  0.42698016  1
  O  O578  1  0.42657653  0.14772621  0.67573109  1
  O  O579  1  0.42572929  0.14724825  0.92549450  1
  O  O580  1  0.42582071  0.48107938  0.17502158  1
  O  O581  1  0.42663950  0.48153908  0.42710369  1
  O  O582  1  0.42691436  0.48019414  0.67687506  1
  O  O583  1  0.42535635  0.48042862  0.92365130  1
  O  O584  1  0.42586645  0.81421395  0.17493487  1
  O  O585  1  0.42621042  0.81570710  0.42695853  1
  O  O586  1  0.42702644  0.81278770  0.67589263  1
  O  O587  1  0.42759391  0.81437750  0.92667593  1
  O  O588  1  0.92623067  0.14653388  0.17482274  1
  O  O589  1  0.92719069  0.14776000  0.42632685  1
  O  O590  1  0.92820462  0.14678408  0.67677774  1
  O  O591  1  0.92653550  0.14583401  0.92359542  1
  O  O592  1  0.92686160  0.48094382  0.17598241  1
  O  O593  1  0.92646205  0.48045309  0.42455450  1
  O  O594  1  0.92689185  0.48066165  0.67562394  1
  O  O595  1  0.92612410  0.47981292  0.92398767  1
  O  O596  1  0.92740405  0.81217495  0.17499834  1
  O  O597  1  0.92656867  0.81278200  0.42432578  1
  O  O598  1  0.92842649  0.81337731  0.67645595  1
  O  O599  1  0.92645650  0.81266868  0.92358809  1
  O  O600  1  0.07421003  0.18665972  0.07458951  1
  O  O601  1  0.07458807  0.18632906  0.32508428  1
  O  O602  1  0.07363347  0.18495956  0.57429427  1
  O  O603  1  0.07347621  0.18471854  0.82338753  1
  O  O604  1  0.07388485  0.51929960  0.07482333  1
  O  O605  1  0.07231027  0.51914372  0.32275700  1
  O  O606  1  0.07387786  0.51959941  0.57503454  1
  O  O607  1  0.07262942  0.51844802  0.82221140  1
  O  O608  1  0.07415817  0.85241618  0.07434328  1
  O  O609  1  0.07529104  0.85331411  0.32522920  1
  O  O610  1  0.07371415  0.85273210  0.57622941  1
  O  O611  1  0.07311612  0.85239746  0.82255553  1
  O  O612  1  0.57310623  0.18680276  0.07529933  1
  O  O613  1  0.57268335  0.18586674  0.32460486  1
  O  O614  1  0.57267214  0.18592735  0.57456225  1
  O  O615  1  0.57161010  0.18648640  0.82341570  1
  O  O616  1  0.57222460  0.52122578  0.07384557  1
  O  O617  1  0.57371972  0.52070424  0.32511877  1
  O  O618  1  0.57250457  0.51845731  0.57491034  1
  O  O619  1  0.57144737  0.52040321  0.82403090  1
  O  O620  1  0.57284095  0.85296522  0.07489361  1
  O  O621  1  0.57285165  0.85514518  0.32575852  1
  O  O622  1  0.57228727  0.85343938  0.57345252  1
  O  O623  1  0.57431243  0.85331805  0.82488040  1
  O  O624  1  0.32197549  0.18627287  0.05218650  1
  O  O625  1  0.32356760  0.18776195  0.30080277  1
  O  O626  1  0.32172156  0.18621683  0.55206092  1
  O  O627  1  0.32138577  0.18652476  0.80163227  1
  O  O628  1  0.32323131  0.52038163  0.04999849  1
  O  O629  1  0.32306362  0.51866936  0.30104038  1
  O  O630  1  0.32140153  0.51877893  0.55245679  1
  O  O631  1  0.32304160  0.51984820  0.79901757  1
  O  O632  1  0.32147089  0.85371128  0.05217573  1
  O  O633  1  0.32343901  0.85502082  0.30018717  1
  O  O634  1  0.32157212  0.85323073  0.55235557  1
  O  O635  1  0.32325504  0.85486388  0.80040837  1
  O  O636  1  0.82257579  0.18713582  0.05153353  1
  O  O637  1  0.82238217  0.18716419  0.30120600  1
  O  O638  1  0.82327755  0.18503135  0.55080408  1
  O  O639  1  0.82256471  0.18492311  0.80129865  1
  O  O640  1  0.82304612  0.51830822  0.05125005  1
  O  O641  1  0.82265421  0.52052618  0.30049856  1
  O  O642  1  0.82285723  0.51998517  0.54952478  1
  O  O643  1  0.82232335  0.51828436  0.79996278  1
  O  O644  1  0.82370232  0.85355074  0.04896897  1
  O  O645  1  0.82450692  0.85372618  0.29935588  1
  O  O646  1  0.82307727  0.85144398  0.55082394  1
  O  O647  1  0.82320051  0.85285114  0.79870997  1
  O  O648  1  0.17903849  0.14758163  0.19844288  1
  O  O649  1  0.17811006  0.14573664  0.45026365  1
  O  O650  1  0.17915036  0.14745195  0.69827525  1
  O  O651  1  0.17854828  0.14689466  0.94804071  1
  O  O652  1  0.17712702  0.47845908  0.20010733  1
  O  O653  1  0.17780081  0.47965551  0.44901376  1
  O  O654  1  0.17881563  0.47997713  0.69767991  1
  O  O655  1  0.17658425  0.47834391  0.94965322  1
  O  O656  1  0.17867927  0.81394370  0.19860890  1
  O  O657  1  0.17673963  0.81355904  0.45118054  1
  O  O658  1  0.17937332  0.81469478  0.69828551  1
  O  O659  1  0.17635028  0.81386666  0.95054425  1
  O  O660  1  0.67692710  0.14896129  0.19946739  1
  O  O661  1  0.67737688  0.14793046  0.44885473  1
  O  O662  1  0.67676902  0.14821044  0.69828065  1
  O  O663  1  0.67637506  0.14894397  0.94919980  1
  O  O664  1  0.67702031  0.48028774  0.19928340  1
  O  O665  1  0.67637221  0.47846346  0.44970083  1
  O  O666  1  0.67544028  0.47924712  0.69981444  1
  O  O667  1  0.67604198  0.48107504  0.94897220  1
  O  O668  1  0.67610505  0.81392939  0.20079875  1
  O  O669  1  0.67733110  0.81221802  0.45032681  1
  O  O670  1  0.67763608  0.81296241  0.69744931  1
  O  O671  1  0.67592363  0.81325486  0.94972582  1
