# generated using pymatgen
data_Na2MnFe(PO4)2
_symmetry_space_group_name_H-M   'P 1'
_cell_length_a   22.34836239
_cell_length_b   20.10257296
_cell_length_c   19.44367606
_cell_angle_alpha   89.95694915
_cell_angle_beta   89.98580777
_cell_angle_gamma   90.00336364
_symmetry_Int_Tables_number   1
_chemical_formula_structural   Na2MnFe(PO4)2
_chemical_formula_sum   'Na96 Mn48 Fe48 P96 O384'
_cell_volume   8735.25509480
_cell_formula_units_Z   48
loop_
 _symmetry_equiv_pos_site_id
 _symmetry_equiv_pos_as_xyz
  1  'x, y, z'
loop_
 _atom_site_type_symbol
 _atom_site_label
 _atom_site_symmetry_multiplicity
 _atom_site_fract_x
 _atom_site_fract_y
 _atom_site_fract_z
 _atom_site_occupancy
  Na  Na0  1  0.14113523  0.25093689  0.24346747  1
  Na  Na1  1  0.14075928  0.25102625  0.49247546  1
  Na  Na2  1  0.14020714  0.25163120  0.74360805  1
  Na  Na3  1  0.14089723  0.24874467  0.99398620  1
  Na  Na4  1  0.14070129  0.58202742  0.24424678  1
  Na  Na5  1  0.14067707  0.58337321  0.49393526  1
  Na  Na6  1  0.14095803  0.58468501  0.74314351  1
  Na  Na7  1  0.14123239  0.58225868  0.99395953  1
  Na  Na8  1  0.13993849  0.91885813  0.24447058  1
  Na  Na9  1  0.14002921  0.91750401  0.49314425  1
  Na  Na10  1  0.14056583  0.91656989  0.74418697  1
  Na  Na11  1  0.14097580  0.91653863  0.99344058  1
  Na  Na12  1  0.63995306  0.25113854  0.24404728  1
  Na  Na13  1  0.63987282  0.24969354  0.49153301  1
  Na  Na14  1  0.64019711  0.24955886  0.74233349  1
  Na  Na15  1  0.64006250  0.24953020  0.99564120  1
  Na  Na16  1  0.63991041  0.58300944  0.24420304  1
  Na  Na17  1  0.63995564  0.58260838  0.49327933  1
  Na  Na18  1  0.64008199  0.58378881  0.74172773  1
  Na  Na19  1  0.64035637  0.58338861  0.99461421  1
  Na  Na20  1  0.63942762  0.91718503  0.24475943  1
  Na  Na21  1  0.63937691  0.91581531  0.49277362  1
  Na  Na22  1  0.64053154  0.91517517  0.74279101  1
  Na  Na23  1  0.64019073  0.91634584  0.99483051  1
  Na  Na24  1  0.35939138  0.08365341  0.00719211  1
  Na  Na25  1  0.35997298  0.08524427  0.25851820  1
  Na  Na26  1  0.36012429  0.08352061  0.50597702  1
  Na  Na27  1  0.35950165  0.08347390  0.75592427  1
  Na  Na28  1  0.35938622  0.41571621  0.00721143  1
  Na  Na29  1  0.35991613  0.41634485  0.25779892  1
  Na  Na30  1  0.36028810  0.41802240  0.50629575  1
  Na  Na31  1  0.35974961  0.41878778  0.75583421  1
  Na  Na32  1  0.35968071  0.74918423  0.00588413  1
  Na  Na33  1  0.35966812  0.75042492  0.25762923  1
  Na  Na34  1  0.35950415  0.74989303  0.50717955  1
  Na  Na35  1  0.35885019  0.75066557  0.75624318  1
  Na  Na36  1  0.86014959  0.08271258  0.00607998  1
  Na  Na37  1  0.85967711  0.08261194  0.25666693  1
  Na  Na38  1  0.85930089  0.08169652  0.50612884  1
  Na  Na39  1  0.85932462  0.08213693  0.75571814  1
  Na  Na40  1  0.85962123  0.41516713  0.00588156  1
  Na  Na41  1  0.85989816  0.41615506  0.25645120  1
  Na  Na42  1  0.85982790  0.41649549  0.50556901  1
  Na  Na43  1  0.85963761  0.41629238  0.75462144  1
  Na  Na44  1  0.85912175  0.74914730  0.00514810  1
  Na  Na45  1  0.85947706  0.74973081  0.25766196  1
  Na  Na46  1  0.85913351  0.75033127  0.50747403  1
  Na  Na47  1  0.85944517  0.74974143  0.75393041  1
  Na  Na48  1  0.11024654  0.08310507  0.11932888  1
  Na  Na49  1  0.11018499  0.08387976  0.36848217  1
  Na  Na50  1  0.10942435  0.08439928  0.61859732  1
  Na  Na51  1  0.10977818  0.08387285  0.86930258  1
  Na  Na52  1  0.11081033  0.41487636  0.11860915  1
  Na  Na53  1  0.11069836  0.41641054  0.36817912  1
  Na  Na54  1  0.11000209  0.41737836  0.61816481  1
  Na  Na55  1  0.11016520  0.41543923  0.86871589  1
  Na  Na56  1  0.10962272  0.75066254  0.11869740  1
  Na  Na57  1  0.10927081  0.75106634  0.37051532  1
  Na  Na58  1  0.10997616  0.75118796  0.61740939  1
  Na  Na59  1  0.11047416  0.75026122  0.86827270  1
  Na  Na60  1  0.60949421  0.08378169  0.12063169  1
  Na  Na61  1  0.60915786  0.08298359  0.36805668  1
  Na  Na62  1  0.60881440  0.08238418  0.61684454  1
  Na  Na63  1  0.60945779  0.08317626  0.86914811  1
  Na  Na64  1  0.60974764  0.41713201  0.12031340  1
  Na  Na65  1  0.60962510  0.41687894  0.36751184  1
  Na  Na66  1  0.60922231  0.41695443  0.61683348  1
  Na  Na67  1  0.60952817  0.41748005  0.86851989  1
  Na  Na68  1  0.60922920  0.75021890  0.12074494  1
  Na  Na69  1  0.60907479  0.75089512  0.36865355  1
  Na  Na70  1  0.60947147  0.74946164  0.61750277  1
  Na  Na71  1  0.60989072  0.74952173  0.86732566  1
  Na  Na72  1  0.39003346  0.25018522  0.13421544  1
  Na  Na73  1  0.39053051  0.25047206  0.38255739  1
  Na  Na74  1  0.39073284  0.25139748  0.62970476  1
  Na  Na75  1  0.39020413  0.25101773  0.88158563  1
  Na  Na76  1  0.39043398  0.58298385  0.13285814  1
  Na  Na77  1  0.39017969  0.58286620  0.38184512  1
  Na  Na78  1  0.38996915  0.58321919  0.63192338  1
  Na  Na79  1  0.39019407  0.58395687  0.88039506  1
  Na  Na80  1  0.39067760  0.91706475  0.13247786  1
  Na  Na81  1  0.39044199  0.91798951  0.38192829  1
  Na  Na82  1  0.38977713  0.91583002  0.63110058  1
  Na  Na83  1  0.38980642  0.91663742  0.88169148  1
  Na  Na84  1  0.89055585  0.24776321  0.13135002  1
  Na  Na85  1  0.89057414  0.24971928  0.38056802  1
  Na  Na86  1  0.89076263  0.25011610  0.62991669  1
  Na  Na87  1  0.89053592  0.24873535  0.88026021  1
  Na  Na88  1  0.89054272  0.58181527  0.13156963  1
  Na  Na89  1  0.89048701  0.58243400  0.38218384  1
  Na  Na90  1  0.88999435  0.58291111  0.63094083  1
  Na  Na91  1  0.89026291  0.58257722  0.87979997  1
  Na  Na92  1  0.89054029  0.91671086  0.13114992  1
  Na  Na93  1  0.89001955  0.91644165  0.38284955  1
  Na  Na94  1  0.88945241  0.91722565  0.63037984  1
  Na  Na95  1  0.88999763  0.91674008  0.88073464  1
  Mn  Mn96  1  0.00010540  0.16577083  0.25041474  1
  Mn  Mn97  1  0.74923298  -0.00142967  0.87523078  1
  Mn  Mn98  1  0.00011190  0.49879692  -0.00001031  1
  Mn  Mn99  1  0.00014484  0.83401453  0.74930349  1
  Mn  Mn100  1  0.00006199  0.66685446  0.74963810  1
  Mn  Mn101  1  0.24999552  0.50027501  0.87518008  1
  Mn  Mn102  1  0.49926579  -0.00009507  0.74925077  1
  Mn  Mn103  1  0.24975944  0.66579068  0.12568786  1
  Mn  Mn104  1  0.24913493  -0.00021858  0.62553130  1
  Mn  Mn105  1  0.24977478  0.66606636  0.37593749  1
  Mn  Mn106  1  0.74968781  0.66576200  0.12572674  1
  Mn  Mn107  1  0.50043287  0.66670658  0.00049379  1
  Mn  Mn108  1  0.49999504  0.83315669  0.00065284  1
  Mn  Mn109  1  0.74984606  0.33360245  0.62371413  1
  Mn  Mn110  1  -0.00057500  0.83441912  0.25000917  1
  Mn  Mn111  1  0.25109920  0.00120349  0.12493254  1
  Mn  Mn112  1  0.00038484  0.66636794  0.00005357  1
  Mn  Mn113  1  0.25029167  0.83346121  0.12508055  1
  Mn  Mn114  1  0.25012317  0.16736381  0.62505360  1
  Mn  Mn115  1  0.49941587  0.66652115  0.49943154  1
  Mn  Mn116  1  0.49940189  0.16711164  0.00096680  1
  Mn  Mn117  1  0.74998198  0.83321689  0.12552517  1
  Mn  Mn118  1  0.49999918  0.33390101  0.00095263  1
  Mn  Mn119  1  0.00001749  0.66668553  0.25049402  1
  Mn  Mn120  1  0.74977752  0.50000756  0.87441131  1
  Mn  Mn121  1  0.00103172  0.49832063  0.25085137  1
  Mn  Mn122  1  0.24954687  0.83397774  0.37543070  1
  Mn  Mn123  1  0.75031851  0.66685665  0.87383981  1
  Mn  Mn124  1  0.50004250  0.00046821  0.00097801  1
  Mn  Mn125  1  0.50054138  0.33435552  0.74976815  1
  Mn  Mn126  1  -0.00041141  0.83398692  -0.00017155  1
  Mn  Mn127  1  0.25052604  0.16724604  0.87518389  1
  Mn  Mn128  1  0.74952516  0.33272552  0.87480421  1
  Mn  Mn129  1  0.49990910  0.50066539  0.00069106  1
  Mn  Mn130  1  0.00008615  0.49926999  0.50007960  1
  Mn  Mn131  1  0.75019659  0.33339103  0.12497575  1
  Mn  Mn132  1  0.00034347  0.00135092  0.75015768  1
  Mn  Mn133  1  0.49965347  0.16723394  0.74928528  1
  Mn  Mn134  1  0.75008825  0.66623408  0.37554595  1
  Mn  Mn135  1  0.50027399  0.83258412  0.74989539  1
  Mn  Mn136  1  0.25045388  0.33487256  0.62403736  1
  Mn  Mn137  1  0.74981384  0.16627320  0.37515854  1
  Mn  Mn138  1  -0.00024317  0.33131520  -0.00108522  1
  Mn  Mn139  1  0.00092596  0.49918084  0.74966714  1
  Mn  Mn140  1  0.75071434  0.00035073  0.12492243  1
  Mn  Mn141  1  0.74991274  0.16525616  0.62352969  1
  Mn  Mn142  1  0.00061348  0.16718753  0.49929170  1
  Mn  Mn143  1  0.74970210  0.16562961  0.87423860  1
  Fe  Fe144  1  0.00031712  0.16583523  0.00006860  1
  Fe  Fe145  1  0.74939844  0.49974302  0.62413259  1
  Fe  Fe146  1  0.74941427  -0.00049908  0.37532920  1
  Fe  Fe147  1  0.25035711  0.33350953  0.87556055  1
  Fe  Fe148  1  0.49963566  -0.00003674  0.49916595  1
  Fe  Fe149  1  0.25024850  0.16721115  0.12572021  1
  Fe  Fe150  1  0.24964742  0.50080052  0.62513761  1
  Fe  Fe151  1  0.74965403  0.66653983  0.62411139  1
  Fe  Fe152  1  -0.00020336  0.83418436  0.49967389  1
  Fe  Fe153  1  0.50024423  0.16700914  0.49932254  1
  Fe  Fe154  1  0.49960029  0.66625431  0.74897552  1
  Fe  Fe155  1  0.24990154  0.83391389  0.62557459  1
  Fe  Fe156  1  0.25079748  0.33304313  0.12585692  1
  Fe  Fe157  1  0.49956980  0.83367543  0.25044958  1
  Fe  Fe158  1  0.49988151  0.33349543  0.25140880  1
  Fe  Fe159  1  0.25039049  0.33421834  0.37456284  1
  Fe  Fe160  1  0.24999719  0.66733240  0.62530352  1
  Fe  Fe161  1  0.25008086  0.66705077  0.87433265  1
  Fe  Fe162  1  0.75036476  0.50016063  0.37506148  1
  Fe  Fe163  1  0.50016354  0.50021772  0.49970792  1
  Fe  Fe164  1  -0.00013007  -0.00010630  0.25007273  1
  Fe  Fe165  1  0.00007770  0.33277567  0.74949429  1
  Fe  Fe166  1  0.50034039  0.33391280  0.49971228  1
  Fe  Fe167  1  0.25046904  0.00060750  0.37534195  1
  Fe  Fe168  1  0.25079006  0.49918453  0.12464625  1
  Fe  Fe169  1  0.74900342  -0.00149561  0.62497133  1
  Fe  Fe170  1  0.25067512  0.50008137  0.37501561  1
  Fe  Fe171  1  0.00086291  0.33313186  0.49999774  1
  Fe  Fe172  1  0.49960656  0.66699756  0.25099659  1
  Fe  Fe173  1  0.74973973  0.16674334  0.12567780  1
  Fe  Fe174  1  0.74932701  0.83309522  0.62439750  1
  Fe  Fe175  1  0.75022643  0.49956780  0.12505719  1
  Fe  Fe176  1  0.00008889  0.66682240  0.50015675  1
  Fe  Fe177  1  0.75021900  0.33364930  0.37414463  1
  Fe  Fe178  1  0.00054008  0.33209121  0.24938096  1
  Fe  Fe179  1  0.50006694  0.16686912  0.25129474  1
  Fe  Fe180  1  0.49867822  0.83321092  0.49920840  1
  Fe  Fe181  1  0.49965652  0.00024054  0.25118665  1
  Fe  Fe182  1  -0.00044624  0.00083301  0.50007335  1
  Fe  Fe183  1  -0.00011492  0.16680238  0.74930701  1
  Fe  Fe184  1  0.74998656  0.83254783  0.87414233  1
  Fe  Fe185  1  0.50007635  0.50013451  0.25106727  1
  Fe  Fe186  1  0.25017555  0.16739036  0.37486232  1
  Fe  Fe187  1  0.00047131  0.00032322  -0.00000838  1
  Fe  Fe188  1  0.74953880  0.83325111  0.37599400  1
  Fe  Fe189  1  0.25012612  0.00002756  0.87553963  1
  Fe  Fe190  1  0.49977870  0.50036317  0.74925190  1
  Fe  Fe191  1  0.24996875  0.83305747  0.87487235  1
  P  P192  1  0.04242965  0.24788575  0.10250783  1
  P  P193  1  0.04290307  0.25107399  0.35241455  1
  P  P194  1  0.04294507  0.25129659  0.60267878  1
  P  P195  1  0.04156526  0.24887658  0.85135083  1
  P  P196  1  0.04328836  0.58236871  0.10340793  1
  P  P197  1  0.04275425  0.58343064  0.35411120  1
  P  P198  1  0.04229023  0.58426306  0.60217873  1
  P  P199  1  0.04341828  0.58292705  0.85286408  1
  P  P200  1  0.04253698  0.91841655  0.10266696  1
  P  P201  1  0.04165463  0.91837807  0.35348616  1
  P  P202  1  0.04124981  0.91779664  0.60118973  1
  P  P203  1  0.04265828  0.91759029  0.85338299  1
  P  P204  1  0.54200591  0.25021166  0.10525822  1
  P  P205  1  0.54111103  0.25000058  0.35285767  1
  P  P206  1  0.54173899  0.25016643  0.60071173  1
  P  P207  1  0.54301249  0.25037691  0.85300231  1
  P  P208  1  0.54252918  0.58367498  0.10497557  1
  P  P209  1  0.54108816  0.58351571  0.35235961  1
  P  P210  1  0.54151999  0.58235016  0.60249635  1
  P  P211  1  0.54157069  0.58344656  0.85082275  1
  P  P212  1  0.54250958  0.91670718  0.10491051  1
  P  P213  1  0.54037129  0.91655586  0.35273295  1
  P  P214  1  0.54034426  0.91600941  0.60058598  1
  P  P215  1  0.54281546  0.91673084  0.85283140  1
  P  P216  1  0.45834913  0.08382330  0.14994635  1
  P  P217  1  0.45907566  0.08401844  0.39776579  1
  P  P218  1  0.45709944  0.08380988  0.64522454  1
  P  P219  1  0.45659507  0.08367168  0.89725949  1
  P  P220  1  0.45876305  0.41694395  0.14990472  1
  P  P221  1  0.45930951  0.41709499  0.39785222  1
  P  P222  1  0.45809265  0.41815893  0.64637557  1
  P  P223  1  0.45725068  0.41763711  0.89696564  1
  P  P224  1  0.45801260  0.74997716  0.14931895  1
  P  P225  1  0.45727477  0.75114436  0.39661935  1
  P  P226  1  0.45752579  0.74886419  0.64678630  1
  P  P227  1  0.45767217  0.74944545  0.89652073  1
  P  P228  1  0.95797783  0.08163616  0.14716156  1
  P  P229  1  0.95774039  0.08229952  0.39723763  1
  P  P230  1  0.95758758  0.08475570  0.64676180  1
  P  P231  1  0.95852572  0.08370438  0.89801159  1
  P  P232  1  0.95811116  0.41418295  0.14753544  1
  P  P233  1  0.95845855  0.41428838  0.39713431  1
  P  P234  1  0.95827261  0.41484386  0.64681660  1
  P  P235  1  0.95733970  0.41537526  0.89588638  1
  P  P236  1  0.95689169  0.75015916  0.14722910  1
  P  P237  1  0.95821948  0.75024737  0.39891857  1
  P  P238  1  0.95789243  0.75047088  0.64524262  1
  P  P239  1  0.95717413  0.74998248  0.89655952  1
  P  P240  1  0.20870343  0.08538546  0.22862444  1
  P  P241  1  0.20887989  0.08400424  0.47643684  1
  P  P242  1  0.20719965  0.08368479  0.72875739  1
  P  P243  1  0.20835813  0.08284372  0.97789767  1
  P  P244  1  0.20955892  0.41680065  0.22721592  1
  P  P245  1  0.20918200  0.41764924  0.47653152  1
  P  P246  1  0.20792967  0.41848444  0.72752121  1
  P  P247  1  0.20830151  0.41498828  0.97828932  1
  P  P248  1  0.20707824  0.75013544  0.22854479  1
  P  P249  1  0.20762980  0.75012944  0.47949963  1
  P  P250  1  0.20834863  0.75062894  0.72715884  1
  P  P251  1  0.20878680  0.74939956  0.97649699  1
  P  P252  1  0.70815004  0.08413471  0.22829209  1
  P  P253  1  0.70728169  0.08103788  0.47760729  1
  P  P254  1  0.70702526  0.08122055  0.72658779  1
  P  P255  1  0.70704146  0.08322430  0.97873669  1
  P  P256  1  0.70824960  0.41794874  0.22834479  1
  P  P257  1  0.70852747  0.41698263  0.47600488  1
  P  P258  1  0.70703347  0.41762461  0.72638013  1
  P  P259  1  0.70705374  0.41660014  0.97841067  1
  P  P260  1  0.70750662  0.75004803  0.22936727  1
  P  P261  1  0.70767855  0.75072858  0.47831198  1
  P  P262  1  0.70831348  0.74996506  0.72589710  1
  P  P263  1  0.70743867  0.75060446  0.97700883  1
  P  P264  1  0.29198073  0.24998750  0.02392662  1
  P  P265  1  0.29159340  0.25066705  0.27338777  1
  P  P266  1  0.29245373  0.25058109  0.52057320  1
  P  P267  1  0.29245799  0.25226151  0.77254847  1
  P  P268  1  0.29273771  0.58209555  0.02253707  1
  P  P269  1  0.29231053  0.58184865  0.27257352  1
  P  P270  1  0.29131527  0.58345131  0.52354781  1
  P  P271  1  0.29178841  0.58520254  0.77171928  1
  P  P272  1  0.29312624  0.91666477  0.02132148  1
  P  P273  1  0.29222211  0.91867896  0.27306063  1
  P  P274  1  0.29164758  0.91623577  0.52254850  1
  P  P275  1  0.29107565  0.91665436  0.77349367  1
  P  P276  1  0.79238573  0.24816057  0.02272844  1
  P  P277  1  0.79200295  0.25074147  0.27221367  1
  P  P278  1  0.79239738  0.24998561  0.52044321  1
  P  P279  1  0.79246552  0.24948370  0.77091512  1
  P  P280  1  0.79256955  0.58189617  0.02264784  1
  P  P281  1  0.79254821  0.58170964  0.27263869  1
  P  P282  1  0.79111414  0.58268333  0.52275961  1
  P  P283  1  0.79242760  0.58317070  0.76996181  1
  P  P284  1  0.79301817  0.91588813  0.02158417  1
  P  P285  1  0.79129260  0.91645136  0.27430767  1
  P  P286  1  0.79048322  0.91618815  0.52259815  1
  P  P287  1  0.79178483  0.91470738  0.77135452  1
  O  O288  1  0.03723585  0.24859112  0.18246794  1
  O  O289  1  0.03800234  0.25117704  0.43240043  1
  O  O290  1  0.03728300  0.25096422  0.68252772  1
  O  O291  1  0.03649953  0.24810696  0.93134434  1
  O  O292  1  0.03824282  0.58224375  0.18346220  1
  O  O293  1  0.03707493  0.58377864  0.43407139  1
  O  O294  1  0.03753651  0.58393527  0.68218028  1
  O  O295  1  0.03837149  0.58274470  0.93287275  1
  O  O296  1  0.03732736  0.91837661  0.18269547  1
  O  O297  1  0.03612400  0.91814995  0.43338210  1
  O  O298  1  0.03681306  0.91763278  0.68122742  1
  O  O299  1  0.03743400  0.91787882  0.93333172  1
  O  O300  1  0.53674160  0.25007825  0.18522398  1
  O  O301  1  0.53619238  0.25006137  0.43278368  1
  O  O302  1  0.53721163  0.25058121  0.68074863  1
  O  O303  1  0.53788208  0.25036524  0.93305508  1
  O  O304  1  0.53718967  0.58385967  0.18488677  1
  O  O305  1  0.53604512  0.58293391  0.43235279  1
  O  O306  1  0.53624451  0.58249918  0.68239305  1
  O  O307  1  0.53688828  0.58356419  0.93092246  1
  O  O308  1  0.53709401  0.91656680  0.18488023  1
  O  O309  1  0.53504396  0.91640048  0.43262318  1
  O  O310  1  0.53574771  0.91627595  0.68058254  1
  O  O311  1  0.53802050  0.91667577  0.93288331  1
  O  O312  1  0.46290848  0.08365535  0.06990872  1
  O  O313  1  0.46418026  0.08395844  0.31785938  1
  O  O314  1  0.46267180  0.08401662  0.56529478  1
  O  O315  1  0.46131141  0.08358247  0.81718991  1
  O  O316  1  0.46313124  0.41693433  0.06986843  1
  O  O317  1  0.46429462  0.41685935  0.31795441  1
  O  O318  1  0.46344422  0.41797683  0.56645229  1
  O  O319  1  0.46233921  0.41791929  0.81695547  1
  O  O320  1  0.46334480  0.74994354  0.06929539  1
  O  O321  1  0.46295829  0.75095678  0.31676432  1
  O  O322  1  0.46233779  0.74964588  0.56676848  1
  O  O323  1  0.46269677  0.74872528  0.81649997  1
  O  O324  1  0.96337299  0.08199657  0.06727066  1
  O  O325  1  0.96287309  0.08197807  0.31729170  1
  O  O326  1  0.96296054  0.08410685  0.56681226  1
  O  O327  1  0.96366016  0.08445493  0.81800558  1
  O  O328  1  0.96295732  0.41450175  0.06750962  1
  O  O329  1  0.96387177  0.41416135  0.31718704  1
  O  O330  1  0.96364397  0.41493009  0.56682821  1
  O  O331  1  0.96272260  0.41508370  0.81592157  1
  O  O332  1  0.96202898  0.75018981  0.06724864  1
  O  O333  1  0.96269792  0.75062015  0.31886577  1
  O  O334  1  0.96334245  0.75031482  0.56531399  1
  O  O335  1  0.96229143  0.75015609  0.81652494  1
  O  O336  1  0.21380575  0.08366879  0.05783223  1
  O  O337  1  0.21404487  0.08513910  0.30855204  1
  O  O338  1  0.21341421  0.08370178  0.55646975  1
  O  O339  1  0.21263645  0.08331304  0.80867892  1
  O  O340  1  0.21389125  0.41506386  0.05815247  1
  O  O341  1  0.21442163  0.41672467  0.30714742  1
  O  O342  1  0.21372919  0.41795341  0.55650015  1
  O  O343  1  0.21301116  0.41775003  0.80742009  1
  O  O344  1  0.21343783  0.74950616  0.05652232  1
  O  O345  1  0.21207173  0.75020264  0.30854875  1
  O  O346  1  0.21310263  0.75026771  0.55941546  1
  O  O347  1  0.21354627  0.75030830  0.80710245  1
  O  O348  1  0.71251582  0.08399791  0.05872619  1
  O  O349  1  0.71333331  0.08334006  0.30827383  1
  O  O350  1  0.71233629  0.08069626  0.55755767  1
  O  O351  1  0.71207621  0.08142013  0.80660589  1
  O  O352  1  0.71248884  0.41697262  0.05838589  1
  O  O353  1  0.71382894  0.41757062  0.30823615  1
  O  O354  1  0.71323141  0.41733856  0.55602108  1
  O  O355  1  0.71195053  0.41726004  0.80636821  1
  O  O356  1  0.71257531  0.75003857  0.05701376  1
  O  O357  1  0.71283103  0.75038087  0.30933446  1
  O  O358  1  0.71286282  0.75071082  0.55823353  1
  O  O359  1  0.71318079  0.75013448  0.80589556  1
  O  O360  1  0.28699902  0.25075582  0.19343585  1
  O  O361  1  0.28707555  0.25037022  0.44066999  1
  O  O362  1  0.28724856  0.25214003  0.69257003  1
  O  O363  1  0.28727751  0.25063363  0.94392048  1
  O  O364  1  0.28714561  0.58170821  0.19263897  1
  O  O365  1  0.28643564  0.58286044  0.44354804  1
  O  O366  1  0.28617849  0.58514066  0.69183663  1
  O  O367  1  0.28727222  0.58284529  0.94262431  1
  O  O368  1  0.28759787  0.91868992  0.19306308  1
  O  O369  1  0.28655818  0.91726708  0.44259808  1
  O  O370  1  0.28583424  0.91603140  0.69350023  1
  O  O371  1  0.28776834  0.91679687  0.94139677  1
  O  O372  1  0.78667136  0.25008871  0.19226596  1
  O  O373  1  0.78704647  0.25052388  0.44049288  1
  O  O374  1  0.78740118  0.24951136  0.69090068  1
  O  O375  1  0.78728300  0.24839745  0.94271673  1
  O  O376  1  0.78740953  0.58172122  0.19268388  1
  O  O377  1  0.78649366  0.58255994  0.44272734  1
  O  O378  1  0.78696775  0.58301335  0.69004758  1
  O  O379  1  0.78742482  0.58249731  0.94262153  1
  O  O380  1  0.78692812  0.91676672  0.19427524  1
  O  O381  1  0.78525934  0.91614130  0.44269085  1
  O  O382  1  0.78616007  0.91519096  0.69142866  1
  O  O383  1  0.78783021  0.91547314  0.94161030  1
  O  O384  1  0.22778140  0.24942350  0.05979346  1
  O  O385  1  0.22747291  0.25017169  0.30935098  1
  O  O386  1  0.22832286  0.25084787  0.55652410  1
  O  O387  1  0.22820362  0.25202793  0.80828285  1
  O  O388  1  0.22849622  0.58123752  0.05846329  1
  O  O389  1  0.22805214  0.58147526  0.30833300  1
  O  O390  1  0.22719975  0.58354830  0.55957637  1
  O  O391  1  0.22783117  0.58518349  0.80825369  1
  O  O392  1  0.22890048  0.91712784  0.05710950  1
  O  O393  1  0.22778762  0.91861020  0.30812531  1
  O  O394  1  0.22737478  0.91520215  0.55828168  1
  O  O395  1  0.22710620  0.91728565  0.80979183  1
  O  O396  1  0.72808625  0.24836375  0.05834864  1
  O  O397  1  0.72782896  0.25094316  0.30809186  1
  O  O398  1  0.72809184  0.24957786  0.55579023  1
  O  O399  1  0.72801633  0.24941254  0.80596502  1
  O  O400  1  0.72820659  0.58129519  0.05824501  1
  O  O401  1  0.72821956  0.58187771  0.30826991  1
  O  O402  1  0.72690830  0.58224727  0.55847350  1
  O  O403  1  0.72822121  0.58354129  0.80577801  1
  O  O404  1  0.72869058  0.91663550  0.05696407  1
  O  O405  1  0.72687072  0.91610251  0.30955892  1
  O  O406  1  0.72639755  0.91609581  0.55891996  1
  O  O407  1  0.72766390  0.91430145  0.80761912  1
  O  O408  1  0.27285328  0.08592925  0.19250323  1
  O  O409  1  0.27313229  0.08448072  0.44087067  1
  O  O410  1  0.27146975  0.08340716  0.69324386  1
  O  O411  1  0.27247297  0.08235123  0.94182089  1
  O  O412  1  0.27363768  0.41736164  0.19102731  1
  O  O413  1  0.27341449  0.41790599  0.44075232  1
  O  O414  1  0.27219372  0.41909616  0.69172687  1
  O  O415  1  0.27236755  0.41524177  0.94193799  1
  O  O416  1  0.27157187  0.74985114  0.19364977  1
  O  O417  1  0.27172931  0.75027794  0.44349936  1
  O  O418  1  0.27238197  0.75108064  0.69071416  1
  O  O419  1  0.27293247  0.74911711  0.94065762  1
  O  O420  1  0.77232974  0.08482815  0.19237281  1
  O  O421  1  0.77160832  0.08135098  0.44216615  1
  O  O422  1  0.77141764  0.08082570  0.69120121  1
  O  O423  1  0.77130030  0.08242727  0.94314683  1
  O  O424  1  0.77227250  0.41811550  0.19188241  1
  O  O425  1  0.77282374  0.41698117  0.44040211  1
  O  O426  1  0.77147894  0.41792797  0.69108229  1
  O  O427  1  0.77134894  0.41634142  0.94290625  1
  O  O428  1  0.77174114  0.74954139  0.19384391  1
  O  O429  1  0.77187399  0.75101692  0.44241902  1
  O  O430  1  0.77237356  0.75036043  0.68985012  1
  O  O431  1  0.77177478  0.75102777  0.94130712  1
  O  O432  1  0.02212994  0.08122354  0.18332576  1
  O  O433  1  0.02206513  0.08228594  0.43278842  1
  O  O434  1  0.02187294  0.08555095  0.68247713  1
  O  O435  1  0.02266079  0.08365868  0.93420088  1
  O  O436  1  0.02258313  0.41380309  0.18276742  1
  O  O437  1  0.02270000  0.41475550  0.43291281  1
  O  O438  1  0.02249171  0.41458886  0.68259134  1
  O  O439  1  0.02165025  0.41529134  0.93128499  1
  O  O440  1  0.02134455  0.75054814  0.18222043  1
  O  O441  1  0.02246679  0.74992504  0.43435619  1
  O  O442  1  0.02206539  0.75056209  0.68108185  1
  O  O443  1  0.02163312  0.75025646  0.93153278  1
  O  O444  1  0.52259854  0.08421438  0.18549642  1
  O  O445  1  0.52301684  0.08409594  0.43410514  1
  O  O446  1  0.52129620  0.08348105  0.68106962  1
  O  O447  1  0.52111223  0.08395954  0.93210048  1
  O  O448  1  0.52298865  0.41714290  0.18530848  1
  O  O449  1  0.52335312  0.41762564  0.43400172  1
  O  O450  1  0.52223882  0.41857841  0.68242830  1
  O  O451  1  0.52160950  0.41739191  0.93228631  1
  O  O452  1  0.52211505  0.74973382  0.18541292  1
  O  O453  1  0.52133652  0.75139663  0.43287524  1
  O  O454  1  0.52187753  0.74836828  0.68222507  1
  O  O455  1  0.52206160  0.75000347  0.93171664  1
  O  O456  1  0.47775808  0.25048186  0.06953180  1
  O  O457  1  0.47705252  0.24948791  0.31675409  1
  O  O458  1  0.47749448  0.24971876  0.56525409  1
  O  O459  1  0.47854913  0.25076305  0.81797679  1
  O  O460  1  0.47826764  0.58375306  0.06929048  1
  O  O461  1  0.47700891  0.58413840  0.31640133  1
  O  O462  1  0.47738767  0.58204799  0.56643684  1
  O  O463  1  0.47728416  0.58360531  0.81518748  1
  O  O464  1  0.47833432  0.91668989  0.06900911  1
  O  O465  1  0.47651492  0.91625322  0.31617041  1
  O  O466  1  0.47612742  0.91580657  0.56497997  1
  O  O467  1  0.47827739  0.91628325  0.81802236  1
  O  O468  1  0.97816014  0.24709954  0.06679266  1
  O  O469  1  0.97856205  0.25103605  0.31691947  1
  O  O470  1  0.97882436  0.25139143  0.56639113  1
  O  O471  1  0.97745278  0.24890029  0.81518905  1
  O  O472  1  0.97879680  0.58250070  0.06850323  1
  O  O473  1  0.97855931  0.58262430  0.31852494  1
  O  O474  1  0.97791646  0.58390228  0.56699173  1
  O  O475  1  0.97897707  0.58267315  0.81787740  1
  O  O476  1  0.97824196  0.91855272  0.06708010  1
  O  O477  1  0.97749761  0.91885375  0.31729887  1
  O  O478  1  0.97694466  0.91813468  0.56578590  1
  O  O479  1  0.97839935  0.91751648  0.81787041  1
  O  O480  1  0.07327921  0.31137725  0.07398111  1
  O  O481  1  0.07389561  0.31417715  0.32332193  1
  O  O482  1  0.07396719  0.31467013  0.57398385  1
  O  O483  1  0.07205436  0.31301263  0.82362540  1
  O  O484  1  0.07425986  0.64598382  0.07543025  1
  O  O485  1  0.07373458  0.64689035  0.32585375  1
  O  O486  1  0.07263844  0.64800876  0.57373379  1
  O  O487  1  0.07415856  0.64656892  0.82470927  1
  O  O488  1  0.07357805  0.98163309  0.07388101  1
  O  O489  1  0.07294296  0.98152147  0.32471760  1
  O  O490  1  0.07237426  0.98137588  0.57323982  1
  O  O491  1  0.07387142  0.98086206  0.82496138  1
  O  O492  1  0.57329175  0.31357075  0.07685746  1
  O  O493  1  0.57138657  0.31400463  0.32424836  1
  O  O494  1  0.57197580  0.31414105  0.57213924  1
  O  O495  1  0.57418908  0.31373876  0.82473298  1
  O  O496  1  0.57380072  0.64691091  0.07618868  1
  O  O497  1  0.57228999  0.64720846  0.32485684  1
  O  O498  1  0.57251966  0.64598249  0.57433547  1
  O  O499  1  0.57239302  0.64703155  0.82234642  1
  O  O500  1  0.57356154  0.98025154  0.07665597  1
  O  O501  1  0.57086066  0.98061575  0.32453972  1
  O  O502  1  0.57078614  0.97985475  0.57203858  1
  O  O503  1  0.57336896  0.98033889  0.82435757  1
  O  O504  1  0.42809884  0.01983012  0.17837075  1
  O  O505  1  0.42839837  0.02015914  0.42618563  1
  O  O506  1  0.42570495  0.02042533  0.67344919  1
  O  O507  1  0.42599591  0.02012490  0.92584285  1
  O  O508  1  0.42836726  0.35307376  0.17844053  1
  O  O509  1  0.42894610  0.35321759  0.42661876  1
  O  O510  1  0.42709985  0.35446471  0.67444694  1
  O  O511  1  0.42629497  0.35408761  0.92534574  1
  O  O512  1  0.42692522  0.68642977  0.17730293  1
  O  O513  1  0.42615888  0.68750263  0.42463949  1
  O  O514  1  0.42695026  0.68511539  0.67500423  1
  O  O515  1  0.42676861  0.68617142  0.92548713  1
  O  O516  1  0.92668796  0.01848618  0.17596255  1
  O  O517  1  0.92662063  0.01928808  0.42638858  1
  O  O518  1  0.92683265  0.02112182  0.67513111  1
  O  O519  1  0.92799702  0.01964612  0.92574803  1
  O  O520  1  0.92734053  0.35056275  0.17574564  1
  O  O521  1  0.92766757  0.35101928  0.42599423  1
  O  O522  1  0.92708773  0.35164330  0.67538662  1
  O  O523  1  0.92601552  0.35210405  0.92424756  1
  O  O524  1  0.92609437  0.68659977  0.17550885  1
  O  O525  1  0.92716665  0.68662642  0.42688626  1
  O  O526  1  0.92664255  0.68710644  0.67359943  1
  O  O527  1  0.92639807  0.68627133  0.92454064  1
  O  O528  1  0.17775925  0.02179293  0.20045720  1
  O  O529  1  0.17873376  0.01995241  0.44813054  1
  O  O530  1  0.17562593  0.02063563  0.70029691  1
  O  O531  1  0.17751202  0.01923649  0.94988145  1
  O  O532  1  0.17927069  0.35281900  0.19858877  1
  O  O533  1  0.17906620  0.35357607  0.44808089  1
  O  O534  1  0.17695730  0.35511080  0.69902727  1
  O  O535  1  0.17764146  0.35142278  0.94948652  1
  O  O536  1  0.17598877  0.68669031  0.20054968  1
  O  O537  1  0.17660497  0.68661248  0.45130734  1
  O  O538  1  0.17772327  0.68699386  0.69846615  1
  O  O539  1  0.17768693  0.68593057  0.94847777  1
  O  O540  1  0.67719775  0.02058029  0.20026478  1
  O  O541  1  0.67652240  0.01779871  0.44851178  1
  O  O542  1  0.67610109  0.01772567  0.69835823  1
  O  O543  1  0.67570013  0.01967991  0.95112689  1
  O  O544  1  0.67699090  0.35440189  0.20045839  1
  O  O545  1  0.67809432  0.35301589  0.44786039  1
  O  O546  1  0.67615225  0.35398692  0.69831964  1
  O  O547  1  0.67611418  0.35286949  0.95058462  1
  O  O548  1  0.67632972  0.68652219  0.20149501  1
  O  O549  1  0.67667551  0.68701400  0.45048776  1
  O  O550  1  0.67820410  0.68586673  0.69747150  1
  O  O551  1  0.67670134  0.68686544  0.94891920  1
  O  O552  1  0.32254059  0.31352537  0.05295210  1
  O  O553  1  0.32183736  0.31465842  0.30205444  1
  O  O554  1  0.32376361  0.31403614  0.54854482  1
  O  O555  1  0.32291659  0.31590259  0.80100944  1
  O  O556  1  0.32358776  0.64561650  0.05091540  1
  O  O557  1  0.32288722  0.64574176  0.30050622  1
  O  O558  1  0.32196726  0.64737283  0.55137384  1
  O  O559  1  0.32265410  0.64865791  0.80030741  1
  O  O560  1  0.32474119  0.97972904  0.04983783  1
  O  O561  1  0.32273734  0.98227591  0.30180166  1
  O  O562  1  0.32230137  0.97984414  0.55097552  1
  O  O563  1  0.32233213  0.98029317  0.80103069  1
  O  O564  1  0.82364001  0.31172499  0.05037395  1
  O  O565  1  0.82259765  0.31454984  0.30027856  1
  O  O566  1  0.82358730  0.31317196  0.54892528  1
  O  O567  1  0.82326218  0.31299782  0.79917480  1
  O  O568  1  0.82322746  0.64567143  0.05065101  1
  O  O569  1  0.82363170  0.64531523  0.30062368  1
  O  O570  1  0.82109070  0.64695850  0.55081457  1
  O  O571  1  0.82380862  0.64649905  0.79826054  1
  O  O572  1  0.82428890  0.97932556  0.04962634  1
  O  O573  1  0.82159367  0.98034564  0.30270143  1
  O  O574  1  0.82137855  0.97979630  0.55095163  1
  O  O575  1  0.82289529  0.97826097  0.79950266  1
  O  O576  1  0.42717770  0.14721017  0.17805199  1
  O  O577  1  0.42779774  0.14737411  0.42596368  1
  O  O578  1  0.42607452  0.14723301  0.67375156  1
  O  O579  1  0.42556394  0.14711220  0.92553335  1
  O  O580  1  0.42778529  0.48044648  0.17815679  1
  O  O581  1  0.42781054  0.48039662  0.42599815  1
  O  O582  1  0.42701037  0.48137340  0.67522647  1
  O  O583  1  0.42621065  0.48093690  0.92552825  1
  O  O584  1  0.42731209  0.81383472  0.17708193  1
  O  O585  1  0.42610969  0.81440682  0.42518740  1
  O  O586  1  0.42648158  0.81221470  0.67526554  1
  O  O587  1  0.42654696  0.81294441  0.92452090  1
  O  O588  1  0.92711514  0.14523712  0.17558927  1
  O  O589  1  0.92701037  0.14630786  0.42458784  1
  O  O590  1  0.92654222  0.14816093  0.67492393  1
  O  O591  1  0.92744725  0.14697663  0.92667311  1
  O  O592  1  0.92741382  0.47782476  0.17574543  1
  O  O593  1  0.92721691  0.47799566  0.42468742  1
  O  O594  1  0.92746498  0.47877498  0.67428845  1
  O  O595  1  0.92642899  0.47896420  0.92400153  1
  O  O596  1  0.92571411  0.81353823  0.17542542  1
  O  O597  1  0.92799882  0.81424398  0.42730704  1
  O  O598  1  0.92674493  0.81394543  0.67343087  1
  O  O599  1  0.92597523  0.81329136  0.92472233  1
  O  O600  1  0.07341085  0.18440412  0.07434610  1
  O  O601  1  0.07356960  0.18712423  0.32480641  1
  O  O602  1  0.07410915  0.18779990  0.57444588  1
  O  O603  1  0.07272430  0.18567024  0.82269814  1
  O  O604  1  0.07412688  0.51884123  0.07521938  1
  O  O605  1  0.07425060  0.52000641  0.32636698  1
  O  O606  1  0.07363446  0.52077928  0.57448463  1
  O  O607  1  0.07457580  0.51954171  0.82472484  1
  O  O608  1  0.07343782  0.85456174  0.07497010  1
  O  O609  1  0.07254763  0.85463269  0.32544336  1
  O  O610  1  0.07151113  0.85392256  0.57268142  1
  O  O611  1  0.07364334  0.85403557  0.82527877  1
  O  O612  1  0.57301538  0.18681623  0.07672811  1
  O  O613  1  0.57270531  0.18682574  0.32459899  1
  O  O614  1  0.57298671  0.18676967  0.57274313  1
  O  O615  1  0.57371305  0.18683239  0.82461766  1
  O  O616  1  0.57348715  0.52025078  0.07643321  1
  O  O617  1  0.57161330  0.51980559  0.32384674  1
  O  O618  1  0.57268882  0.51921118  0.57356079  1
  O  O619  1  0.57208210  0.51960912  0.82274059  1
  O  O620  1  0.57374191  0.85337870  0.07649350  1
  O  O621  1  0.57192729  0.85341136  0.32438114  1
  O  O622  1  0.57132331  0.85239294  0.57271626  1
  O  O623  1  0.57398869  0.85344164  0.82441601  1
  O  O624  1  0.32290146  0.18629397  0.05195710  1
  O  O625  1  0.32308677  0.18755547  0.30196691  1
  O  O626  1  0.32350226  0.18725372  0.54927929  1
  O  O627  1  0.32372215  0.18866345  0.80015486  1
  O  O628  1  0.32375619  0.51854299  0.05068496  1
  O  O629  1  0.32359744  0.51880697  0.30144244  1
  O  O630  1  0.32228209  0.52000456  0.55208086  1
  O  O631  1  0.32309603  0.52174252  0.79975104  1
  O  O632  1  0.32386041  0.85298139  0.04980763  1
  O  O633  1  0.32325520  0.85506955  0.30082451  1
  O  O634  1  0.32275447  0.85277972  0.55069319  1
  O  O635  1  0.32160049  0.85284184  0.80199567  1
  O  O636  1  0.82287763  0.18460116  0.05141579  1
  O  O637  1  0.82350025  0.18749729  0.30035067  1
  O  O638  1  0.82349041  0.18628448  0.54810336  1
  O  O639  1  0.82344412  0.18591628  0.79894068  1
  O  O640  1  0.82351158  0.51838665  0.05081758  1
  O  O641  1  0.82341623  0.51840900  0.30148506  1
  O  O642  1  0.82259077  0.51947541  0.55100606  1
  O  O643  1  0.82352242  0.51983725  0.79863592  1
  O  O644  1  0.82382136  0.85252070  0.05031235  1
  O  O645  1  0.82222868  0.85290038  0.30260071  1
  O  O646  1  0.82162775  0.85276143  0.55103213  1
  O  O647  1  0.82274916  0.85124775  0.79982540  1
  O  O648  1  0.17763689  0.14869857  0.19984743  1
  O  O649  1  0.17756293  0.14738787  0.44848104  1
  O  O650  1  0.17660780  0.14747033  0.70057954  1
  O  O651  1  0.17726883  0.14633939  0.94971266  1
  O  O652  1  0.17808612  0.47992497  0.19860305  1
  O  O653  1  0.17784096  0.48084926  0.44810128  1
  O  O654  1  0.17714759  0.48213624  0.69919693  1
  O  O655  1  0.17679320  0.47833718  0.95024700  1
  O  O656  1  0.17637610  0.81376649  0.20023915  1
  O  O657  1  0.17615428  0.81331806  0.45105667  1
  O  O658  1  0.17721134  0.81423711  0.69902639  1
  O  O659  1  0.17847672  0.81339405  0.94810831  1
  O  O660  1  0.67730705  0.14784814  0.20033872  1
  O  O661  1  0.67623962  0.14480136  0.44998095  1
  O  O662  1  0.67622973  0.14494181  0.69860141  1
  O  O663  1  0.67600257  0.14644494  0.94992498  1
  O  O664  1  0.67729791  0.48135675  0.19977976  1
  O  O665  1  0.67748818  0.48040237  0.44752270  1
  O  O666  1  0.67632967  0.48110362  0.69779550  1
  O  O667  1  0.67580046  0.47982659  0.94991347  1
  O  O668  1  0.67640868  0.81338059  0.20098802  1
  O  O669  1  0.67660561  0.81395145  0.44935827  1
  O  O670  1  0.67665307  0.81304128  0.69756073  1
  O  O671  1  0.67669626  0.81413633  0.94866503  1
