# generated using pymatgen
data_Na2MnFe(PO4)2
_symmetry_space_group_name_H-M   'P 1'
_cell_length_a   22.34189099
_cell_length_b   20.09408609
_cell_length_c   19.44949267
_cell_angle_alpha   90.01325002
_cell_angle_beta   89.97583768
_cell_angle_gamma   89.95782436
_symmetry_Int_Tables_number   1
_chemical_formula_structural   Na2MnFe(PO4)2
_chemical_formula_sum   'Na96 Mn48 Fe48 P96 O384'
_cell_volume   8731.64954417
_cell_formula_units_Z   48
loop_
 _symmetry_equiv_pos_site_id
 _symmetry_equiv_pos_as_xyz
  1  'x, y, z'
loop_
 _atom_site_type_symbol
 _atom_site_label
 _atom_site_symmetry_multiplicity
 _atom_site_fract_x
 _atom_site_fract_y
 _atom_site_fract_z
 _atom_site_occupancy
  Na  Na0  1  0.13990832  0.24985691  0.24338444  1
  Na  Na1  1  0.13970239  0.25103610  0.49328175  1
  Na  Na2  1  0.14023054  0.25067579  0.74422481  1
  Na  Na3  1  0.14052737  0.24879198  0.99374023  1
  Na  Na4  1  0.14014126  0.58365685  0.24308749  1
  Na  Na5  1  0.13983734  0.58405297  0.49408782  1
  Na  Na6  1  0.14006808  0.58289715  0.74226717  1
  Na  Na7  1  0.14007588  0.58184601  0.99320854  1
  Na  Na8  1  0.14009415  0.91709120  0.24218434  1
  Na  Na9  1  0.14003035  0.91708501  0.49292695  1
  Na  Na10  1  0.13994642  0.91666840  0.74366699  1
  Na  Na11  1  0.13946617  0.91632046  0.99385805  1
  Na  Na12  1  0.64121235  0.24949649  0.24491476  1
  Na  Na13  1  0.64062395  0.24969200  0.49409815  1
  Na  Na14  1  0.64039822  0.24936812  0.74358614  1
  Na  Na15  1  0.64105698  0.24876978  0.99328423  1
  Na  Na16  1  0.64101318  0.58498057  0.24404846  1
  Na  Na17  1  0.64070387  0.58483295  0.49290457  1
  Na  Na18  1  0.64100531  0.58355072  0.74313498  1
  Na  Na19  1  0.64064146  0.58265963  0.99376225  1
  Na  Na20  1  0.64112604  0.91663012  0.24482046  1
  Na  Na21  1  0.64126226  0.91672995  0.49432536  1
  Na  Na22  1  0.64090274  0.91549796  0.74423507  1
  Na  Na23  1  0.64035561  0.91688311  0.99416974  1
  Na  Na24  1  0.35932167  0.08151885  0.00611115  1
  Na  Na25  1  0.35918241  0.08291695  0.25461621  1
  Na  Na26  1  0.35900921  0.08440318  0.50604718  1
  Na  Na27  1  0.35901336  0.08407443  0.75652715  1
  Na  Na28  1  0.35972902  0.41637722  0.00574384  1
  Na  Na29  1  0.35941062  0.41589567  0.25520772  1
  Na  Na30  1  0.35957092  0.41712113  0.50616723  1
  Na  Na31  1  0.35944012  0.41620061  0.75652890  1
  Na  Na32  1  0.35848069  0.74917896  0.00714126  1
  Na  Na33  1  0.35935838  0.74929022  0.25482911  1
  Na  Na34  1  0.35988133  0.74980168  0.50680185  1
  Na  Na35  1  0.35924043  0.75047158  0.75557794  1
  Na  Na36  1  0.85974682  0.08183580  0.00769936  1
  Na  Na37  1  0.85964376  0.08256166  0.25815213  1
  Na  Na38  1  0.86000294  0.08326524  0.50680733  1
  Na  Na39  1  0.85977905  0.08248598  0.75679025  1
  Na  Na40  1  0.86007384  0.41632470  0.00587623  1
  Na  Na41  1  0.86004784  0.41643302  0.25792374  1
  Na  Na42  1  0.85983840  0.41724632  0.50707126  1
  Na  Na43  1  0.85990314  0.41695763  0.75555778  1
  Na  Na44  1  0.85948145  0.75185786  0.00617428  1
  Na  Na45  1  0.85943283  0.75176356  0.25706168  1
  Na  Na46  1  0.86001180  0.75121219  0.50731153  1
  Na  Na47  1  0.86003736  0.75076194  0.75567852  1
  Na  Na48  1  0.10926473  0.08193722  0.11797394  1
  Na  Na49  1  0.10966842  0.08479336  0.36820210  1
  Na  Na50  1  0.10874886  0.08400129  0.61746193  1
  Na  Na51  1  0.10940705  0.08289540  0.87015013  1
  Na  Na52  1  0.10926270  0.41529242  0.11802164  1
  Na  Na53  1  0.10941761  0.41728873  0.36944493  1
  Na  Na54  1  0.10929878  0.41728004  0.61838608  1
  Na  Na55  1  0.11002089  0.41784003  0.86806960  1
  Na  Na56  1  0.10940741  0.74993269  0.11726488  1
  Na  Na57  1  0.10963514  0.75105809  0.36940672  1
  Na  Na58  1  0.10974512  0.74966269  0.61710379  1
  Na  Na59  1  0.10903863  0.74968846  0.86886324  1
  Na  Na60  1  0.61028022  0.08251219  0.11931716  1
  Na  Na61  1  0.61039054  0.08392504  0.36872655  1
  Na  Na62  1  0.61009249  0.08334425  0.61972308  1
  Na  Na63  1  0.60972858  0.08171723  0.86852039  1
  Na  Na64  1  0.61014698  0.41589842  0.11960098  1
  Na  Na65  1  0.60979402  0.41724868  0.36900046  1
  Na  Na66  1  0.60982653  0.41626177  0.61883656  1
  Na  Na67  1  0.61013416  0.41576183  0.86823904  1
  Na  Na68  1  0.60995294  0.74964369  0.11900259  1
  Na  Na69  1  0.61067185  0.74977460  0.36929394  1
  Na  Na70  1  0.61054599  0.75086470  0.61825753  1
  Na  Na71  1  0.60989965  0.75044623  0.86888232  1
  Na  Na72  1  0.39037165  0.24925774  0.13041637  1
  Na  Na73  1  0.38985232  0.25034615  0.38036876  1
  Na  Na74  1  0.39000013  0.25067000  0.63148540  1
  Na  Na75  1  0.39050901  0.24987184  0.88089853  1
  Na  Na76  1  0.39007627  0.58145903  0.13097288  1
  Na  Na77  1  0.39023145  0.58373253  0.37984178  1
  Na  Na78  1  0.39070524  0.58432505  0.63158659  1
  Na  Na79  1  0.38992564  0.58265096  0.88096394  1
  Na  Na80  1  0.38967210  0.91612410  0.13126064  1
  Na  Na81  1  0.39006850  0.91576563  0.38025039  1
  Na  Na82  1  0.38984536  0.91707127  0.63148228  1
  Na  Na83  1  0.38967208  0.91626231  0.88100717  1
  Na  Na84  1  0.89078014  0.24849427  0.13202792  1
  Na  Na85  1  0.89066290  0.25058395  0.38354811  1
  Na  Na86  1  0.89014207  0.25124911  0.63068877  1
  Na  Na87  1  0.89035505  0.25052936  0.88184997  1
  Na  Na88  1  0.89067607  0.58223229  0.13104711  1
  Na  Na89  1  0.89085845  0.58450989  0.38282071  1
  Na  Na90  1  0.89035482  0.58402093  0.63046857  1
  Na  Na91  1  0.89078130  0.58437760  0.87979295  1
  Na  Na92  1  0.88934823  0.91668132  0.13218292  1
  Na  Na93  1  0.89044733  0.91746273  0.38320502  1
  Na  Na94  1  0.88995879  0.91622541  0.63145216  1
  Na  Na95  1  0.88977775  0.91724352  0.88300101  1
  Mn  Mn96  1  0.49965892  0.00037076  0.50060486  1
  Mn  Mn97  1  0.24995927  0.33291659  0.12453712  1
  Mn  Mn98  1  0.50025094  0.49970227  0.25023499  1
  Mn  Mn99  1  0.75082526  0.49913656  0.87383346  1
  Mn  Mn100  1  -0.00006934  0.66621658  -0.00051273  1
  Mn  Mn101  1  0.49968281  0.50122362  0.49922607  1
  Mn  Mn102  1  0.25023745  0.50048209  0.37516312  1
  Mn  Mn103  1  -0.00044062  0.16702167  0.74986198  1
  Mn  Mn104  1  0.24962327  0.16621312  0.87469759  1
  Mn  Mn105  1  0.24888206  0.66572562  0.87518815  1
  Mn  Mn106  1  0.00066808  0.83289303  0.74983558  1
  Mn  Mn107  1  0.24895318  0.83357276  0.87531655  1
  Mn  Mn108  1  0.75053762  0.50076349  0.37553388  1
  Mn  Mn109  1  0.49975849  -0.00033969  0.74965376  1
  Mn  Mn110  1  0.50114406  0.33324887  -0.00038408  1
  Mn  Mn111  1  0.00005078  0.33326305  -0.00001720  1
  Mn  Mn112  1  0.49908072  0.83291148  0.00011943  1
  Mn  Mn113  1  0.00048498  0.33463084  0.75044590  1
  Mn  Mn114  1  -0.00036453  0.83455462  0.24995533  1
  Mn  Mn115  1  0.50072174  0.16571217  -0.00003405  1
  Mn  Mn116  1  -0.00015266  0.16647951  0.25083127  1
  Mn  Mn117  1  0.24857693  0.00017963  0.62447944  1
  Mn  Mn118  1  -0.00049246  0.00003996  0.75028016  1
  Mn  Mn119  1  0.50009936  0.33356230  0.50029140  1
  Mn  Mn120  1  0.24907258  0.16811828  0.62593490  1
  Mn  Mn121  1  0.25002788  0.49978610  0.62482922  1
  Mn  Mn122  1  0.75075333  0.16538409  0.12536466  1
  Mn  Mn123  1  0.00029757  0.49894023  0.25107597  1
  Mn  Mn124  1  -0.00008495  0.66696116  0.25017504  1
  Mn  Mn125  1  0.74978480  0.50001709  0.62427092  1
  Mn  Mn126  1  0.50063063  0.83189129  0.25042750  1
  Mn  Mn127  1  0.50095567  0.49999285  0.74963176  1
  Mn  Mn128  1  0.75032433  0.50035536  0.12544239  1
  Mn  Mn129  1  0.50056735  0.83275019  0.49981264  1
  Mn  Mn130  1  0.75076611  0.33265347  0.12579099  1
  Mn  Mn131  1  0.50015864  0.16715761  0.49991249  1
  Mn  Mn132  1  0.49952600  0.16718014  0.24913141  1
  Mn  Mn133  1  0.75059843  0.16583097  0.87502593  1
  Mn  Mn134  1  0.25033041  0.00070250  0.37397889  1
  Mn  Mn135  1  0.24967876  0.83319015  0.37414240  1
  Mn  Mn136  1  0.75056192  0.16633710  0.62565877  1
  Mn  Mn137  1  0.49944858  0.66534333  -0.00075034  1
  Mn  Mn138  1  0.50085897  0.66753598  0.75087101  1
  Mn  Mn139  1  0.75096310  0.66857574  0.12430742  1
  Mn  Mn140  1  0.24926260  0.33288731  0.37426907  1
  Mn  Mn141  1  0.75054650  0.66780685  0.87464212  1
  Mn  Mn142  1  0.49997749  -0.00030554  0.25007087  1
  Mn  Mn143  1  0.24973715  0.66710444  0.37406252  1
  Fe  Fe144  1  -0.00004405  0.49991514  -0.00038409  1
  Fe  Fe145  1  0.00018437  0.66719954  0.50038444  1
  Fe  Fe146  1  0.75030713  0.33272354  0.87497618  1
  Fe  Fe147  1  0.75072948  0.66815194  0.37469751  1
  Fe  Fe148  1  -0.00098421  0.83334304  -0.00010112  1
  Fe  Fe149  1  -0.00044344  -0.00020982  0.00034041  1
  Fe  Fe150  1  0.24965105  0.33359531  0.62487458  1
  Fe  Fe151  1  0.24977628  0.16599265  0.12392600  1
  Fe  Fe152  1  0.00001235  0.50075910  0.50004166  1
  Fe  Fe153  1  -0.00038530  0.33327333  0.25075303  1
  Fe  Fe154  1  0.00031044  0.83403276  0.49986316  1
  Fe  Fe155  1  0.75026592  -0.00097101  0.87588151  1
  Fe  Fe156  1  0.25012466  0.49942356  0.87448785  1
  Fe  Fe157  1  0.75033148  -0.00019065  0.37617032  1
  Fe  Fe158  1  0.49975617  -0.00092963  -0.00071034  1
  Fe  Fe159  1  0.50022258  0.33334039  0.24956752  1
  Fe  Fe160  1  0.74995974  0.33325622  0.37556742  1
  Fe  Fe161  1  0.50026450  0.66582520  0.24943378  1
  Fe  Fe162  1  0.74958776  -0.00049517  0.12654344  1
  Fe  Fe163  1  0.50001855  0.66710715  0.50028402  1
  Fe  Fe164  1  0.75049618  0.83394984  0.37599453  1
  Fe  Fe165  1  0.00017222  0.00050531  0.50005206  1
  Fe  Fe166  1  0.49994922  0.33336979  0.75004089  1
  Fe  Fe167  1  -0.00000120  0.00014940  0.25020339  1
  Fe  Fe168  1  0.74955221  0.83448623  0.12601265  1
  Fe  Fe169  1  0.75008244  0.66763588  0.62441053  1
  Fe  Fe170  1  0.25009794  0.33316001  0.87535638  1
  Fe  Fe171  1  0.49966845  0.83337476  0.74990179  1
  Fe  Fe172  1  -0.00004069  0.16749238  0.49968212  1
  Fe  Fe173  1  -0.00030232  0.50109108  0.74893847  1
  Fe  Fe174  1  0.49965515  0.16629186  0.75027957  1
  Fe  Fe175  1  0.24931508  0.49944068  0.12427970  1
  Fe  Fe176  1  0.74985591  0.83395621  0.87493953  1
  Fe  Fe177  1  0.24957316  -0.00049605  0.87525676  1
  Fe  Fe178  1  0.75028620  0.16642189  0.37619621  1
  Fe  Fe179  1  0.24961986  -0.00028664  0.12477549  1
  Fe  Fe180  1  -0.00024608  0.33440513  0.50059065  1
  Fe  Fe181  1  0.25003670  0.66650820  0.62524240  1
  Fe  Fe182  1  -0.00005786  0.66673277  0.74928680  1
  Fe  Fe183  1  0.75015764  -0.00028645  0.62541167  1
  Fe  Fe184  1  0.75048492  0.83380186  0.62532077  1
  Fe  Fe185  1  -0.00025791  0.16616078  0.00105483  1
  Fe  Fe186  1  0.24947651  0.83297575  0.12421555  1
  Fe  Fe187  1  0.75007907  0.33300909  0.62468228  1
  Fe  Fe188  1  0.24963085  0.66574960  0.12436988  1
  Fe  Fe189  1  0.50046898  0.49919008  0.00018500  1
  Fe  Fe190  1  0.24986181  0.16664122  0.37422577  1
  Fe  Fe191  1  0.25001337  0.83359661  0.62492171  1
  P  P192  1  0.04223181  0.24840903  0.10297804  1
  P  P193  1  0.04175687  0.25168222  0.35347493  1
  P  P194  1  0.04098748  0.25065481  0.60149571  1
  P  P195  1  0.04239458  0.24990527  0.85375898  1
  P  P196  1  0.04218230  0.58162875  0.10213256  1
  P  P197  1  0.04260106  0.58379286  0.35409779  1
  P  P198  1  0.04123060  0.58357934  0.60207129  1
  P  P199  1  0.04162315  0.58355962  0.85103512  1
  P  P200  1  0.04055531  0.91647415  0.10175547  1
  P  P201  1  0.04223136  0.91881429  0.35313451  1
  P  P202  1  0.04131836  0.91691352  0.60146263  1
  P  P203  1  0.04207904  0.91667200  0.85413056  1
  P  P204  1  0.54350149  0.24991767  0.10316541  1
  P  P205  1  0.54236182  0.25144746  0.35209286  1
  P  P206  1  0.54278990  0.24991841  0.60436517  1
  P  P207  1  0.54171869  0.24943879  0.85132280  1
  P  P208  1  0.54259895  0.58165904  0.10264579  1
  P  P209  1  0.54265156  0.58498226  0.35264379  1
  P  P210  1  0.54295193  0.58500360  0.60228364  1
  P  P211  1  0.54355452  0.58267583  0.85351918  1
  P  P212  1  0.54209827  0.91714741  0.10234753  1
  P  P213  1  0.54312010  0.91619821  0.35343826  1
  P  P214  1  0.54280978  0.91650276  0.60368374  1
  P  P215  1  0.54194997  0.91530028  0.85259862  1
  P  P216  1  0.45731354  0.08255251  0.14586683  1
  P  P217  1  0.45696969  0.08360331  0.39669241  1
  P  P218  1  0.45709583  0.08471922  0.64779374  1
  P  P219  1  0.45782531  0.08194981  0.89693615  1
  P  P220  1  0.45789146  0.41545491  0.14703022  1
  P  P221  1  0.45708316  0.41667441  0.39626926  1
  P  P222  1  0.45773126  0.41592410  0.64762863  1
  P  P223  1  0.45819241  0.41736258  0.89705398  1
  P  P224  1  0.45771679  0.74792100  0.14733253  1
  P  P225  1  0.45773023  0.74802157  0.39708880  1
  P  P226  1  0.45806431  0.75101966  0.64738179  1
  P  P227  1  0.45633555  0.74994462  0.89651709  1
  P  P228  1  0.95764818  0.08181477  0.14777456  1
  P  P229  1  0.95886680  0.08354753  0.39857717  1
  P  P230  1  0.95719165  0.08340659  0.64603289  1
  P  P231  1  0.95814585  0.08359911  0.89915762  1
  P  P232  1  0.95760998  0.41493648  0.14786708  1
  P  P233  1  0.95842023  0.41711943  0.39883085  1
  P  P234  1  0.95809705  0.41852139  0.64666700  1
  P  P235  1  0.95814496  0.41861993  0.89690604  1
  P  P236  1  0.95721287  0.75033006  0.14657634  1
  P  P237  1  0.95886564  0.75072189  0.39885916  1
  P  P238  1  0.95850104  0.74875900  0.64644650  1
  P  P239  1  0.95763150  0.75082996  0.89706721  1
  P  P240  1  0.20810339  0.08367092  0.22613729  1
  P  P241  1  0.20740810  0.08497711  0.47687300  1
  P  P242  1  0.20615579  0.08339365  0.72844639  1
  P  P243  1  0.20801771  0.08154321  0.97812251  1
  P  P244  1  0.20723222  0.41747590  0.22685857  1
  P  P245  1  0.20718122  0.41675490  0.47829800  1
  P  P246  1  0.20772119  0.41533717  0.72797977  1
  P  P247  1  0.20849697  0.41659392  0.97665019  1
  P  P248  1  0.20799084  0.74975521  0.22548268  1
  P  P249  1  0.20762858  0.75014181  0.47878847  1
  P  P250  1  0.20800720  0.75020500  0.72632034  1
  P  P251  1  0.20683763  0.74948023  0.97892690  1
  P  P252  1  0.70826980  0.08203467  0.22920985  1
  P  P253  1  0.70891322  0.08303009  0.47772073  1
  P  P254  1  0.70848932  0.08136121  0.72828488  1
  P  P255  1  0.70805561  0.08122954  0.97803041  1
  P  P256  1  0.70805846  0.41651431  0.22924075  1
  P  P257  1  0.70806431  0.41550473  0.47782424  1
  P  P258  1  0.70825485  0.41489313  0.72732288  1
  P  P259  1  0.70816857  0.41520848  0.97725649  1
  P  P260  1  0.70832476  0.75204011  0.22840681  1
  P  P261  1  0.70946011  0.75066672  0.47749708  1
  P  P262  1  0.70901425  0.75071417  0.72669110  1
  P  P263  1  0.70783818  0.75238443  0.97766863  1
  P  P264  1  0.29217535  0.24864721  0.02171998  1
  P  P265  1  0.29178868  0.24811786  0.27135058  1
  P  P266  1  0.29188960  0.25128300  0.52225700  1
  P  P267  1  0.29194987  0.25162579  0.77257295  1
  P  P268  1  0.29112058  0.58205008  0.02260033  1
  P  P269  1  0.29220752  0.58312554  0.27026448  1
  P  P270  1  0.29245308  0.58462583  0.52274775  1
  P  P271  1  0.29171308  0.58240618  0.77212599  1
  P  P272  1  0.29079565  0.91667326  0.02295471  1
  P  P273  1  0.29223497  0.91649912  0.27016523  1
  P  P274  1  0.29212773  0.91594028  0.52229686  1
  P  P275  1  0.29146013  0.91752914  0.77223032  1
  P  P276  1  0.79330956  0.24936069  0.02190333  1
  P  P277  1  0.79219429  0.24926673  0.27456617  1
  P  P278  1  0.79189090  0.25075484  0.52207417  1
  P  P279  1  0.79255709  0.25105324  0.77226694  1
  P  P280  1  0.79313664  0.58373260  0.02156151  1
  P  P281  1  0.79300190  0.58540236  0.27295229  1
  P  P282  1  0.79196598  0.58554847  0.52196235  1
  P  P283  1  0.79261216  0.58415252  0.77066668  1
  P  P284  1  0.79109555  0.91698717  0.02375854  1
  P  P285  1  0.79168490  0.91682392  0.27421126  1
  P  P286  1  0.79153507  0.91699879  0.52338940  1
  P  P287  1  0.79197966  0.91661258  0.77318831  1
  O  O288  1  0.03695134  0.24890893  0.18288073  1
  O  O289  1  0.03652030  0.25151582  0.43335450  1
  O  O290  1  0.03640824  0.25070015  0.68150027  1
  O  O291  1  0.03697082  0.24920329  0.93367190  1
  O  O292  1  0.03718606  0.58175646  0.18205400  1
  O  O293  1  0.03707730  0.58408082  0.43398860  1
  O  O294  1  0.03588285  0.58372537  0.68196245  1
  O  O295  1  0.03649447  0.58311545  0.93099130  1
  O  O296  1  0.03614917  0.91722759  0.18177436  1
  O  O297  1  0.03715105  0.91869668  0.43304602  1
  O  O298  1  0.03669544  0.91646855  0.68147106  1
  O  O299  1  0.03649976  0.91632274  0.93401205  1
  O  O300  1  0.53819010  0.25049149  0.18308187  1
  O  O301  1  0.53731603  0.25115741  0.43208457  1
  O  O302  1  0.53728836  0.24977236  0.68427913  1
  O  O303  1  0.53718861  0.24940120  0.93136227  1
  O  O304  1  0.53725869  0.58249238  0.18261397  1
  O  O305  1  0.53732934  0.58538067  0.43259754  1
  O  O306  1  0.53822120  0.58466283  0.68228553  1
  O  O307  1  0.53828763  0.58181789  0.93345469  1
  O  O308  1  0.53718405  0.91665433  0.18232421  1
  O  O309  1  0.53796694  0.91624299  0.43339744  1
  O  O310  1  0.53755260  0.91591429  0.68363276  1
  O  O311  1  0.53644264  0.91592181  0.93251242  1
  O  O312  1  0.46275262  0.08187014  0.06592818  1
  O  O313  1  0.46198518  0.08358863  0.31669891  1
  O  O314  1  0.46204680  0.08453157  0.56780239  1
  O  O315  1  0.46316433  0.08282110  0.81697246  1
  O  O316  1  0.46342028  0.41630037  0.06711458  1
  O  O317  1  0.46242260  0.41607568  0.31632089  1
  O  O318  1  0.46247029  0.41638084  0.56762870  1
  O  O319  1  0.46352977  0.41672884  0.81710973  1
  O  O320  1  0.46247345  0.74829730  0.06735249  1
  O  O321  1  0.46296997  0.74771068  0.31712023  1
  O  O322  1  0.46342545  0.75011644  0.56743190  1
  O  O323  1  0.46151693  0.75074780  0.81656087  1
  O  O324  1  0.96273678  0.08221739  0.06788823  1
  O  O325  1  0.96353467  0.08351918  0.31861830  1
  O  O326  1  0.96274433  0.08332471  0.56617324  1
  O  O327  1  0.96272396  0.08334029  0.81913931  1
  O  O328  1  0.96268126  0.41537460  0.06794527  1
  O  O329  1  0.96322641  0.41605037  0.31886456  1
  O  O330  1  0.96346827  0.41832228  0.56679176  1
  O  O331  1  0.96349742  0.41888576  0.81696488  1
  O  O332  1  0.96230382  0.75064984  0.06661362  1
  O  O333  1  0.96338748  0.75118433  0.31883952  1
  O  O334  1  0.96387933  0.74903990  0.56656889  1
  O  O335  1  0.96319192  0.75030287  0.81715580  1
  O  O336  1  0.21364086  0.08185835  0.05797964  1
  O  O337  1  0.21335155  0.08407849  0.30612641  1
  O  O338  1  0.21201793  0.08475118  0.55686611  1
  O  O339  1  0.21145358  0.08274720  0.80837376  1
  O  O340  1  0.21352022  0.41712028  0.05663756  1
  O  O341  1  0.21231616  0.41716269  0.30680739  1
  O  O342  1  0.21232227  0.41636235  0.55824334  1
  O  O343  1  0.21331973  0.41558867  0.80786886  1
  O  O344  1  0.21240592  0.74925476  0.05876567  1
  O  O345  1  0.21284434  0.75008948  0.30553358  1
  O  O346  1  0.21300434  0.75018999  0.55868840  1
  O  O347  1  0.21257611  0.75016528  0.80637475  1
  O  O348  1  0.71314175  0.08126717  0.05801746  1
  O  O349  1  0.71350646  0.08288435  0.30907959  1
  O  O350  1  0.71409688  0.08250856  0.55766130  1
  O  O351  1  0.71390790  0.08138125  0.80819732  1
  O  O352  1  0.71344377  0.41579088  0.05723580  1
  O  O353  1  0.71334607  0.41637302  0.30919165  1
  O  O354  1  0.71330963  0.41536780  0.55778213  1
  O  O355  1  0.71376006  0.41486689  0.80725285  1
  O  O356  1  0.71310873  0.75263858  0.05760309  1
  O  O357  1  0.71390579  0.75156398  0.30825748  1
  O  O358  1  0.71449021  0.74994800  0.55738439  1
  O  O359  1  0.71364402  0.75140541  0.80665389  1
  O  O360  1  0.28654067  0.24801150  0.19141264  1
  O  O361  1  0.28683282  0.25042270  0.44229602  1
  O  O362  1  0.28660115  0.25196894  0.69265897  1
  O  O363  1  0.28676452  0.24958913  0.94181628  1
  O  O364  1  0.28661965  0.58272767  0.19036431  1
  O  O365  1  0.28769856  0.58456871  0.44274572  1
  O  O366  1  0.28667096  0.58317288  0.69217732  1
  O  O367  1  0.28591386  0.58160764  0.94259971  1
  O  O368  1  0.28667625  0.91635416  0.19027137  1
  O  O369  1  0.28736253  0.91624901  0.44225302  1
  O  O370  1  0.28610373  0.91686194  0.69230342  1
  O  O371  1  0.28595226  0.91692530  0.94296351  1
  O  O372  1  0.78719770  0.24891901  0.19453683  1
  O  O373  1  0.78629817  0.25040256  0.44222399  1
  O  O374  1  0.78703041  0.25112411  0.69232689  1
  O  O375  1  0.78819656  0.24963994  0.94194159  1
  O  O376  1  0.78806398  0.58508249  0.19294392  1
  O  O377  1  0.78684160  0.58585601  0.44200934  1
  O  O378  1  0.78684784  0.58452360  0.69076713  1
  O  O379  1  0.78797655  0.58349615  0.94158017  1
  O  O380  1  0.78644970  0.91716387  0.19436478  1
  O  O381  1  0.78666387  0.91649826  0.44355115  1
  O  O382  1  0.78685833  0.91688758  0.69332871  1
  O  O383  1  0.78602324  0.91708428  0.94387275  1
  O  O384  1  0.22797239  0.24843641  0.05764468  1
  O  O385  1  0.22754391  0.24811683  0.30726952  1
  O  O386  1  0.22748047  0.25215772  0.55787367  1
  O  O387  1  0.22773546  0.25143608  0.80841501  1
  O  O388  1  0.22696363  0.58249032  0.05869117  1
  O  O389  1  0.22801870  0.58328483  0.30617317  1
  O  O390  1  0.22802908  0.58446608  0.55797660  1
  O  O391  1  0.22739553  0.58152166  0.80772675  1
  O  O392  1  0.22664570  0.91700021  0.05890332  1
  O  O393  1  0.22806089  0.91699971  0.30605106  1
  O  O394  1  0.22764757  0.91524395  0.55749047  1
  O  O395  1  0.22720314  0.91816395  0.80810134  1
  O  O396  1  0.72897347  0.24912527  0.05724457  1
  O  O397  1  0.72793218  0.24889735  0.31035708  1
  O  O398  1  0.72789435  0.25070645  0.55853953  1
  O  O399  1  0.72838741  0.25080662  0.80836484  1
  O  O400  1  0.72880824  0.58419851  0.05691695  1
  O  O401  1  0.72862691  0.58520391  0.30824911  1
  O  O402  1  0.72778577  0.58526116  0.55784629  1
  O  O403  1  0.72854356  0.58386891  0.80664897  1
  O  O404  1  0.72706040  0.91689675  0.06037771  1
  O  O405  1  0.72766941  0.91590662  0.31061014  1
  O  O406  1  0.72751159  0.91738554  0.55975123  1
  O  O407  1  0.72782778  0.91650670  0.80953471  1
  O  O408  1  0.27220296  0.08318425  0.18992780  1
  O  O409  1  0.27183729  0.08521147  0.44153997  1
  O  O410  1  0.27050115  0.08355768  0.69313239  1
  O  O411  1  0.27199916  0.08139825  0.94154880  1
  O  O412  1  0.27158434  0.41764418  0.19138408  1
  O  O413  1  0.27148507  0.41638517  0.44287419  1
  O  O414  1  0.27184521  0.41500107  0.69165771  1
  O  O415  1  0.27264877  0.41654014  0.94055257  1
  O  O416  1  0.27217640  0.74924739  0.18973150  1
  O  O417  1  0.27181923  0.75013664  0.44290486  1
  O  O418  1  0.27232318  0.75057603  0.69080832  1
  O  O419  1  0.27091217  0.74943540  0.94286247  1
  O  O420  1  0.77242816  0.08123118  0.19304958  1
  O  O421  1  0.77301351  0.08398182  0.44158284  1
  O  O422  1  0.77262807  0.08129318  0.69223486  1
  O  O423  1  0.77236801  0.08129604  0.94236821  1
  O  O424  1  0.77238653  0.41670445  0.19381817  1
  O  O425  1  0.77232332  0.41554061  0.44209634  1
  O  O426  1  0.77236301  0.41538716  0.69119887  1
  O  O427  1  0.77248361  0.41461506  0.94153853  1
  O  O428  1  0.77244342  0.75288952  0.19213032  1
  O  O429  1  0.77351460  0.75148758  0.44111434  1
  O  O430  1  0.77319467  0.75019497  0.69085778  1
  O  O431  1  0.77209654  0.75255471  0.94180263  1
  O  O432  1  0.02192838  0.08179873  0.18357705  1
  O  O433  1  0.02304601  0.08315615  0.43433354  1
  O  O434  1  0.02140853  0.08341020  0.68183337  1
  O  O435  1  0.02236674  0.08390351  0.93479672  1
  O  O436  1  0.02198327  0.41450927  0.18344400  1
  O  O437  1  0.02258938  0.41802509  0.43460882  1
  O  O438  1  0.02220194  0.41887764  0.68284081  1
  O  O439  1  0.02232583  0.41817640  0.93289878  1
  O  O440  1  0.02158259  0.75051969  0.18185723  1
  O  O441  1  0.02312525  0.75021140  0.43424961  1
  O  O442  1  0.02260133  0.74825792  0.68266262  1
  O  O443  1  0.02172765  0.75122518  0.93315545  1
  O  O444  1  0.52157594  0.08313975  0.18136453  1
  O  O445  1  0.52150353  0.08339674  0.43154627  1
  O  O446  1  0.52152264  0.08468328  0.68297992  1
  O  O447  1  0.52208237  0.08090861  0.93272430  1
  O  O448  1  0.52208829  0.41495944  0.18300499  1
  O  O449  1  0.52141250  0.41724409  0.43164560  1
  O  O450  1  0.52220995  0.41526619  0.68267973  1
  O  O451  1  0.52251430  0.41813065  0.93275266  1
  O  O452  1  0.52215073  0.74758352  0.18260077  1
  O  O453  1  0.52211959  0.74796875  0.43264454  1
  O  O454  1  0.52235318  0.75190247  0.68313338  1
  O  O455  1  0.52078282  0.74960808  0.93147467  1
  O  O456  1  0.47917360  0.24975660  0.06787054  1
  O  O457  1  0.47799459  0.25187288  0.31662856  1
  O  O458  1  0.47849151  0.25000427  0.56877974  1
  O  O459  1  0.47739917  0.24956768  0.81587750  1
  O  O460  1  0.47829208  0.58082917  0.06681847  1
  O  O461  1  0.47839484  0.58475633  0.31688278  1
  O  O462  1  0.47841047  0.58537898  0.56723340  1
  O  O463  1  0.47917924  0.58319186  0.81835705  1
  O  O464  1  0.47766876  0.91779549  0.06700322  1
  O  O465  1  0.47872036  0.91578007  0.31837039  1
  O  O466  1  0.47844402  0.91632333  0.56844998  1
  O  O467  1  0.47771996  0.91496191  0.81672554  1
  O  O468  1  0.97798765  0.24842781  0.06718806  1
  O  O469  1  0.97756110  0.25164107  0.31747472  1
  O  O470  1  0.97681534  0.25029242  0.56590219  1
  O  O471  1  0.97815120  0.25070859  0.81819789  1
  O  O472  1  0.97785775  0.58171858  0.06660158  1
  O  O473  1  0.97838073  0.58341872  0.31832290  1
  O  O474  1  0.97731053  0.58335337  0.56542456  1
  O  O475  1  0.97748210  0.58404058  0.81486838  1
  O  O476  1  0.97632460  0.91600786  0.06616013  1
  O  O477  1  0.97785806  0.91889144  0.31750458  1
  O  O478  1  0.97707386  0.91779067  0.56594123  1
  O  O479  1  0.97794322  0.91619469  0.81819934  1
  O  O480  1  0.07364942  0.31167146  0.07476065  1
  O  O481  1  0.07254397  0.31507958  0.32458195  1
  O  O482  1  0.07135646  0.31466158  0.57347383  1
  O  O483  1  0.07368770  0.31347866  0.82606210  1
  O  O484  1  0.07324122  0.64521238  0.07430468  1
  O  O485  1  0.07358448  0.64720235  0.32541522  1
  O  O486  1  0.07196198  0.64728566  0.57365985  1
  O  O487  1  0.07245867  0.64740677  0.82319631  1
  O  O488  1  0.07098237  0.98019170  0.07287633  1
  O  O489  1  0.07296382  0.98210550  0.32390898  1
  O  O490  1  0.07287137  0.98016708  0.57363376  1
  O  O491  1  0.07282575  0.98037637  0.82591466  1
  O  O492  1  0.57483651  0.31300087  0.07449969  1
  O  O493  1  0.57322334  0.31492018  0.32383876  1
  O  O494  1  0.57398503  0.31321442  0.57583611  1
  O  O495  1  0.57225875  0.31330030  0.82324325  1
  O  O496  1  0.57343805  0.64523377  0.07436605  1
  O  O497  1  0.57357479  0.64808465  0.32348577  1
  O  O498  1  0.57368520  0.64850804  0.57387684  1
  O  O499  1  0.57458743  0.64649231  0.82598540  1
  O  O500  1  0.57298543  0.98053946  0.07388716  1
  O  O501  1  0.57393957  0.97977593  0.32545372  1
  O  O502  1  0.57338250  0.98052090  0.57604225  1
  O  O503  1  0.57320911  0.97867891  0.82451767  1
  O  O504  1  0.42617621  0.01940925  0.17453520  1
  O  O505  1  0.42592892  0.02014037  0.42486960  1
  O  O506  1  0.42599080  0.02104176  0.67540520  1
  O  O507  1  0.42676956  0.01839971  0.92496742  1
  O  O508  1  0.42706315  0.35172396  0.17495021  1
  O  O509  1  0.42589967  0.35356006  0.42494414  1
  O  O510  1  0.42689952  0.35255051  0.67626093  1
  O  O511  1  0.42740944  0.35366579  0.92513837  1
  O  O512  1  0.42697783  0.68435176  0.17548394  1
  O  O513  1  0.42670478  0.68499464  0.42631132  1
  O  O514  1  0.42723099  0.68750198  0.67579183  1
  O  O515  1  0.42542802  0.68615233  0.92422934  1
  O  O516  1  0.92697136  0.01833916  0.17668422  1
  O  O517  1  0.92737334  0.02042767  0.42693499  1
  O  O518  1  0.92607169  0.02008663  0.67475369  1
  O  O519  1  0.92788458  0.01960289  0.92753695  1
  O  O520  1  0.92695749  0.35136247  0.17655794  1
  O  O521  1  0.92813170  0.35346826  0.42801207  1
  O  O522  1  0.92717561  0.35487550  0.67488880  1
  O  O523  1  0.92687087  0.35502776  0.92453261  1
  O  O524  1  0.92654168  0.68653706  0.17462296  1
  O  O525  1  0.92756389  0.68734802  0.42672537  1
  O  O526  1  0.92730233  0.68558098  0.67519668  1
  O  O527  1  0.92644768  0.68730313  0.92488661  1
  O  O528  1  0.17709697  0.01986329  0.19843906  1
  O  O529  1  0.17675403  0.02118528  0.44886895  1
  O  O530  1  0.17476314  0.02044658  0.69953883  1
  O  O531  1  0.17708367  0.01809525  0.94963205  1
  O  O532  1  0.17647833  0.35365508  0.19901572  1
  O  O533  1  0.17562387  0.35381062  0.44967517  1
  O  O534  1  0.17658554  0.35208098  0.69927115  1
  O  O535  1  0.17789044  0.35247837  0.94921526  1
  O  O536  1  0.17681205  0.68620787  0.19772881  1
  O  O537  1  0.17645792  0.68679318  0.45026465  1
  O  O538  1  0.17785522  0.68608586  0.69821159  1
  O  O539  1  0.17549413  0.68621131  0.95040681  1
  O  O540  1  0.67700857  0.01863612  0.20096731  1
  O  O541  1  0.67871710  0.01913596  0.44905335  1
  O  O542  1  0.67732522  0.01820441  0.69966033  1
  O  O543  1  0.67713162  0.01798604  0.94924996  1
  O  O544  1  0.67698896  0.35313279  0.20093461  1
  O  O545  1  0.67703390  0.35228852  0.44907759  1
  O  O546  1  0.67754975  0.35143458  0.69876299  1
  O  O547  1  0.67726946  0.35159732  0.94919774  1
  O  O548  1  0.67761437  0.68837991  0.19989889  1
  O  O549  1  0.67916968  0.68699513  0.44820883  1
  O  O550  1  0.67790177  0.68708541  0.69881849  1
  O  O551  1  0.67715544  0.68837208  0.95008256  1
  O  O552  1  0.32345607  0.31199915  0.04998537  1
  O  O553  1  0.32261406  0.31203723  0.29893623  1
  O  O554  1  0.32282280  0.31482913  0.55044940  1
  O  O555  1  0.32292541  0.31473096  0.80161667  1
  O  O556  1  0.32198473  0.64590390  0.05032529  1
  O  O557  1  0.32332175  0.64663698  0.29845054  1
  O  O558  1  0.32288254  0.64811659  0.55173236  1
  O  O559  1  0.32243966  0.64603236  0.80048449  1
  O  O560  1  0.32230189  0.97971791  0.05138847  1
  O  O561  1  0.32374646  0.97971351  0.29852474  1
  O  O562  1  0.32254885  0.97993029  0.55017321  1
  O  O563  1  0.32233260  0.98110597  0.80048322  1
  O  O564  1  0.82449215  0.31258455  0.05048266  1
  O  O565  1  0.82239874  0.31344761  0.30235146  1
  O  O566  1  0.82276638  0.31432841  0.55042921  1
  O  O567  1  0.82344738  0.31439951  0.80085535  1
  O  O568  1  0.82435351  0.64727786  0.04923510  1
  O  O569  1  0.82339847  0.64922042  0.30128073  1
  O  O570  1  0.82287781  0.64878116  0.55078684  1
  O  O571  1  0.82390168  0.64738490  0.79899966  1
  O  O572  1  0.82183130  0.98053539  0.05255329  1
  O  O573  1  0.82176090  0.98078041  0.30323275  1
  O  O574  1  0.82275915  0.98042486  0.55157693  1
  O  O575  1  0.82289110  0.98003924  0.80206544  1
  O  O576  1  0.42610450  0.14628425  0.17344415  1
  O  O577  1  0.42615221  0.14724749  0.42481637  1
  O  O578  1  0.42639964  0.14819010  0.67651027  1
  O  O579  1  0.42703335  0.14565460  0.92508458  1
  O  O580  1  0.42666405  0.47881332  0.17537306  1
  O  O581  1  0.42601370  0.48047441  0.42400782  1
  O  O582  1  0.42708626  0.47985841  0.67546821  1
  O  O583  1  0.42715286  0.48078765  0.92550481  1
  O  O584  1  0.42702348  0.81176824  0.17525653  1
  O  O585  1  0.42690467  0.81204096  0.42463958  1
  O  O586  1  0.42695383  0.81463983  0.67524803  1
  O  O587  1  0.42497161  0.81295584  0.92547879  1
  O  O588  1  0.92643153  0.14523183  0.17631114  1
  O  O589  1  0.92873599  0.14777609  0.42682903  1
  O  O590  1  0.92601096  0.14688134  0.67440202  1
  O  O591  1  0.92708324  0.14715156  0.92718999  1
  O  O592  1  0.92657796  0.47847766  0.17617008  1
  O  O593  1  0.92709442  0.48079603  0.42632319  1
  O  O594  1  0.92690950  0.48189359  0.67519202  1
  O  O595  1  0.92747859  0.48218595  0.92557512  1
  O  O596  1  0.92585863  0.81344047  0.17532890  1
  O  O597  1  0.92874794  0.81480823  0.42747114  1
  O  O598  1  0.92758385  0.81255098  0.67446800  1
  O  O599  1  0.92667610  0.81439103  0.92540232  1
  O  O600  1  0.07276261  0.18461226  0.07461714  1
  O  O601  1  0.07294532  0.18812540  0.32524361  1
  O  O602  1  0.07211317  0.18714244  0.57323630  1
  O  O603  1  0.07335189  0.18657962  0.82498807  1
  O  O604  1  0.07266031  0.51796329  0.07343680  1
  O  O605  1  0.07399783  0.52040112  0.32593642  1
  O  O606  1  0.07255636  0.52010338  0.57391988  1
  O  O607  1  0.07241718  0.52003095  0.82243781  1
  O  O608  1  0.07159133  0.85279464  0.07385075  1
  O  O609  1  0.07329526  0.85516970  0.32484391  1
  O  O610  1  0.07126534  0.85273066  0.57296280  1
  O  O611  1  0.07389167  0.85367759  0.82547310  1
  O  O612  1  0.57450489  0.18621450  0.07515431  1
  O  O613  1  0.57315764  0.18757907  0.32435937  1
  O  O614  1  0.57400573  0.18653626  0.57571522  1
  O  O615  1  0.57244886  0.18555859  0.82341555  1
  O  O616  1  0.57358259  0.51798165  0.07470229  1
  O  O617  1  0.57372734  0.52105086  0.32532917  1
  O  O618  1  0.57357586  0.52115364  0.57422782  1
  O  O619  1  0.57487930  0.51971865  0.82444901  1
  O  O620  1  0.57273018  0.85320754  0.07454259  1
  O  O621  1  0.57427204  0.85270106  0.32538675  1
  O  O622  1  0.57446533  0.85361774  0.57495465  1
  O  O623  1  0.57270448  0.85161935  0.82431896  1
  O  O624  1  0.32285361  0.18482166  0.04959215  1
  O  O625  1  0.32270985  0.18484289  0.30019567  1
  O  O626  1  0.32265825  0.18774686  0.55095157  1
  O  O627  1  0.32297685  0.18766806  0.79986425  1
  O  O628  1  0.32201233  0.51851669  0.05100553  1
  O  O629  1  0.32351415  0.51991056  0.29901935  1
  O  O630  1  0.32368159  0.52098289  0.55034863  1
  O  O631  1  0.32283184  0.51889399  0.80032745  1
  O  O632  1  0.32095310  0.85236042  0.05096728  1
  O  O633  1  0.32328870  0.85298992  0.29855290  1
  O  O634  1  0.32319197  0.85265830  0.55090655  1
  O  O635  1  0.32243885  0.85397462  0.80050665  1
  O  O636  1  0.82427844  0.18575907  0.05014410  1
  O  O637  1  0.82342003  0.18587747  0.30275403  1
  O  O638  1  0.82331150  0.18732831  0.55018053  1
  O  O639  1  0.82374335  0.18720929  0.79964270  1
  O  O640  1  0.82393189  0.52016936  0.04992817  1
  O  O641  1  0.82433087  0.52197596  0.30095995  1
  O  O642  1  0.82298996  0.52158338  0.54922471  1
  O  O643  1  0.82387782  0.52048787  0.79824385  1
  O  O644  1  0.82215084  0.85342579  0.05204607  1
  O  O645  1  0.82357004  0.85377589  0.30249444  1
  O  O646  1  0.82205396  0.85325963  0.55234557  1
  O  O647  1  0.82282592  0.85292019  0.80156554  1
  O  O648  1  0.17723909  0.14720463  0.19765425  1
  O  O649  1  0.17674129  0.14854936  0.44842842  1
  O  O650  1  0.17526739  0.14727031  0.70075022  1
  O  O651  1  0.17671869  0.14510739  0.95021641  1
  O  O652  1  0.17625404  0.48084219  0.19840677  1
  O  O653  1  0.17657235  0.48070366  0.45051213  1
  O  O654  1  0.17665478  0.47899649  0.69991710  1
  O  O655  1  0.17743358  0.47990687  0.94788425  1
  O  O656  1  0.17751444  0.81376645  0.19744377  1
  O  O657  1  0.17635185  0.81346283  0.45015861  1
  O  O658  1  0.17696228  0.81372482  0.69809294  1
  O  O659  1  0.17559604  0.81292538  0.95074330  1
  O  O660  1  0.67743626  0.14553923  0.20035229  1
  O  O661  1  0.67731013  0.14642389  0.44997554  1
  O  O662  1  0.67759949  0.14526695  0.70063199  1
  O  O663  1  0.67704145  0.14496732  0.95009271  1
  O  O664  1  0.67702482  0.48016869  0.20119753  1
  O  O665  1  0.67712490  0.47949349  0.45046439  1
  O  O666  1  0.67681368  0.47858493  0.69988031  1
  O  O667  1  0.67736107  0.47890511  0.94918594  1
  O  O668  1  0.67688808  0.81527787  0.20001271  1
  O  O669  1  0.67789747  0.81414025  0.44980667  1
  O  O670  1  0.67858386  0.81439635  0.69769354  1
  O  O671  1  0.67665642  0.81548184  0.94878056  1
