# generated using pymatgen
data_Na2MnFe(PO4)2
_symmetry_space_group_name_H-M   'P 1'
_cell_length_a   22.34399631
_cell_length_b   20.09205148
_cell_length_c   19.44921670
_cell_angle_alpha   89.99021085
_cell_angle_beta   90.03219422
_cell_angle_gamma   89.98407768
_symmetry_Int_Tables_number   1
_chemical_formula_structural   Na2MnFe(PO4)2
_chemical_formula_sum   'Na96 Mn48 Fe48 P96 O384'
_cell_volume   8731.46579369
_cell_formula_units_Z   48
loop_
 _symmetry_equiv_pos_site_id
 _symmetry_equiv_pos_as_xyz
  1  'x, y, z'
loop_
 _atom_site_type_symbol
 _atom_site_label
 _atom_site_symmetry_multiplicity
 _atom_site_fract_x
 _atom_site_fract_y
 _atom_site_fract_z
 _atom_site_occupancy
  Na  Na0  1  0.14009500  0.25159483  0.24369858  1
  Na  Na1  1  0.13986292  0.25051266  0.49322694  1
  Na  Na2  1  0.13979064  0.25158053  0.74350348  1
  Na  Na3  1  0.14021838  0.24973096  0.99402989  1
  Na  Na4  1  0.14069299  0.58321311  0.24318298  1
  Na  Na5  1  0.14106868  0.58380390  0.49351575  1
  Na  Na6  1  0.14120192  0.58398958  0.74326932  1
  Na  Na7  1  0.14139936  0.58237552  0.99394267  1
  Na  Na8  1  0.14022106  0.91797320  0.24389605  1
  Na  Na9  1  0.14089761  0.91745796  0.49404458  1
  Na  Na10  1  0.14085357  0.91725688  0.74524709  1
  Na  Na11  1  0.14043006  0.91706051  0.99435779  1
  Na  Na12  1  0.63929492  0.24983058  0.24382476  1
  Na  Na13  1  0.63965958  0.24975768  0.49360753  1
  Na  Na14  1  0.63920373  0.24927984  0.74333552  1
  Na  Na15  1  0.63926649  0.25059289  0.99399843  1
  Na  Na16  1  0.64007994  0.58230073  0.24236537  1
  Na  Na17  1  0.64059687  0.58364239  0.49348437  1
  Na  Na18  1  0.64031008  0.58317655  0.74417005  1
  Na  Na19  1  0.64020342  0.58281828  0.99233399  1
  Na  Na20  1  0.63978913  0.91555145  0.24347462  1
  Na  Na21  1  0.64049597  0.91773109  0.49404620  1
  Na  Na22  1  0.64017753  0.91435648  0.74419200  1
  Na  Na23  1  0.63944526  0.91538977  0.99262703  1
  Na  Na24  1  0.35939466  0.08244002  0.00726170  1
  Na  Na25  1  0.35930165  0.08433514  0.25709327  1
  Na  Na26  1  0.35945524  0.08339359  0.50615936  1
  Na  Na27  1  0.35970918  0.08340102  0.75749622  1
  Na  Na28  1  0.36021577  0.41508124  0.00801470  1
  Na  Na29  1  0.36036558  0.41575834  0.25591094  1
  Na  Na30  1  0.35988357  0.41587758  0.50513097  1
  Na  Na31  1  0.36004563  0.41672494  0.75709001  1
  Na  Na32  1  0.36065330  0.74980878  0.00712897  1
  Na  Na33  1  0.36052306  0.75025607  0.25584573  1
  Na  Na34  1  0.35992810  0.74973168  0.50626535  1
  Na  Na35  1  0.36033284  0.75096865  0.75786018  1
  Na  Na36  1  0.85912456  0.08361433  0.00602314  1
  Na  Na37  1  0.85907085  0.08327225  0.25703802  1
  Na  Na38  1  0.85918994  0.08579431  0.50606326  1
  Na  Na39  1  0.85922747  0.08347181  0.75607445  1
  Na  Na40  1  0.86050909  0.41558030  0.00555062  1
  Na  Na41  1  0.85996924  0.41536245  0.25654881  1
  Na  Na42  1  0.85971995  0.41675707  0.50613767  1
  Na  Na43  1  0.86015091  0.41663259  0.75606819  1
  Na  Na44  1  0.85963428  0.74962654  0.00467092  1
  Na  Na45  1  0.85964840  0.74978064  0.25617387  1
  Na  Na46  1  0.85960782  0.75095744  0.50550723  1
  Na  Na47  1  0.85968915  0.74959045  0.75547678  1
  Na  Na48  1  0.10932054  0.08465376  0.11978545  1
  Na  Na49  1  0.10929539  0.08562944  0.36865781  1
  Na  Na50  1  0.10946156  0.08563399  0.61939874  1
  Na  Na51  1  0.10923197  0.08376463  0.86970028  1
  Na  Na52  1  0.11041962  0.41639250  0.11892753  1
  Na  Na53  1  0.10991927  0.41620163  0.36832987  1
  Na  Na54  1  0.10975476  0.41729453  0.61875038  1
  Na  Na55  1  0.11026653  0.41512830  0.86861537  1
  Na  Na56  1  0.10975922  0.75159423  0.11881938  1
  Na  Na57  1  0.10983362  0.75051299  0.36871981  1
  Na  Na58  1  0.11036669  0.75103689  0.61865349  1
  Na  Na59  1  0.11015693  0.75026115  0.86884949  1
  Na  Na60  1  0.60855964  0.08376519  0.11916814  1
  Na  Na61  1  0.60895115  0.08410857  0.36851950  1
  Na  Na62  1  0.60924131  0.08287114  0.61907147  1
  Na  Na63  1  0.60842622  0.08232728  0.86843024  1
  Na  Na64  1  0.60950641  0.41631321  0.11833344  1
  Na  Na65  1  0.60932608  0.41551260  0.36715070  1
  Na  Na66  1  0.60941110  0.41436401  0.61877642  1
  Na  Na67  1  0.60928944  0.41561546  0.86898601  1
  Na  Na68  1  0.60906591  0.74979976  0.11783082  1
  Na  Na69  1  0.60958560  0.74938043  0.36773462  1
  Na  Na70  1  0.61004090  0.74913019  0.61953215  1
  Na  Na71  1  0.61002219  0.74925946  0.86823780  1
  Na  Na72  1  0.38975648  0.25107046  0.13263173  1
  Na  Na73  1  0.38941867  0.25009293  0.38078546  1
  Na  Na74  1  0.39040871  0.24937365  0.63108856  1
  Na  Na75  1  0.39031448  0.25034487  0.88233195  1
  Na  Na76  1  0.39160013  0.58326149  0.13140055  1
  Na  Na77  1  0.39078613  0.58293459  0.37960642  1
  Na  Na78  1  0.39056242  0.58267299  0.63210129  1
  Na  Na79  1  0.39143579  0.58312080  0.88211977  1
  Na  Na80  1  0.39052492  0.91603008  0.13128245  1
  Na  Na81  1  0.39042806  0.91605570  0.38135591  1
  Na  Na82  1  0.39038999  0.91582956  0.63294424  1
  Na  Na83  1  0.39028903  0.91493322  0.88317986  1
  Na  Na84  1  0.89002367  0.25123808  0.13175866  1
  Na  Na85  1  0.88963877  0.25125041  0.38156420  1
  Na  Na86  1  0.89007441  0.25203626  0.63063658  1
  Na  Na87  1  0.89001268  0.24979759  0.88056524  1
  Na  Na88  1  0.89090315  0.58255298  0.13028149  1
  Na  Na89  1  0.89112852  0.58248399  0.38073172  1
  Na  Na90  1  0.89073372  0.58357784  0.63081964  1
  Na  Na91  1  0.89092558  0.58194110  0.87990953  1
  Na  Na92  1  0.89004665  0.91727050  0.13068634  1
  Na  Na93  1  0.89038861  0.91740823  0.38167783  1
  Na  Na94  1  0.89035009  0.91829783  0.63079040  1
  Na  Na95  1  0.89008000  0.91648764  0.88089059  1
  Mn  Mn96  1  0.74885953  0.16727364  0.87519359  1
  Mn  Mn97  1  0.75005201  0.49915793  0.87416930  1
  Mn  Mn98  1  0.00093992  0.49843669  0.00006399  1
  Mn  Mn99  1  -0.00057310  0.16695920  0.00043459  1
  Mn  Mn100  1  0.74938744  -0.00047048  0.12527622  1
  Mn  Mn101  1  0.24985561  -0.00026123  0.62581474  1
  Mn  Mn102  1  0.25003051  -0.00001417  0.12613266  1
  Mn  Mn103  1  0.00092440  0.66607558  -0.00040739  1
  Mn  Mn104  1  0.25070022  0.66747349  0.37442455  1
  Mn  Mn105  1  0.49982982  0.66593388  0.49992160  1
  Mn  Mn106  1  0.75014318  0.83338673  0.62465204  1
  Mn  Mn107  1  0.75080000  0.49824822  0.12379179  1
  Mn  Mn108  1  0.25053776  0.66733826  0.62489177  1
  Mn  Mn109  1  0.00013722  0.83390698  0.74956527  1
  Mn  Mn110  1  0.74977929  0.49991529  0.62485868  1
  Mn  Mn111  1  0.49950053  0.33167004  0.49904215  1
  Mn  Mn112  1  0.74983147  0.83253646  0.12411638  1
  Mn  Mn113  1  0.25107636  0.66749658  0.87488638  1
  Mn  Mn114  1  0.50039288  0.49914600  0.49977017  1
  Mn  Mn115  1  -0.00083300  0.16782588  0.24976864  1
  Mn  Mn116  1  0.00043091  0.49991275  0.50007081  1
  Mn  Mn117  1  0.25062238  0.33445019  0.62430232  1
  Mn  Mn118  1  0.49943504  -0.00020056  0.24982616  1
  Mn  Mn119  1  0.00035012  0.66619551  0.24943229  1
  Mn  Mn120  1  0.49913570  0.16676324  -0.00000558  1
  Mn  Mn121  1  0.24998846  0.16731210  0.62595797  1
  Mn  Mn122  1  0.00065964  0.83390056  0.49990344  1
  Mn  Mn123  1  -0.00052206  0.83471944  0.24956246  1
  Mn  Mn124  1  0.74899858  0.16742305  0.12547259  1
  Mn  Mn125  1  0.24995903  0.16704544  0.87596080  1
  Mn  Mn126  1  0.00027589  0.00241780  0.50066289  1
  Mn  Mn127  1  0.49985544  0.00031403  0.50071062  1
  Mn  Mn128  1  0.49996715  0.83245659  0.50056853  1
  Mn  Mn129  1  0.25092269  0.49947362  0.87502902  1
  Mn  Mn130  1  0.74969566  0.66609321  0.12409348  1
  Mn  Mn131  1  0.25063093  0.49944858  0.37404868  1
  Mn  Mn132  1  0.25020691  0.00005538  0.37544260  1
  Mn  Mn133  1  0.00014911  0.66608287  0.74952805  1
  Mn  Mn134  1  0.49971330  -0.00083236  0.75018194  1
  Mn  Mn135  1  0.24995877  0.66730142  0.12467117  1
  Mn  Mn136  1  0.74961283  0.16713693  0.62534875  1
  Mn  Mn137  1  0.00023229  0.00181531  0.75001020  1
  Mn  Mn138  1  -0.00041854  0.83439560  -0.00026349  1
  Mn  Mn139  1  0.75006646  0.49921557  0.37462113  1
  Mn  Mn140  1  0.74951063  0.00045271  0.37477679  1
  Mn  Mn141  1  0.50030467  0.49918891  0.75066347  1
  Mn  Mn142  1  0.74918121  -0.00080328  0.87523125  1
  Mn  Mn143  1  0.75025989  0.66709156  0.37421214  1
  Fe  Fe144  1  0.24996491  0.83383971  0.87579402  1
  Fe  Fe145  1  0.00006159  0.33322484  0.74979033  1
  Fe  Fe146  1  0.25049357  0.50016716  0.62467812  1
  Fe  Fe147  1  -0.00033416  0.00083678  -0.00008188  1
  Fe  Fe148  1  0.74958905  0.83390391  0.37533527  1
  Fe  Fe149  1  0.74984818  0.33308893  0.87478939  1
  Fe  Fe150  1  0.25016856  0.33318652  0.87586339  1
  Fe  Fe151  1  -0.00013146  0.33415998  0.50021667  1
  Fe  Fe152  1  0.50018563  0.49975360  0.00022537  1
  Fe  Fe153  1  0.00137613  0.49962118  0.74944398  1
  Fe  Fe154  1  0.49966552  0.33335144  0.24973606  1
  Fe  Fe155  1  0.24971887  0.16681287  0.12560539  1
  Fe  Fe156  1  -0.00044377  0.16866226  0.49960277  1
  Fe  Fe157  1  0.49945002  -0.00061105  -0.00005937  1
  Fe  Fe158  1  0.49956408  0.33249707  0.75013616  1
  Fe  Fe159  1  0.75049716  0.83253914  0.87349236  1
  Fe  Fe160  1  0.74987747  0.00007317  0.62492951  1
  Fe  Fe161  1  0.50044386  0.66626068  0.75153253  1
  Fe  Fe162  1  0.74985127  0.33258264  0.12543181  1
  Fe  Fe163  1  0.74940708  0.33350812  0.62464823  1
  Fe  Fe164  1  0.74905870  0.33309329  0.37520424  1
  Fe  Fe165  1  0.25069927  0.83388403  0.62582468  1
  Fe  Fe166  1  0.75083120  0.66600724  0.87401715  1
  Fe  Fe167  1  0.50036213  0.83236131  0.75162831  1
  Fe  Fe168  1  0.49998647  0.33319428  0.00048793  1
  Fe  Fe169  1  0.49884237  0.16668739  0.24943733  1
  Fe  Fe170  1  -0.00063751  0.00138336  0.25039694  1
  Fe  Fe171  1  0.25008547  0.83357250  0.12510019  1
  Fe  Fe172  1  0.50067850  0.66656165  0.00059470  1
  Fe  Fe173  1  0.00086659  0.49940432  0.25042615  1
  Fe  Fe174  1  0.25022178  0.33275603  0.12540921  1
  Fe  Fe175  1  0.50004857  0.83307480  0.24967486  1
  Fe  Fe176  1  0.24943686  0.16724950  0.37507585  1
  Fe  Fe177  1  0.25097397  0.49942777  0.12473276  1
  Fe  Fe178  1  0.49917755  0.16618367  0.75044311  1
  Fe  Fe179  1  0.24963455  0.33345022  0.37465944  1
  Fe  Fe180  1  0.50059507  0.66623062  0.24915834  1
  Fe  Fe181  1  0.75021772  0.66682085  0.62449247  1
  Fe  Fe182  1  0.74906608  0.16723346  0.37548427  1
  Fe  Fe183  1  -0.00004137  0.33300105  -0.00042520  1
  Fe  Fe184  1  0.25006916  -0.00004364  0.87628234  1
  Fe  Fe185  1  0.25014871  0.83370290  0.37534957  1
  Fe  Fe186  1  -0.00064238  0.16785661  0.74991847  1
  Fe  Fe187  1  0.50040096  0.83253696  0.00043051  1
  Fe  Fe188  1  0.50032308  0.50001169  0.24865601  1
  Fe  Fe189  1  0.49961784  0.16638870  0.49967785  1
  Fe  Fe190  1  0.00045308  0.66650923  0.49960795  1
  Fe  Fe191  1  0.00014733  0.33376665  0.25029592  1
  P  P192  1  0.04181612  0.25191940  0.10283188  1
  P  P193  1  0.04176743  0.25176839  0.35300685  1
  P  P194  1  0.04131789  0.25119897  0.60213132  1
  P  P195  1  0.04153088  0.25001641  0.85187074  1
  P  P196  1  0.04362584  0.58245171  0.10347129  1
  P  P197  1  0.04291041  0.58216405  0.35266262  1
  P  P198  1  0.04296538  0.58440593  0.60240015  1
  P  P199  1  0.04336226  0.58130620  0.85209650  1
  P  P200  1  0.04179107  0.91938241  0.10289857  1
  P  P201  1  0.04212646  0.91906305  0.35244549  1
  P  P202  1  0.04327188  0.91823096  0.60316568  1
  P  P203  1  0.04251195  0.91772616  0.85353010  1
  P  P204  1  0.54125225  0.25111392  0.10321386  1
  P  P205  1  0.54054208  0.24931736  0.35115871  1
  P  P206  1  0.54164905  0.24788802  0.60306642  1
  P  P207  1  0.54067959  0.24959136  0.85210987  1
  P  P208  1  0.54189722  0.58301456  0.10191377  1
  P  P209  1  0.54159895  0.58263049  0.35061651  1
  P  P210  1  0.54288660  0.58269518  0.60363973  1
  P  P211  1  0.54238371  0.58381330  0.85383179  1
  P  P212  1  0.54102974  0.91653436  0.10189286  1
  P  P213  1  0.54201920  0.91545495  0.35234243  1
  P  P214  1  0.54273894  0.91591752  0.60397245  1
  P  P215  1  0.54174915  0.91499874  0.85372832  1
  P  P216  1  0.45688792  0.08425662  0.14722630  1
  P  P217  1  0.45733422  0.08448109  0.39707262  1
  P  P218  1  0.45734926  0.08439640  0.64770564  1
  P  P219  1  0.45718325  0.08174401  0.89758790  1
  P  P220  1  0.45908655  0.41651424  0.14740507  1
  P  P221  1  0.45760791  0.41618144  0.39545877  1
  P  P222  1  0.45777473  0.41470460  0.64790755  1
  P  P223  1  0.45876240  0.41601462  0.89872525  1
  P  P224  1  0.45933437  0.74973337  0.14755005  1
  P  P225  1  0.45760335  0.74949136  0.39599017  1
  P  P226  1  0.45900044  0.74920440  0.64974636  1
  P  P227  1  0.45925521  0.74905441  0.89858474  1
  P  P228  1  0.95695682  0.08284161  0.14736892  1
  P  P229  1  0.95734177  0.08578836  0.39734865  1
  P  P230  1  0.95748018  0.08662489  0.64705219  1
  P  P231  1  0.95708078  0.08308599  0.89730036  1
  P  P232  1  0.95868298  0.41656330  0.14849287  1
  P  P233  1  0.95808229  0.41569309  0.39706355  1
  P  P234  1  0.95885893  0.41681463  0.64802378  1
  P  P235  1  0.95844479  0.41457729  0.89634727  1
  P  P236  1  0.95708051  0.75038393  0.14653093  1
  P  P237  1  0.95815914  0.74884150  0.39734154  1
  P  P238  1  0.95765277  0.74993396  0.64588939  1
  P  P239  1  0.95758395  0.74955012  0.89641936  1
  P  P240  1  0.20780114  0.08544633  0.22844482  1
  P  P241  1  0.20765862  0.08461704  0.47756248  1
  P  P242  1  0.20741686  0.08326271  0.72949081  1
  P  P243  1  0.20781903  0.08242914  0.97864510  1
  P  P244  1  0.20922936  0.41639987  0.22653146  1
  P  P245  1  0.20789637  0.41612774  0.47721821  1
  P  P246  1  0.20822558  0.41816344  0.72748633  1
  P  P247  1  0.20869589  0.41513806  0.97852321  1
  P  P248  1  0.20788273  0.75201371  0.22781191  1
  P  P249  1  0.20821897  0.75167286  0.47783877  1
  P  P250  1  0.20835607  0.75202811  0.72803896  1
  P  P251  1  0.20822703  0.75140409  0.97793165  1
  P  P252  1  0.70649535  0.08361245  0.22880106  1
  P  P253  1  0.70721657  0.08477689  0.47786396  1
  P  P254  1  0.70728054  0.08176045  0.72741088  1
  P  P255  1  0.70605696  0.08348931  0.97822191  1
  P  P256  1  0.70773175  0.41458573  0.22758675  1
  P  P257  1  0.70720592  0.41538009  0.47757295  1
  P  P258  1  0.70757202  0.41506051  0.72761625  1
  P  P259  1  0.70787752  0.41464606  0.97737578  1
  P  P260  1  0.70683594  0.74970888  0.22783918  1
  P  P261  1  0.70764728  0.75131482  0.47738958  1
  P  P262  1  0.70836927  0.74826431  0.72766535  1
  P  P263  1  0.70880983  0.74941901  0.97520392  1
  P  P264  1  0.29125781  0.24948718  0.02378296  1
  P  P265  1  0.29071287  0.25027765  0.27273846  1
  P  P266  1  0.29236116  0.24987023  0.52110838  1
  P  P267  1  0.29221910  0.25162344  0.77325994  1
  P  P268  1  0.29309858  0.58203829  0.02279483  1
  P  P269  1  0.29282806  0.58320867  0.27073235  1
  P  P270  1  0.29293716  0.58223706  0.52232597  1
  P  P271  1  0.29359697  0.58352132  0.77160409  1
  P  P272  1  0.29208950  0.91564777  0.02260506  1
  P  P273  1  0.29225473  0.91551233  0.27263834  1
  P  P274  1  0.29273649  0.91549652  0.52295247  1
  P  P275  1  0.29192101  0.91682979  0.77435611  1
  P  P276  1  0.79196087  0.25140401  0.02235472  1
  P  P277  1  0.79090028  0.25011763  0.27348074  1
  P  P278  1  0.79138302  0.25167080  0.52191193  1
  P  P279  1  0.79133994  0.25133191  0.77213330  1
  P  P280  1  0.79299025  0.58285850  0.02058067  1
  P  P281  1  0.79297650  0.58249901  0.27126905  1
  P  P282  1  0.79231594  0.58451936  0.52223326  1
  P  P283  1  0.79241996  0.58409875  0.77153479  1
  P  P284  1  0.79222137  0.91618208  0.02094539  1
  P  P285  1  0.79217212  0.91541698  0.27264040  1
  P  P286  1  0.79226907  0.91843180  0.52211892  1
  P  P287  1  0.79223943  0.91575727  0.77170667  1
  O  O288  1  0.03665361  0.25211219  0.18274575  1
  O  O289  1  0.03664670  0.25154608  0.43287303  1
  O  O290  1  0.03606700  0.25106332  0.68203517  1
  O  O291  1  0.03651733  0.24997688  0.93184581  1
  O  O292  1  0.03842320  0.58200070  0.18341799  1
  O  O293  1  0.03740580  0.58293645  0.43260397  1
  O  O294  1  0.03783824  0.58352744  0.68233534  1
  O  O295  1  0.03835095  0.58124136  0.93209335  1
  O  O296  1  0.03630413  0.91947287  0.18284778  1
  O  O297  1  0.03708252  0.91868433  0.43240761  1
  O  O298  1  0.03807254  0.91816527  0.68310535  1
  O  O299  1  0.03705769  0.91804990  0.93348162  1
  O  O300  1  0.53569154  0.25085244  0.18303731  1
  O  O301  1  0.53567875  0.24856056  0.43113523  1
  O  O302  1  0.53622057  0.24826144  0.68293847  1
  O  O303  1  0.53551714  0.25030633  0.93206667  1
  O  O304  1  0.53684206  0.58276875  0.18181107  1
  O  O305  1  0.53696672  0.58256369  0.43063086  1
  O  O306  1  0.53802421  0.58292205  0.68362368  1
  O  O307  1  0.53707717  0.58382797  0.93368717  1
  O  O308  1  0.53595757  0.91590989  0.18186075  1
  O  O309  1  0.53682188  0.91591060  0.43229339  1
  O  O310  1  0.53776631  0.91560781  0.68395614  1
  O  O311  1  0.53645401  0.91545129  0.93360381  1
  O  O312  1  0.46201484  0.08365929  0.06733164  1
  O  O313  1  0.46253734  0.08430461  0.31710217  1
  O  O314  1  0.46280317  0.08456137  0.56775642  1
  O  O315  1  0.46253662  0.08220386  0.81767391  1
  O  O316  1  0.46404887  0.41644109  0.06750667  1
  O  O317  1  0.46294986  0.41631855  0.31556673  1
  O  O318  1  0.46268419  0.41476762  0.56794242  1
  O  O319  1  0.46372906  0.41581175  0.81877048  1
  O  O320  1  0.46462590  0.74919489  0.06767370  1
  O  O321  1  0.46286395  0.74996006  0.31611041  1
  O  O322  1  0.46349729  0.74932464  0.56971049  1
  O  O323  1  0.46419865  0.74948091  0.81868787  1
  O  O324  1  0.96228945  0.08271401  0.06742529  1
  O  O325  1  0.96238962  0.08491036  0.31736984  1
  O  O326  1  0.96287192  0.08706824  0.56713140  1
  O  O327  1  0.96245688  0.08415663  0.81739887  1
  O  O328  1  0.96357860  0.41612293  0.06851170  1
  O  O329  1  0.96342114  0.41595885  0.31721454  1
  O  O330  1  0.96382948  0.41659069  0.56805169  1
  O  O331  1  0.96381247  0.41467678  0.81652446  1
  O  O332  1  0.96237111  0.75043132  0.06657807  1
  O  O333  1  0.96331994  0.74926035  0.31735676  1
  O  O334  1  0.96306019  0.74947741  0.56594118  1
  O  O335  1  0.96270829  0.74959484  0.81643227  1
  O  O336  1  0.21307063  0.08304600  0.05859925  1
  O  O337  1  0.21329731  0.08572994  0.30835385  1
  O  O338  1  0.21254293  0.08430373  0.55756915  1
  O  O339  1  0.21287823  0.08278074  0.80942882  1
  O  O340  1  0.21421601  0.41554289  0.05838245  1
  O  O341  1  0.21393216  0.41570772  0.30649117  1
  O  O342  1  0.21328629  0.41722707  0.55712225  1
  O  O343  1  0.21317632  0.41744888  0.80741176  1
  O  O344  1  0.21322720  0.75130993  0.05790577  1
  O  O345  1  0.21328692  0.75188192  0.30777103  1
  O  O346  1  0.21359187  0.75159216  0.55781478  1
  O  O347  1  0.21359817  0.75192885  0.80800714  1
  O  O348  1  0.71109332  0.08356580  0.05822667  1
  O  O349  1  0.71172073  0.08421661  0.30876775  1
  O  O350  1  0.71266980  0.08412932  0.55779052  1
  O  O351  1  0.71223930  0.08205574  0.80737574  1
  O  O352  1  0.71307459  0.41442980  0.05734037  1
  O  O353  1  0.71277863  0.41473739  0.30757956  1
  O  O354  1  0.71232538  0.41560278  0.55755892  1
  O  O355  1  0.71310114  0.41499174  0.80755261  1
  O  O356  1  0.71349667  0.74930119  0.05521493  1
  O  O357  1  0.71170176  0.75044184  0.30780265  1
  O  O358  1  0.71309079  0.75067340  0.55731992  1
  O  O359  1  0.71408813  0.74837877  0.80749881  1
  O  O360  1  0.28569443  0.24990072  0.19279624  1
  O  O361  1  0.28680677  0.24971584  0.44120058  1
  O  O362  1  0.28734109  0.25148846  0.69330943  1
  O  O363  1  0.28651687  0.25023065  0.94382486  1
  O  O364  1  0.28738178  0.58290026  0.19082959  1
  O  O365  1  0.28762592  0.58268398  0.44233836  1
  O  O366  1  0.28839678  0.58324950  0.69163673  1
  O  O367  1  0.28818413  0.58239379  0.94279227  1
  O  O368  1  0.28698019  0.91574681  0.19270404  1
  O  O369  1  0.28746084  0.91550681  0.44299415  1
  O  O370  1  0.28712466  0.91658736  0.69432904  1
  O  O371  1  0.28651281  0.91615367  0.94274680  1
  O  O372  1  0.78593653  0.25061085  0.19347534  1
  O  O373  1  0.78561777  0.25121976  0.44206355  1
  O  O374  1  0.78620962  0.25130783  0.69220255  1
  O  O375  1  0.78682940  0.25141160  0.94238966  1
  O  O376  1  0.78800035  0.58215171  0.19127517  1
  O  O377  1  0.78717040  0.58398444  0.44227213  1
  O  O378  1  0.78699543  0.58425825  0.69161894  1
  O  O379  1  0.78776784  0.58312464  0.94060426  1
  O  O380  1  0.78710155  0.91561391  0.19263772  1
  O  O381  1  0.78682591  0.91783830  0.44220457  1
  O  O382  1  0.78686626  0.91678940  0.69176479  1
  O  O383  1  0.78713647  0.91565806  0.94096517  1
  O  O384  1  0.22703643  0.24908911  0.05945694  1
  O  O385  1  0.22671858  0.25093427  0.30915986  1
  O  O386  1  0.22819846  0.25046863  0.55694038  1
  O  O387  1  0.22782333  0.25168921  0.80856616  1
  O  O388  1  0.22874729  0.58195762  0.05809004  1
  O  O389  1  0.22868093  0.58352859  0.30642893  1
  O  O390  1  0.22868502  0.58227518  0.55802038  1
  O  O391  1  0.22928831  0.58361724  0.80692882  1
  O  O392  1  0.22800917  0.91542208  0.05890814  1
  O  O393  1  0.22802881  0.91572706  0.30842680  1
  O  O394  1  0.22842645  0.91522687  0.55863513  1
  O  O395  1  0.22770621  0.91685894  0.81018792  1
  O  O396  1  0.72756177  0.25175990  0.05782756  1
  O  O397  1  0.72669211  0.24971052  0.30936626  1
  O  O398  1  0.72734249  0.25181103  0.55827945  1
  O  O399  1  0.72702240  0.25157642  0.80771015  1
  O  O400  1  0.72861529  0.58204988  0.05580804  1
  O  O401  1  0.72852596  0.58283341  0.30619915  1
  O  O402  1  0.72802900  0.58438322  0.55777859  1
  O  O403  1  0.72825629  0.58402304  0.80744026  1
  O  O404  1  0.72779323  0.91624061  0.05605487  1
  O  O405  1  0.72775972  0.91532149  0.30791713  1
  O  O406  1  0.72807008  0.91844434  0.55800706  1
  O  O407  1  0.72799681  0.91463104  0.80747966  1
  O  O408  1  0.27196047  0.08521176  0.19251011  1
  O  O409  1  0.27195869  0.08456737  0.44219809  1
  O  O410  1  0.27167426  0.08334858  0.69395587  1
  O  O411  1  0.27201174  0.08248131  0.94283029  1
  O  O412  1  0.27340089  0.41652064  0.19072673  1
  O  O413  1  0.27210600  0.41493305  0.44136111  1
  O  O414  1  0.27258577  0.41864869  0.69199240  1
  O  O415  1  0.27284006  0.41469056  0.94238891  1
  O  O416  1  0.27211411  0.75192031  0.19195174  1
  O  O417  1  0.27247757  0.75175907  0.44206043  1
  O  O418  1  0.27263030  0.75184100  0.69230964  1
  O  O419  1  0.27258354  0.75177804  0.94247041  1
  O  O420  1  0.77081629  0.08353448  0.19347192  1
  O  O421  1  0.77136911  0.08523931  0.44189530  1
  O  O422  1  0.77159138  0.08197203  0.69189434  1
  O  O423  1  0.77049184  0.08352773  0.94330213  1
  O  O424  1  0.77210187  0.41413650  0.19208435  1
  O  O425  1  0.77156043  0.41503620  0.44212827  1
  O  O426  1  0.77174856  0.41509778  0.69162228  1
  O  O427  1  0.77214817  0.41481929  0.94172954  1
  O  O428  1  0.77133397  0.74939103  0.19295288  1
  O  O429  1  0.77189037  0.75179633  0.44152859  1
  O  O430  1  0.77237046  0.74846216  0.69122858  1
  O  O431  1  0.77304780  0.74988856  0.93953052  1
  O  O432  1  0.02118849  0.08298900  0.18330400  1
  O  O433  1  0.02166719  0.08667166  0.43296795  1
  O  O434  1  0.02172902  0.08673515  0.68289698  1
  O  O435  1  0.02130969  0.08267901  0.93331561  1
  O  O436  1  0.02293218  0.41676660  0.18445568  1
  O  O437  1  0.02226334  0.41545286  0.43311698  1
  O  O438  1  0.02302020  0.41661853  0.68404693  1
  O  O439  1  0.02259568  0.41415459  0.93260999  1
  O  O440  1  0.02147395  0.75069482  0.18168206  1
  O  O441  1  0.02246339  0.74849836  0.43298094  1
  O  O442  1  0.02196968  0.74996706  0.68134890  1
  O  O443  1  0.02197442  0.75014216  0.93158940  1
  O  O444  1  0.52113919  0.08441168  0.18296663  1
  O  O445  1  0.52157647  0.08466359  0.43298487  1
  O  O446  1  0.52151501  0.08428605  0.68373527  1
  O  O447  1  0.52134100  0.08177561  0.93357849  1
  O  O448  1  0.52304308  0.41576860  0.18385262  1
  O  O449  1  0.52179099  0.41562951  0.43137699  1
  O  O450  1  0.52209295  0.41457248  0.68346705  1
  O  O451  1  0.52288033  0.41540448  0.93478451  1
  O  O452  1  0.52324104  0.75029351  0.18413779  1
  O  O453  1  0.52187689  0.74920498  0.43170845  1
  O  O454  1  0.52327475  0.74912646  0.68531283  1
  O  O455  1  0.52336744  0.74853953  0.93473732  1
  O  O456  1  0.47714216  0.25153373  0.06697264  1
  O  O457  1  0.47637938  0.25008888  0.31518412  1
  O  O458  1  0.47752836  0.24749356  0.56671989  1
  O  O459  1  0.47657901  0.24919473  0.81595931  1
  O  O460  1  0.47786078  0.58383742  0.06560663  1
  O  O461  1  0.47745925  0.58283179  0.31484092  1
  O  O462  1  0.47843174  0.58242617  0.56845706  1
  O  O463  1  0.47830565  0.58387096  0.81757464  1
  O  O464  1  0.47696254  0.91680791  0.06580078  1
  O  O465  1  0.47774878  0.91500406  0.31657853  1
  O  O466  1  0.47832861  0.91622332  0.56878481  1
  O  O467  1  0.47763607  0.91479947  0.81760215  1
  O  O468  1  0.97756975  0.25166408  0.06702253  1
  O  O469  1  0.97755179  0.25218938  0.31698919  1
  O  O470  1  0.97725764  0.25126853  0.56556528  1
  O  O471  1  0.97734254  0.25027134  0.81578445  1
  O  O472  1  0.97932072  0.58248779  0.06798744  1
  O  O473  1  0.97873491  0.58138624  0.31664561  1
  O  O474  1  0.97864775  0.58502827  0.56668028  1
  O  O475  1  0.97898771  0.58093475  0.81666198  1
  O  O476  1  0.97760821  0.91933900  0.06683767  1
  O  O477  1  0.97772226  0.91925964  0.31700677  1
  O  O478  1  0.97886422  0.91806783  0.56807259  1
  O  O479  1  0.97828668  0.91775614  0.81787312  1
  O  O480  1  0.07260809  0.31512085  0.07376513  1
  O  O481  1  0.07289895  0.31501265  0.32418879  1
  O  O482  1  0.07227263  0.31486572  0.57391072  1
  O  O483  1  0.07275761  0.31331089  0.82345963  1
  O  O484  1  0.07452187  0.64624231  0.07562076  1
  O  O485  1  0.07399717  0.64565947  0.32451429  1
  O  O486  1  0.07387560  0.64793133  0.57414489  1
  O  O487  1  0.07415540  0.64520247  0.82457691  1
  O  O488  1  0.07277593  0.98271223  0.07431538  1
  O  O489  1  0.07276641  0.98277243  0.32432374  1
  O  O490  1  0.07413560  0.98192604  0.57530463  1
  O  O491  1  0.07386323  0.98098852  0.82532886  1
  O  O492  1  0.57252728  0.31431229  0.07451208  1
  O  O493  1  0.57174559  0.31301885  0.32359852  1
  O  O494  1  0.57250431  0.31157629  0.57470494  1
  O  O495  1  0.57140688  0.31310663  0.82329912  1
  O  O496  1  0.57360249  0.64621474  0.07375214  1
  O  O497  1  0.57242104  0.64634914  0.32246327  1
  O  O498  1  0.57379943  0.64601917  0.57483441  1
  O  O499  1  0.57321367  0.64720040  0.82490164  1
  O  O500  1  0.57181687  0.98040618  0.07412699  1
  O  O501  1  0.57277447  0.97930747  0.32455036  1
  O  O502  1  0.57358128  0.97960804  0.57580180  1
  O  O503  1  0.57305835  0.97835176  0.82541687  1
  O  O504  1  0.42565927  0.02089460  0.17551955  1
  O  O505  1  0.42664821  0.02056136  0.42503160  1
  O  O506  1  0.42626152  0.02055262  0.67515274  1
  O  O507  1  0.42672749  0.01799551  0.92600691  1
  O  O508  1  0.42729285  0.35349628  0.17588918  1
  O  O509  1  0.42609488  0.35296927  0.42380332  1
  O  O510  1  0.42704298  0.35115857  0.67645304  1
  O  O511  1  0.42709903  0.35295789  0.92710777  1
  O  O512  1  0.42885889  0.68589109  0.17621672  1
  O  O513  1  0.42649435  0.68591776  0.42424913  1
  O  O514  1  0.42825709  0.68548763  0.67791383  1
  O  O515  1  0.42780493  0.68576089  0.92682295  1
  O  O516  1  0.92598653  0.01969929  0.17632618  1
  O  O517  1  0.92650498  0.02225889  0.42581845  1
  O  O518  1  0.92672281  0.02256473  0.67438535  1
  O  O519  1  0.92631404  0.01938997  0.92525108  1
  O  O520  1  0.92780378  0.35303529  0.17700961  1
  O  O521  1  0.92705381  0.35244892  0.42597558  1
  O  O522  1  0.92756830  0.35354385  0.67633778  1
  O  O523  1  0.92737242  0.35137200  0.92541104  1
  O  O524  1  0.92623015  0.68674169  0.17447834  1
  O  O525  1  0.92732546  0.68522197  0.42538191  1
  O  O526  1  0.92628996  0.68680678  0.67446109  1
  O  O527  1  0.92714263  0.68562672  0.92429415  1
  O  O528  1  0.17677429  0.02156751  0.20106380  1
  O  O529  1  0.17660414  0.02098257  0.44962968  1
  O  O530  1  0.17612866  0.02013676  0.70086469  1
  O  O531  1  0.17743316  0.01863166  0.95031574  1
  O  O532  1  0.17833740  0.35291752  0.19778576  1
  O  O533  1  0.17673786  0.35261427  0.44926613  1
  O  O534  1  0.17713532  0.35471069  0.69916476  1
  O  O535  1  0.17771849  0.35166349  0.94989425  1
  O  O536  1  0.17684477  0.68825312  0.20004980  1
  O  O537  1  0.17740821  0.68780496  0.44996585  1
  O  O538  1  0.17725802  0.68834819  0.70014249  1
  O  O539  1  0.17768348  0.68738173  0.95003496  1
  O  O540  1  0.67564233  0.01979137  0.20105514  1
  O  O541  1  0.67598638  0.02133660  0.44977634  1
  O  O542  1  0.67682409  0.01803040  0.69909281  1
  O  O543  1  0.67498071  0.02010062  0.95006421  1
  O  O544  1  0.67656304  0.35134434  0.19915177  1
  O  O545  1  0.67605483  0.35215682  0.44889578  1
  O  O546  1  0.67646544  0.35187241  0.69894090  1
  O  O547  1  0.67689578  0.35144461  0.94844455  1
  O  O548  1  0.67605300  0.68598712  0.19969032  1
  O  O549  1  0.67655135  0.68778974  0.44929275  1
  O  O550  1  0.67761276  0.68479728  0.69882683  1
  O  O551  1  0.67845926  0.68540757  0.94718571  1
  O  O552  1  0.32189554  0.31303199  0.05279316  1
  O  O553  1  0.32203732  0.31378252  0.30074361  1
  O  O554  1  0.32398944  0.31318446  0.54911166  1
  O  O555  1  0.32281487  0.31515426  0.80191834  1
  O  O556  1  0.32410616  0.64570237  0.05059991  1
  O  O557  1  0.32394710  0.64677145  0.29870310  1
  O  O558  1  0.32411840  0.64581524  0.55017463  1
  O  O559  1  0.32444704  0.64719096  0.79978665  1
  O  O560  1  0.32323674  0.97913787  0.05087936  1
  O  O561  1  0.32324897  0.97933935  0.30041885  1
  O  O562  1  0.32336828  0.97948523  0.55079001  1
  O  O563  1  0.32241346  0.98072694  0.80262534  1
  O  O564  1  0.82317433  0.31443542  0.05131573  1
  O  O565  1  0.82167008  0.31367320  0.30200715  1
  O  O566  1  0.82246971  0.31508687  0.55035549  1
  O  O567  1  0.82251123  0.31449168  0.80084193  1
  O  O568  1  0.82374507  0.64634695  0.04908570  1
  O  O569  1  0.82415965  0.64594745  0.29922013  1
  O  O570  1  0.82277373  0.64831687  0.55032692  1
  O  O571  1  0.82356499  0.64725180  0.80028674  1
  O  O572  1  0.82284947  0.97996635  0.04918147  1
  O  O573  1  0.82310984  0.97916726  0.30037418  1
  O  O574  1  0.82278576  0.98225863  0.55036324  1
  O  O575  1  0.82303452  0.97926374  0.80021283  1
  O  O576  1  0.42629217  0.14804082  0.17550861  1
  O  O577  1  0.42624581  0.14776601  0.42546858  1
  O  O578  1  0.42630697  0.14757156  0.67661585  1
  O  O579  1  0.42574445  0.14516449  0.92545260  1
  O  O580  1  0.42897982  0.48070895  0.17573512  1
  O  O581  1  0.42675948  0.47970664  0.42408245  1
  O  O582  1  0.42683890  0.47834055  0.67586202  1
  O  O583  1  0.42883134  0.48032720  0.92692593  1
  O  O584  1  0.42788348  0.81320699  0.17541160  1
  O  O585  1  0.42644465  0.81262968  0.42510241  1
  O  O586  1  0.42844820  0.81303998  0.67809605  1
  O  O587  1  0.42884329  0.81284202  0.92756465  1
  O  O588  1  0.92599012  0.14684252  0.17469935  1
  O  O589  1  0.92637600  0.14940157  0.42533729  1
  O  O590  1  0.92629095  0.14968668  0.67604778  1
  O  O591  1  0.92592008  0.14650487  0.92568262  1
  O  O592  1  0.92804864  0.48039774  0.17657692  1
  O  O593  1  0.92693461  0.47923677  0.42534787  1
  O  O594  1  0.92856242  0.48094952  0.67600384  1
  O  O595  1  0.92750434  0.47828127  0.92447497  1
  O  O596  1  0.92581802  0.81379187  0.17461299  1
  O  O597  1  0.92731004  0.81269428  0.42501988  1
  O  O598  1  0.92674265  0.81377165  0.67358632  1
  O  O599  1  0.92608783  0.81280944  0.92434984  1
  O  O600  1  0.07285298  0.18806888  0.07532016  1
  O  O601  1  0.07266444  0.18820058  0.32452651  1
  O  O602  1  0.07223795  0.18765926  0.57356764  1
  O  O603  1  0.07196950  0.18606849  0.82368413  1
  O  O604  1  0.07490195  0.51928502  0.07490108  1
  O  O605  1  0.07386254  0.51848667  0.32468794  1
  O  O606  1  0.07383209  0.52077619  0.57418535  1
  O  O607  1  0.07416469  0.51785426  0.82348027  1
  O  O608  1  0.07281512  0.85547814  0.07544426  1
  O  O609  1  0.07307228  0.85536646  0.32455627  1
  O  O610  1  0.07447904  0.85488399  0.57500549  1
  O  O611  1  0.07348749  0.85400331  0.82569958  1
  O  O612  1  0.57222959  0.18748042  0.07496691  1
  O  O613  1  0.57104751  0.18569343  0.32236057  1
  O  O614  1  0.57282971  0.18467263  0.57430416  1
  O  O615  1  0.57158777  0.18565840  0.82464379  1
  O  O616  1  0.57198098  0.51892815  0.07325050  1
  O  O617  1  0.57233569  0.51889553  0.32234404  1
  O  O618  1  0.57382183  0.51908773  0.57535419  1
  O  O619  1  0.57360895  0.52019145  0.82593079  1
  O  O620  1  0.57189266  0.85293678  0.07326059  1
  O  O621  1  0.57300497  0.85208357  0.32398434  1
  O  O622  1  0.57394788  0.85269562  0.57545516  1
  O  O623  1  0.57263858  0.85140911  0.82525250  1
  O  O624  1  0.32223117  0.18575220  0.05165079  1
  O  O625  1  0.32119445  0.18649716  0.30147175  1
  O  O626  1  0.32327944  0.18647924  0.54997133  1
  O  O627  1  0.32323154  0.18797664  0.80113020  1
  O  O628  1  0.32373203  0.51832156  0.05101722  1
  O  O629  1  0.32407429  0.51985902  0.29895339  1
  O  O630  1  0.32352742  0.51846753  0.55044336  1
  O  O631  1  0.32498505  0.52036146  0.80014735  1
  O  O632  1  0.32312865  0.85214379  0.05097673  1
  O  O633  1  0.32314859  0.85215165  0.30121161  1
  O  O634  1  0.32395154  0.85238449  0.55185964  1
  O  O635  1  0.32291826  0.85329006  0.80276104  1
  O  O636  1  0.82255251  0.18743300  0.05033928  1
  O  O637  1  0.82168557  0.18625327  0.30138561  1
  O  O638  1  0.82265359  0.18821162  0.55015648  1
  O  O639  1  0.82196844  0.18733986  0.80002298  1
  O  O640  1  0.82444560  0.51941896  0.04858645  1
  O  O641  1  0.82380510  0.51900009  0.29975342  1
  O  O642  1  0.82358824  0.52097654  0.55018812  1
  O  O643  1  0.82337692  0.52015623  0.79903306  1
  O  O644  1  0.82365398  0.85301297  0.04935619  1
  O  O645  1  0.82287328  0.85192557  0.30127013  1
  O  O646  1  0.82375817  0.85508054  0.55010736  1
  O  O647  1  0.82334739  0.85204207  0.79937244  1
  O  O648  1  0.17672133  0.14862647  0.19951811  1
  O  O649  1  0.17698590  0.14819764  0.44903887  1
  O  O650  1  0.17648697  0.14706953  0.70168229  1
  O  O651  1  0.17629547  0.14575811  0.95055070  1
  O  O652  1  0.17855008  0.48033864  0.19870845  1
  O  O653  1  0.17712677  0.47970168  0.44868198  1
  O  O654  1  0.17765045  0.48181203  0.69883686  1
  O  O655  1  0.17759013  0.47867557  0.95025344  1
  O  O656  1  0.17689405  0.81536419  0.19923890  1
  O  O657  1  0.17710532  0.81495378  0.44920164  1
  O  O658  1  0.17751476  0.81545717  0.69944524  1
  O  O659  1  0.17695121  0.81458544  0.94938423  1
  O  O660  1  0.67515901  0.14674439  0.20015232  1
  O  O661  1  0.67638707  0.14841620  0.44959346  1
  O  O662  1  0.67611496  0.14542606  0.69976071  1
  O  O663  1  0.67512220  0.14710258  0.95006537  1
  O  O664  1  0.67718733  0.47844935  0.19932761  1
  O  O665  1  0.67647849  0.47926244  0.44954413  1
  O  O666  1  0.67662407  0.47901258  0.70019929  1
  O  O667  1  0.67684290  0.47844570  0.94969837  1
  O  O668  1  0.67570740  0.81283229  0.19877150  1
  O  O669  1  0.67697006  0.81513816  0.44932350  1
  O  O670  1  0.67686538  0.81176008  0.69988892  1
  O  O671  1  0.67780454  0.81305866  0.94719694  1
