# generated using pymatgen
data_Na2MnFe(PO4)2
_symmetry_space_group_name_H-M   'P 1'
_cell_length_a   22.34215172
_cell_length_b   20.09399578
_cell_length_c   19.45039974
_cell_angle_alpha   89.98890675
_cell_angle_beta   89.98245260
_cell_angle_gamma   90.00264696
_symmetry_Int_Tables_number   1
_chemical_formula_structural   Na2MnFe(PO4)2
_chemical_formula_sum   'Na96 Mn48 Fe48 P96 O384'
_cell_volume   8732.12221601
_cell_formula_units_Z   48
loop_
 _symmetry_equiv_pos_site_id
 _symmetry_equiv_pos_as_xyz
  1  'x, y, z'
loop_
 _atom_site_type_symbol
 _atom_site_label
 _atom_site_symmetry_multiplicity
 _atom_site_fract_x
 _atom_site_fract_y
 _atom_site_fract_z
 _atom_site_occupancy
  Na  Na0  1  0.14024790  0.25072528  0.24384888  1
  Na  Na1  1  0.14083873  0.24803372  0.49292470  1
  Na  Na2  1  0.14076434  0.24973793  0.74278962  1
  Na  Na3  1  0.14084263  0.25097051  0.99295249  1
  Na  Na4  1  0.13988597  0.58368786  0.24249005  1
  Na  Na5  1  0.13981844  0.58181218  0.49355140  1
  Na  Na6  1  0.14021753  0.58368125  0.74376439  1
  Na  Na7  1  0.14063557  0.58340617  0.99344148  1
  Na  Na8  1  0.14025376  0.91756679  0.24289113  1
  Na  Na9  1  0.14014879  0.91700237  0.49337529  1
  Na  Na10  1  0.14009083  0.91723809  0.74203898  1
  Na  Na11  1  0.13985298  0.91684328  0.99148374  1
  Na  Na12  1  0.64072791  0.24985109  0.24556626  1
  Na  Na13  1  0.64098322  0.24966681  0.49567489  1
  Na  Na14  1  0.64099809  0.25141428  0.74418317  1
  Na  Na15  1  0.64114721  0.24971185  0.99416142  1
  Na  Na16  1  0.63986717  0.58216257  0.24457580  1
  Na  Na17  1  0.63964558  0.58157532  0.49426908  1
  Na  Na18  1  0.63992547  0.58236904  0.74402183  1
  Na  Na19  1  0.64039576  0.58236176  0.99402630  1
  Na  Na20  1  0.64040317  0.91714375  0.24407528  1
  Na  Na21  1  0.64052174  0.91866254  0.49391367  1
  Na  Na22  1  0.64036995  0.91897919  0.74315704  1
  Na  Na23  1  0.64035414  0.91697977  0.99396628  1
  Na  Na24  1  0.35953199  0.08396274  0.00526865  1
  Na  Na25  1  0.35965408  0.08341281  0.25789890  1
  Na  Na26  1  0.35922426  0.08162968  0.50683130  1
  Na  Na27  1  0.35950490  0.08299373  0.75608693  1
  Na  Na28  1  0.35947878  0.41811992  0.00565715  1
  Na  Na29  1  0.35915325  0.41807826  0.25685889  1
  Na  Na30  1  0.35912720  0.41568658  0.50709138  1
  Na  Na31  1  0.35933922  0.41747406  0.75785974  1
  Na  Na32  1  0.35867342  0.74931625  0.00529611  1
  Na  Na33  1  0.35878945  0.74990983  0.25609638  1
  Na  Na34  1  0.35863457  0.74855217  0.50619080  1
  Na  Na35  1  0.35842948  0.74967401  0.75568887  1
  Na  Na36  1  0.86065091  0.08253136  0.00607281  1
  Na  Na37  1  0.86072080  0.08427238  0.25708227  1
  Na  Na38  1  0.86086950  0.08396395  0.50703867  1
  Na  Na39  1  0.86084500  0.08435490  0.75604394  1
  Na  Na40  1  0.86004693  0.41634344  0.00568030  1
  Na  Na41  1  0.86010951  0.41558282  0.25703826  1
  Na  Na42  1  0.86003900  0.41532326  0.50627281  1
  Na  Na43  1  0.86049472  0.41695337  0.75714089  1
  Na  Na44  1  0.85980369  0.75039060  0.00566967  1
  Na  Na45  1  0.85971535  0.74908249  0.25516092  1
  Na  Na46  1  0.85940416  0.75012915  0.50626566  1
  Na  Na47  1  0.85915415  0.75108469  0.75649302  1
  Na  Na48  1  0.10977674  0.08300099  0.11935031  1
  Na  Na49  1  0.11010517  0.08410323  0.36837274  1
  Na  Na50  1  0.11059613  0.08335136  0.61773291  1
  Na  Na51  1  0.10953414  0.08300066  0.86670629  1
  Na  Na52  1  0.10980551  0.41680580  0.11915434  1
  Na  Na53  1  0.10937194  0.41638915  0.36706628  1
  Na  Na54  1  0.11012767  0.41605440  0.61945915  1
  Na  Na55  1  0.11021653  0.41618835  0.86688439  1
  Na  Na56  1  0.10966348  0.75001463  0.11728958  1
  Na  Na57  1  0.10927510  0.74966301  0.36776656  1
  Na  Na58  1  0.10911426  0.75153859  0.61859018  1
  Na  Na59  1  0.10969130  0.75103362  0.86717231  1
  Na  Na60  1  0.60989675  0.08309903  0.11974226  1
  Na  Na61  1  0.61009955  0.08354200  0.36988418  1
  Na  Na62  1  0.61026161  0.08352353  0.61920678  1
  Na  Na63  1  0.61010623  0.08392041  0.86818656  1
  Na  Na64  1  0.60958026  0.41672118  0.11979153  1
  Na  Na65  1  0.60947992  0.41660366  0.37053315  1
  Na  Na66  1  0.60985741  0.41757145  0.62010764  1
  Na  Na67  1  0.61036386  0.41705924  0.86876010  1
  Na  Na68  1  0.60933652  0.74874246  0.11905893  1
  Na  Na69  1  0.60903622  0.74920674  0.36902865  1
  Na  Na70  1  0.60873393  0.74985547  0.61837319  1
  Na  Na71  1  0.60908845  0.74963279  0.86875033  1
  Na  Na72  1  0.39048950  0.25030187  0.13152855  1
  Na  Na73  1  0.38975944  0.24977696  0.38274700  1
  Na  Na74  1  0.39004668  0.24963820  0.63249718  1
  Na  Na75  1  0.39003577  0.25135557  0.88101597  1
  Na  Na76  1  0.38917423  0.58296998  0.13106272  1
  Na  Na77  1  0.38960353  0.58322727  0.38133612  1
  Na  Na78  1  0.38950479  0.58196474  0.63148253  1
  Na  Na79  1  0.38915145  0.58281487  0.88173799  1
  Na  Na80  1  0.38990824  0.91648937  0.13054252  1
  Na  Na81  1  0.38988292  0.91644004  0.38172417  1
  Na  Na82  1  0.38939697  0.91660018  0.63079630  1
  Na  Na83  1  0.38986399  0.91681582  0.87976503  1
  Na  Na84  1  0.89097365  0.24918884  0.13281064  1
  Na  Na85  1  0.89049335  0.24913859  0.38175569  1
  Na  Na86  1  0.89159455  0.24923721  0.63205646  1
  Na  Na87  1  0.89090353  0.24940017  0.88086067  1
  Na  Na88  1  0.89053049  0.58305347  0.13186287  1
  Na  Na89  1  0.89063420  0.58300744  0.38022824  1
  Na  Na90  1  0.89043967  0.58287529  0.63245629  1
  Na  Na91  1  0.89031963  0.58318782  0.88123372  1
  Na  Na92  1  0.89131061  0.91674004  0.13050045  1
  Na  Na93  1  0.89090635  0.91822307  0.38113493  1
  Na  Na94  1  0.89073943  0.91908684  0.63168309  1
  Na  Na95  1  0.89061949  0.91761777  0.88013972  1
  Mn  Mn96  1  0.49996267  0.16688043  0.75035309  1
  Mn  Mn97  1  0.00048308  0.83388937  0.24954271  1
  Mn  Mn98  1  0.24981956  0.00065125  0.12395337  1
  Mn  Mn99  1  0.49969599  0.33409616  0.25124649  1
  Mn  Mn100  1  0.00046872  0.66715604  -0.00081461  1
  Mn  Mn101  1  -0.00006273  0.49961217  0.49966355  1
  Mn  Mn102  1  0.00020102  0.33231119  0.49956908  1
  Mn  Mn103  1  0.74992900  0.49976522  0.12568276  1
  Mn  Mn104  1  0.24917416  0.83287100  0.37467384  1
  Mn  Mn105  1  0.74988132  0.83333297  0.37511239  1
  Mn  Mn106  1  0.75019351  0.83261713  0.12430879  1
  Mn  Mn107  1  0.75044945  0.16663902  0.87493071  1
  Mn  Mn108  1  0.24949435  0.49969204  0.37502610  1
  Mn  Mn109  1  0.74914282  0.83446821  0.87528975  1
  Mn  Mn110  1  0.49890448  0.66561901  0.74957034  1
  Mn  Mn111  1  0.25112235  0.33456212  0.12414411  1
  Mn  Mn112  1  0.50044325  0.33476072  0.00128641  1
  Mn  Mn113  1  0.49942224  0.66526067  0.24952388  1
  Mn  Mn114  1  0.74943150  0.66612314  0.87509336  1
  Mn  Mn115  1  0.50014382  0.16575781  0.25137345  1
  Mn  Mn116  1  0.75077802  0.00076706  0.12516199  1
  Mn  Mn117  1  0.00008840  0.49945493  0.00026170  1
  Mn  Mn118  1  0.75042705  0.33224928  0.12557610  1
  Mn  Mn119  1  0.74949865  0.83466715  0.62565830  1
  Mn  Mn120  1  0.75086276  0.00139348  0.37455100  1
  Mn  Mn121  1  0.00044783  0.33286080  0.00001631  1
  Mn  Mn122  1  0.49947543  0.83340435  0.25010420  1
  Mn  Mn123  1  0.24969499  0.00011496  0.87389100  1
  Mn  Mn124  1  0.49978015  0.83346644  0.49966052  1
  Mn  Mn125  1  -0.00081448  0.83509522  0.49876658  1
  Mn  Mn126  1  0.00132527  0.16567825  0.00034253  1
  Mn  Mn127  1  0.24981588  0.83297593  0.12436550  1
  Mn  Mn128  1  0.49992938  0.83333053  -0.00041101  1
  Mn  Mn129  1  0.50004066  0.33420964  0.50126076  1
  Mn  Mn130  1  0.74939449  0.66568814  0.62596404  1
  Mn  Mn131  1  0.50002002  0.00021672  0.00014654  1
  Mn  Mn132  1  0.24911951  0.66590498  0.62541848  1
  Mn  Mn133  1  -0.00056728  0.66758562  0.74992240  1
  Mn  Mn134  1  0.75089200  0.33357725  0.62545978  1
  Mn  Mn135  1  0.49905630  0.66531829  -0.00062745  1
  Mn  Mn136  1  -0.00009525  0.66721770  0.50004884  1
  Mn  Mn137  1  0.25022532  0.33284065  0.62537855  1
  Mn  Mn138  1  0.74980301  0.66575259  0.37589265  1
  Mn  Mn139  1  0.49928288  0.83391855  0.74867231  1
  Mn  Mn140  1  0.25040757  0.16765693  0.12516822  1
  Mn  Mn141  1  0.50004845  0.16600078  0.50150909  1
  Mn  Mn142  1  0.49993168  0.16723057  -0.00002167  1
  Mn  Mn143  1  0.75080270  0.49848795  0.37481686  1
  Fe  Fe144  1  0.74980283  0.66619069  0.12483703  1
  Fe  Fe145  1  0.24954135  0.33306181  0.37553357  1
  Fe  Fe146  1  0.24998095  0.33363379  0.87468990  1
  Fe  Fe147  1  0.75061503  0.00137531  0.62470423  1
  Fe  Fe148  1  0.24996147  -0.00035319  0.62475065  1
  Fe  Fe149  1  0.49929236  0.66583219  0.49971541  1
  Fe  Fe150  1  0.75067994  0.16670048  0.12508782  1
  Fe  Fe151  1  -0.00033827  0.83452392  0.74922068  1
  Fe  Fe152  1  0.49993872  0.49994412  0.74998073  1
  Fe  Fe153  1  0.75044162  0.49918294  0.62524063  1
  Fe  Fe154  1  0.24919588  0.66671242  0.87471490  1
  Fe  Fe155  1  0.25048257  0.16620197  0.62396218  1
  Fe  Fe156  1  0.24948475  0.49951273  0.62534210  1
  Fe  Fe157  1  0.24927028  0.66673032  0.12448668  1
  Fe  Fe158  1  0.00048286  0.33253145  0.74958544  1
  Fe  Fe159  1  0.49984280  0.49976897  -0.00000161  1
  Fe  Fe160  1  0.49963253  0.49996886  0.25079731  1
  Fe  Fe161  1  0.00058002  -0.00036416  -0.00091042  1
  Fe  Fe162  1  0.49868547  0.49982128  0.50081722  1
  Fe  Fe163  1  0.49982519  -0.00034563  0.25023876  1
  Fe  Fe164  1  0.75012628  0.00096372  0.87510219  1
  Fe  Fe165  1  0.24880485  0.83267132  0.62431217  1
  Fe  Fe166  1  0.24922237  0.50051886  0.12476375  1
  Fe  Fe167  1  0.75008477  0.33222193  0.37612995  1
  Fe  Fe168  1  0.49988778  0.33417309  0.75100997  1
  Fe  Fe169  1  0.24963809  0.50064154  0.87544256  1
  Fe  Fe170  1  0.00099508  0.00129223  0.50033569  1
  Fe  Fe171  1  0.75080861  0.50002928  0.87546536  1
  Fe  Fe172  1  0.00051518  0.49980661  0.74992584  1
  Fe  Fe173  1  0.75096577  0.33335396  0.87499409  1
  Fe  Fe174  1  0.24982113  0.16684541  0.87405996  1
  Fe  Fe175  1  0.49989696  0.00031626  0.74996429  1
  Fe  Fe176  1  0.00048786  0.00036222  0.74979503  1
  Fe  Fe177  1  0.24999323  -0.00039116  0.37508489  1
  Fe  Fe178  1  0.75118731  0.16713394  0.62538306  1
  Fe  Fe179  1  0.00053099  0.00034267  0.24999186  1
  Fe  Fe180  1  0.00108799  0.16610232  0.74982491  1
  Fe  Fe181  1  0.75058379  0.16695591  0.37599070  1
  Fe  Fe182  1  0.24979046  0.83324276  0.87406200  1
  Fe  Fe183  1  0.00012140  0.33281516  0.25038970  1
  Fe  Fe184  1  0.00022055  0.83389940  -0.00073092  1
  Fe  Fe185  1  0.00020587  0.49990592  0.24970666  1
  Fe  Fe186  1  0.49986745  -0.00025877  0.50016862  1
  Fe  Fe187  1  0.00096748  0.16641717  0.50015330  1
  Fe  Fe188  1  0.00023402  0.16599758  0.25037526  1
  Fe  Fe189  1  0.24896613  0.66613036  0.37500226  1
  Fe  Fe190  1  0.25042067  0.16636912  0.37500599  1
  Fe  Fe191  1  -0.00028762  0.66696190  0.24905103  1
  P  P192  1  0.04318710  0.24972077  0.10409807  1
  P  P193  1  0.04140434  0.24924246  0.35181967  1
  P  P194  1  0.04285368  0.24863489  0.60292384  1
  P  P195  1  0.04187313  0.24944950  0.85116922  1
  P  P196  1  0.04230538  0.58343696  0.10355121  1
  P  P197  1  0.04123684  0.58369208  0.35095880  1
  P  P198  1  0.04224182  0.58312757  0.60358602  1
  P  P199  1  0.04202786  0.58272628  0.85199965  1
  P  P200  1  0.04206960  0.91716538  0.10115912  1
  P  P201  1  0.04267515  0.91884178  0.35240158  1
  P  P202  1  0.04200028  0.91853096  0.60266484  1
  P  P203  1  0.04169516  0.91685007  0.85139581  1
  P  P204  1  0.54299653  0.25007584  0.10388445  1
  P  P205  1  0.54255129  0.25011191  0.35437633  1
  P  P206  1  0.54258355  0.25071439  0.60467594  1
  P  P207  1  0.54243861  0.25179685  0.85279590  1
  P  P208  1  0.54193113  0.58125629  0.10268030  1
  P  P209  1  0.54162679  0.58181242  0.35375652  1
  P  P210  1  0.54081108  0.58261056  0.60197559  1
  P  P211  1  0.54172375  0.58153945  0.85258854  1
  P  P212  1  0.54285333  0.91668713  0.10363718  1
  P  P213  1  0.54201416  0.91797264  0.35301555  1
  P  P214  1  0.54201134  0.91816352  0.60261896  1
  P  P215  1  0.54228424  0.91779130  0.85181949  1
  P  P216  1  0.45721562  0.08217982  0.14814676  1
  P  P217  1  0.45775482  0.08173621  0.39802960  1
  P  P218  1  0.45781756  0.08185282  0.64743685  1
  P  P219  1  0.45721332  0.08348667  0.89634307  1
  P  P220  1  0.45736137  0.41839208  0.14797741  1
  P  P221  1  0.45698831  0.41819567  0.39814217  1
  P  P222  1  0.45788532  0.41691508  0.64898013  1
  P  P223  1  0.45803581  0.41801933  0.89705322  1
  P  P224  1  0.45642305  0.74940727  0.14676647  1
  P  P225  1  0.45721040  0.74851995  0.39766168  1
  P  P226  1  0.45657489  0.74924108  0.64579991  1
  P  P227  1  0.45653699  0.74974279  0.89628829  1
  P  P228  1  0.95912141  0.08273614  0.14826033  1
  P  P229  1  0.95919133  0.08371523  0.39805714  1
  P  P230  1  0.95987202  0.08357943  0.64783421  1
  P  P231  1  0.95869749  0.08194375  0.89670003  1
  P  P232  1  0.95866796  0.41594407  0.14875804  1
  P  P233  1  0.95771621  0.41602506  0.39579944  1
  P  P234  1  0.95908677  0.41612401  0.64854706  1
  P  P235  1  0.95844172  0.41617704  0.89580976  1
  P  P236  1  0.95829141  0.74987905  0.14652661  1
  P  P237  1  0.95723028  0.75016455  0.39585513  1
  P  P238  1  0.95706757  0.75230668  0.64733806  1
  P  P239  1  0.95801287  0.75225987  0.89662626  1
  P  P240  1  0.20818339  0.08377936  0.22884442  1
  P  P241  1  0.20927750  0.08271322  0.47690357  1
  P  P242  1  0.20926626  0.08396655  0.72602583  1
  P  P243  1  0.20737507  0.08494423  0.97633353  1
  P  P244  1  0.20796083  0.41790604  0.22737739  1
  P  P245  1  0.20707734  0.41478629  0.47776629  1
  P  P246  1  0.20821802  0.41782529  0.72843349  1
  P  P247  1  0.20846012  0.41739077  0.97636149  1
  P  P248  1  0.20714703  0.74868678  0.22715284  1
  P  P249  1  0.20691585  0.74837529  0.47742843  1
  P  P250  1  0.20718885  0.75119209  0.72776640  1
  P  P251  1  0.20820960  0.75000619  0.97613134  1
  P  P252  1  0.70853683  0.08551914  0.22808514  1
  P  P253  1  0.70880792  0.08511432  0.47865211  1
  P  P254  1  0.70917673  0.08423787  0.72693537  1
  P  P255  1  0.70782562  0.08285846  0.97780493  1
  P  P256  1  0.70741814  0.41531106  0.22904248  1
  P  P257  1  0.70807527  0.41491805  0.47835612  1
  P  P258  1  0.70865532  0.41788805  0.72866403  1
  P  P259  1  0.70921898  0.41615368  0.97677251  1
  P  P260  1  0.70751355  0.74838342  0.22745597  1
  P  P261  1  0.70669209  0.74997972  0.47867108  1
  P  P262  1  0.70638506  0.75040796  0.72837030  1
  P  P263  1  0.70668960  0.74954750  0.97844099  1
  P  P264  1  0.29296560  0.25057098  0.02058267  1
  P  P265  1  0.29156048  0.25083646  0.27377550  1
  P  P266  1  0.29234705  0.24835423  0.52192749  1
  P  P267  1  0.29133115  0.24996155  0.77279375  1
  P  P268  1  0.29056326  0.58344842  0.02265041  1
  P  P269  1  0.29116907  0.58475381  0.27198278  1
  P  P270  1  0.29128521  0.58149314  0.52265731  1
  P  P271  1  0.29070070  0.58316603  0.77344767  1
  P  P272  1  0.29210881  0.91640708  0.02055722  1
  P  P273  1  0.29198433  0.91747642  0.27255032  1
  P  P274  1  0.29043541  0.91602142  0.52292690  1
  P  P275  1  0.29130697  0.91530462  0.77099193  1
  P  P276  1  0.79335657  0.24864364  0.02250967  1
  P  P277  1  0.79195218  0.24950977  0.27392291  1
  P  P278  1  0.79329247  0.24886706  0.52261796  1
  P  P279  1  0.79280818  0.25122717  0.77242858  1
  P  P280  1  0.79249597  0.58382177  0.02245096  1
  P  P281  1  0.79277955  0.58314296  0.27154151  1
  P  P282  1  0.79246534  0.58137516  0.52309111  1
  P  P283  1  0.79228197  0.58179502  0.77243969  1
  P  P284  1  0.79293980  0.91723802  0.02131736  1
  P  P285  1  0.79323974  0.91661075  0.27178116  1
  P  P286  1  0.79259818  0.91858043  0.52274639  1
  P  P287  1  0.79175706  0.91934498  0.77215613  1
  O  O288  1  0.03776738  0.25012378  0.18396842  1
  O  O289  1  0.03659914  0.24845660  0.43179993  1
  O  O290  1  0.03762994  0.24892778  0.68279045  1
  O  O291  1  0.03749569  0.24922181  0.93117863  1
  O  O292  1  0.03674272  0.58373629  0.18345114  1
  O  O293  1  0.03663907  0.58350452  0.43104283  1
  O  O294  1  0.03675727  0.58290666  0.68351173  1
  O  O295  1  0.03727846  0.58284121  0.93199279  1
  O  O296  1  0.03699909  0.91750804  0.18111566  1
  O  O297  1  0.03729243  0.91909224  0.43231559  1
  O  O298  1  0.03655488  0.91805953  0.68252795  1
  O  O299  1  0.03665558  0.91645493  0.93130556  1
  O  O300  1  0.53784047  0.24991494  0.18384493  1
  O  O301  1  0.53748596  0.25008570  0.43433876  1
  O  O302  1  0.53711114  0.25121868  0.68458780  1
  O  O303  1  0.53744468  0.25160705  0.93278307  1
  O  O304  1  0.53690072  0.58120301  0.18265517  1
  O  O305  1  0.53604084  0.58236579  0.43362168  1
  O  O306  1  0.53592485  0.58242638  0.68196602  1
  O  O307  1  0.53664292  0.58157159  0.93252874  1
  O  O308  1  0.53759565  0.91703857  0.18361249  1
  O  O309  1  0.53664262  0.91793392  0.43299682  1
  O  O310  1  0.53676283  0.91833491  0.68254248  1
  O  O311  1  0.53721893  0.91733999  0.93180519  1
  O  O312  1  0.46227923  0.08297613  0.06814712  1
  O  O313  1  0.46284829  0.08158708  0.31807093  1
  O  O314  1  0.46315673  0.08167876  0.56749851  1
  O  O315  1  0.46252777  0.08320665  0.81636935  1
  O  O316  1  0.46267948  0.41835243  0.06801505  1
  O  O317  1  0.46220324  0.41820096  0.31822038  1
  O  O318  1  0.46265088  0.41717271  0.56899693  1
  O  O319  1  0.46333697  0.41759038  0.81717349  1
  O  O320  1  0.46149634  0.74943570  0.06678738  1
  O  O321  1  0.46224719  0.74872048  0.31768660  1
  O  O322  1  0.46205356  0.74864373  0.56588255  1
  O  O323  1  0.46151602  0.74970483  0.81629512  1
  O  O324  1  0.96402400  0.08285294  0.06834387  1
  O  O325  1  0.96421929  0.08353913  0.31817320  1
  O  O326  1  0.96491509  0.08399106  0.56797264  1
  O  O327  1  0.96409491  0.08230347  0.81685131  1
  O  O328  1  0.96350911  0.41591460  0.06872151  1
  O  O329  1  0.96309969  0.41601462  0.31591660  1
  O  O330  1  0.96368116  0.41583980  0.56850166  1
  O  O331  1  0.96393120  0.41633409  0.81593461  1
  O  O332  1  0.96363385  0.75062035  0.06657067  1
  O  O333  1  0.96277785  0.74959062  0.31591377  1
  O  O334  1  0.96209917  0.75193461  0.56734246  1
  O  O335  1  0.96304746  0.75242483  0.81665108  1
  O  O336  1  0.21251582  0.08479647  0.05629012  1
  O  O337  1  0.21365325  0.08321560  0.30872956  1
  O  O338  1  0.21431820  0.08307282  0.55680423  1
  O  O339  1  0.21398934  0.08417239  0.80595989  1
  O  O340  1  0.21336254  0.41740005  0.05632646  1
  O  O341  1  0.21288170  0.41720566  0.30727170  1
  O  O342  1  0.21225378  0.41518792  0.55768923  1
  O  O343  1  0.21365072  0.41792589  0.80826012  1
  O  O344  1  0.21307509  0.74945162  0.05611741  1
  O  O345  1  0.21203762  0.74852257  0.30711040  1
  O  O346  1  0.21213370  0.74889229  0.55735449  1
  O  O347  1  0.21273651  0.75131837  0.80759694  1
  O  O348  1  0.71299500  0.08352835  0.05771419  1
  O  O349  1  0.71380470  0.08583103  0.30805644  1
  O  O350  1  0.71434657  0.08460572  0.55851993  1
  O  O351  1  0.71396346  0.08358197  0.80692868  1
  O  O352  1  0.71414294  0.41601387  0.05675587  1
  O  O353  1  0.71264217  0.41468356  0.30895813  1
  O  O354  1  0.71352135  0.41576852  0.55827944  1
  O  O355  1  0.71405850  0.41776456  0.80851159  1
  O  O356  1  0.71202410  0.74892871  0.05838636  1
  O  O357  1  0.71282159  0.74881555  0.30744373  1
  O  O358  1  0.71165932  0.75021221  0.55864867  1
  O  O359  1  0.71142125  0.75035141  0.80835294  1
  O  O360  1  0.28723885  0.25108432  0.19372394  1
  O  O361  1  0.28685500  0.24875394  0.44211050  1
  O  O362  1  0.28660197  0.24998088  0.69282656  1
  O  O363  1  0.28751564  0.25037704  0.94072642  1
  O  O364  1  0.28590600  0.58470117  0.19212440  1
  O  O365  1  0.28608832  0.58198729  0.44279916  1
  O  O366  1  0.28596406  0.58275712  0.69351750  1
  O  O367  1  0.28520904  0.58321402  0.94280269  1
  O  O368  1  0.28715385  0.91734411  0.19256788  1
  O  O369  1  0.28546492  0.91683625  0.44298832  1
  O  O370  1  0.28569272  0.91532598  0.69113862  1
  O  O371  1  0.28680977  0.91588742  0.94060739  1
  O  O372  1  0.78704005  0.24911040  0.19394666  1
  O  O373  1  0.78788964  0.24904049  0.44276233  1
  O  O374  1  0.78771398  0.25075162  0.69254600  1
  O  O375  1  0.78826541  0.24940000  0.94259163  1
  O  O376  1  0.78748518  0.58375277  0.19159746  1
  O  O377  1  0.78739932  0.58158895  0.44309908  1
  O  O378  1  0.78717668  0.58149970  0.69248815  1
  O  O379  1  0.78716140  0.58303758  0.94246723  1
  O  O380  1  0.78819900  0.91657543  0.19182971  1
  O  O381  1  0.78768513  0.91829014  0.44275467  1
  O  O382  1  0.78628679  0.91969314  0.69220800  1
  O  O383  1  0.78738263  0.91798555  0.94138719  1
  O  O384  1  0.22877068  0.25088925  0.05643083  1
  O  O385  1  0.22725745  0.25085908  0.30924779  1
  O  O386  1  0.22821699  0.24824548  0.55814727  1
  O  O387  1  0.22716459  0.24937593  0.80871144  1
  O  O388  1  0.22662265  0.58349179  0.05937723  1
  O  O389  1  0.22698586  0.58456019  0.30814316  1
  O  O390  1  0.22704305  0.58119557  0.55850420  1
  O  O391  1  0.22651399  0.58276994  0.80926674  1
  O  O392  1  0.22782078  0.91655851  0.05605697  1
  O  O393  1  0.22757577  0.91773944  0.30787458  1
  O  O394  1  0.22638532  0.91582102  0.55905860  1
  O  O395  1  0.22727413  0.91530046  0.80740719  1
  O  O396  1  0.72893194  0.24806434  0.05799926  1
  O  O397  1  0.72783166  0.24960523  0.31019908  1
  O  O398  1  0.72913782  0.24864342  0.55872807  1
  O  O399  1  0.72862684  0.25157883  0.80835666  1
  O  O400  1  0.72820124  0.58430805  0.05825058  1
  O  O401  1  0.72849182  0.58239183  0.30701991  1
  O  O402  1  0.72803341  0.58092675  0.55845419  1
  O  O403  1  0.72796873  0.58148918  0.80798535  1
  O  O404  1  0.72869611  0.91717611  0.05687636  1
  O  O405  1  0.72878968  0.91729606  0.30682835  1
  O  O406  1  0.72818645  0.91897541  0.55799785  1
  O  O407  1  0.72758462  0.91956496  0.80818524  1
  O  O408  1  0.27232639  0.08362696  0.19284802  1
  O  O409  1  0.27325514  0.08226351  0.44053625  1
  O  O410  1  0.27336465  0.08404709  0.69002801  1
  O  O411  1  0.27170179  0.08504450  0.94075813  1
  O  O412  1  0.27223134  0.41904685  0.19162430  1
  O  O413  1  0.27141371  0.41483109  0.44216295  1
  O  O414  1  0.27228511  0.41793953  0.69207508  1
  O  O415  1  0.27259973  0.41763301  0.94041776  1
  O  O416  1  0.27147919  0.74856547  0.19154578  1
  O  O417  1  0.27116092  0.74811307  0.44160682  1
  O  O418  1  0.27119395  0.75115149  0.69130863  1
  O  O419  1  0.27230064  0.75031449  0.94009636  1
  O  O420  1  0.77285039  0.08540515  0.19235106  1
  O  O421  1  0.77295918  0.08551657  0.44247082  1
  O  O422  1  0.77344145  0.08434543  0.69112657  1
  O  O423  1  0.77220741  0.08226956  0.94220620  1
  O  O424  1  0.77176814  0.41585389  0.19370280  1
  O  O425  1  0.77228688  0.41402953  0.44243465  1
  O  O426  1  0.77283415  0.41831344  0.69249729  1
  O  O427  1  0.77339723  0.41598301  0.94083372  1
  O  O428  1  0.77179780  0.74787025  0.19164540  1
  O  O429  1  0.77124188  0.74987452  0.44383656  1
  O  O430  1  0.77085858  0.75025199  0.69345953  1
  O  O431  1  0.77100528  0.75003097  0.94305432  1
  O  O432  1  0.02324390  0.08248953  0.18430558  1
  O  O433  1  0.02335971  0.08372606  0.43436680  1
  O  O434  1  0.02391280  0.08269232  0.68409313  1
  O  O435  1  0.02289306  0.08142170  0.93274707  1
  O  O436  1  0.02284652  0.41554259  0.18453258  1
  O  O437  1  0.02194582  0.41600018  0.43152478  1
  O  O438  1  0.02331213  0.41642121  0.68409107  1
  O  O439  1  0.02261856  0.41625547  0.93165636  1
  O  O440  1  0.02244950  0.74949389  0.18243590  1
  O  O441  1  0.02146970  0.75079274  0.43145506  1
  O  O442  1  0.02144052  0.75197434  0.68263385  1
  O  O443  1  0.02229082  0.75210854  0.93232219  1
  O  O444  1  0.52164915  0.08159033  0.18353831  1
  O  O445  1  0.52207424  0.08184050  0.43361135  1
  O  O446  1  0.52205821  0.08211037  0.68319494  1
  O  O447  1  0.52159715  0.08358590  0.93155147  1
  O  O448  1  0.52163695  0.41846096  0.18374116  1
  O  O449  1  0.52129423  0.41869357  0.43381779  1
  O  O450  1  0.52221898  0.41686072  0.68459787  1
  O  O451  1  0.52224306  0.41875037  0.93312613  1
  O  O452  1  0.52084493  0.74943992  0.18181818  1
  O  O453  1  0.52150999  0.74875439  0.43306563  1
  O  O454  1  0.52081002  0.74935316  0.68136144  1
  O  O455  1  0.52096714  0.74925508  0.93131990  1
  O  O456  1  0.47856845  0.25060978  0.06879503  1
  O  O457  1  0.47816883  0.24991629  0.31925836  1
  O  O458  1  0.47833082  0.25035487  0.56917952  1
  O  O459  1  0.47808266  0.25159876  0.81740949  1
  O  O460  1  0.47753091  0.58087882  0.06718409  1
  O  O461  1  0.47747916  0.58123468  0.31749447  1
  O  O462  1  0.47657228  0.58249049  0.56615279  1
  O  O463  1  0.47733508  0.58123140  0.81716920  1
  O  O464  1  0.47844185  0.91658852  0.06845002  1
  O  O465  1  0.47771888  0.91813631  0.31727903  1
  O  O466  1  0.47768466  0.91783036  0.56704459  1
  O  O467  1  0.47786486  0.91831115  0.81644710  1
  O  O468  1  0.97897490  0.24928386  0.06830666  1
  O  O469  1  0.97731055  0.25003362  0.31583323  1
  O  O470  1  0.97866719  0.24790666  0.56689163  1
  O  O471  1  0.97766670  0.24960896  0.81564867  1
  O  O472  1  0.97817588  0.58367906  0.06765051  1
  O  O473  1  0.97707501  0.58363877  0.31522477  1
  O  O474  1  0.97799026  0.58326798  0.56801436  1
  O  O475  1  0.97768616  0.58277199  0.81676172  1
  O  O476  1  0.97796178  0.91701764  0.06493699  1
  O  O477  1  0.97845044  0.91862973  0.31657852  1
  O  O478  1  0.97790367  0.91949893  0.56645605  1
  O  O479  1  0.97759628  0.91766883  0.81514541  1
  O  O480  1  0.07423030  0.31306587  0.07516608  1
  O  O481  1  0.07273533  0.31285920  0.32426202  1
  O  O482  1  0.07352861  0.31243537  0.57462488  1
  O  O483  1  0.07283756  0.31302372  0.82300002  1
  O  O484  1  0.07387476  0.64643313  0.07470807  1
  O  O485  1  0.07200190  0.64740417  0.32289534  1
  O  O486  1  0.07323865  0.64684937  0.57570583  1
  O  O487  1  0.07315205  0.64640852  0.82442902  1
  O  O488  1  0.07299089  0.98067993  0.07264899  1
  O  O489  1  0.07361128  0.98206149  0.32352466  1
  O  O490  1  0.07351579  0.98175588  0.57432095  1
  O  O491  1  0.07321163  0.98023388  0.82326990  1
  O  O492  1  0.57428029  0.31354687  0.07594815  1
  O  O493  1  0.57337605  0.31373606  0.32630702  1
  O  O494  1  0.57384169  0.31396099  0.57624378  1
  O  O495  1  0.57289217  0.31551304  0.82438489  1
  O  O496  1  0.57245165  0.64522838  0.07470606  1
  O  O497  1  0.57256655  0.64540409  0.32523323  1
  O  O498  1  0.57126289  0.64652879  0.57368179  1
  O  O499  1  0.57247200  0.64539069  0.82463869  1
  O  O500  1  0.57412747  0.97996153  0.07520196  1
  O  O501  1  0.57311730  0.98123866  0.32445126  1
  O  O502  1  0.57283112  0.98154458  0.57384371  1
  O  O503  1  0.57310588  0.98144491  0.82370042  1
  O  O504  1  0.42637626  0.01855380  0.17616750  1
  O  O505  1  0.42685679  0.01838906  0.42685935  1
  O  O506  1  0.42692641  0.01850435  0.67610547  1
  O  O507  1  0.42577771  0.02032013  0.92467180  1
  O  O508  1  0.42647954  0.35445457  0.17567123  1
  O  O509  1  0.42649155  0.35418527  0.42607427  1
  O  O510  1  0.42725233  0.35309202  0.67727899  1
  O  O511  1  0.42728994  0.35433141  0.92544994  1
  O  O512  1  0.42551022  0.68580603  0.17482305  1
  O  O513  1  0.42673958  0.68480393  0.42612762  1
  O  O514  1  0.42507993  0.68618361  0.67444071  1
  O  O515  1  0.42532656  0.68630527  0.92438018  1
  O  O516  1  0.92782552  0.01939941  0.17648653  1
  O  O517  1  0.92828415  0.02021374  0.42676315  1
  O  O518  1  0.92806126  0.02053552  0.67612554  1
  O  O519  1  0.92759009  0.01867737  0.92547338  1
  O  O520  1  0.92741878  0.35250472  0.17676979  1
  O  O521  1  0.92661269  0.35270067  0.42453552  1
  O  O522  1  0.92858323  0.35219771  0.67672767  1
  O  O523  1  0.92734720  0.35267665  0.92419929  1
  O  O524  1  0.92746714  0.68617371  0.17463496  1
  O  O525  1  0.92615248  0.68695557  0.42471251  1
  O  O526  1  0.92567740  0.68889770  0.67531970  1
  O  O527  1  0.92704387  0.68832686  0.92411622  1
  O  O528  1  0.17670359  0.02072940  0.19995162  1
  O  O529  1  0.17776050  0.01935175  0.44886207  1
  O  O530  1  0.17887911  0.01987091  0.69790833  1
  O  O531  1  0.17646903  0.02120072  0.94852450  1
  O  O532  1  0.17744234  0.35422723  0.19888427  1
  O  O533  1  0.17669339  0.35100523  0.44924267  1
  O  O534  1  0.17711404  0.35413127  0.70059792  1
  O  O535  1  0.17824139  0.35333412  0.94785661  1
  O  O536  1  0.17614731  0.68565762  0.19794246  1
  O  O537  1  0.17621102  0.68471276  0.44912514  1
  O  O538  1  0.17595157  0.68743034  0.70027927  1
  O  O539  1  0.17757937  0.68625228  0.94759945  1
  O  O540  1  0.67754460  0.02163250  0.20067877  1
  O  O541  1  0.67774601  0.02162033  0.45020517  1
  O  O542  1  0.67812508  0.02101743  0.69802192  1
  O  O543  1  0.67686236  0.01940945  0.94943154  1
  O  O544  1  0.67637133  0.35211134  0.20025568  1
  O  O545  1  0.67703608  0.35125756  0.45060369  1
  O  O546  1  0.67778148  0.35415561  0.70059826  1
  O  O547  1  0.67837802  0.35248755  0.94861363  1
  O  O548  1  0.67654494  0.68482946  0.19942034  1
  O  O549  1  0.67577403  0.68632762  0.45076485  1
  O  O550  1  0.67530806  0.68683971  0.70044306  1
  O  O551  1  0.67552634  0.68625751  0.94995438  1
  O  O552  1  0.32431398  0.31399297  0.04882879  1
  O  O553  1  0.32236221  0.31441517  0.30215317  1
  O  O554  1  0.32357018  0.31176298  0.55037070  1
  O  O555  1  0.32128549  0.31417040  0.80127039  1
  O  O556  1  0.32166065  0.64709601  0.05062572  1
  O  O557  1  0.32180338  0.64820567  0.30109313  1
  O  O558  1  0.32241843  0.64493059  0.55082062  1
  O  O559  1  0.32069569  0.64748896  0.80153526  1
  O  O560  1  0.32306271  0.98021286  0.04820749  1
  O  O561  1  0.32293379  0.98068556  0.30136908  1
  O  O562  1  0.32131436  0.97946582  0.55186430  1
  O  O563  1  0.32253029  0.97899430  0.79874895  1
  O  O564  1  0.82429370  0.31212266  0.05100962  1
  O  O565  1  0.82242261  0.31345058  0.30198924  1
  O  O566  1  0.82444541  0.31244455  0.55069488  1
  O  O567  1  0.82351668  0.31481781  0.80080757  1
  O  O568  1  0.82323182  0.64755116  0.05046268  1
  O  O569  1  0.82376895  0.64637990  0.30028949  1
  O  O570  1  0.82320420  0.64518094  0.55098320  1
  O  O571  1  0.82298874  0.64588434  0.79989505  1
  O  O572  1  0.82449838  0.98018632  0.05000629  1
  O  O573  1  0.82460647  0.97998897  0.29976826  1
  O  O574  1  0.82346847  0.98211253  0.55109630  1
  O  O575  1  0.82307489  0.98242507  0.80081980  1
  O  O576  1  0.42644134  0.14586824  0.17640384  1
  O  O577  1  0.42683170  0.14555737  0.42576204  1
  O  O578  1  0.42672098  0.14565492  0.67491157  1
  O  O579  1  0.42641413  0.14726206  0.92433237  1
  O  O580  1  0.42632031  0.48158636  0.17665932  1
  O  O581  1  0.42562327  0.48121708  0.42690933  1
  O  O582  1  0.42699088  0.48045549  0.67735198  1
  O  O583  1  0.42671072  0.48121136  0.92569252  1
  O  O584  1  0.42533464  0.81279104  0.17509875  1
  O  O585  1  0.42579650  0.81205241  0.42525590  1
  O  O586  1  0.42570705  0.81308867  0.67343069  1
  O  O587  1  0.42589728  0.81343379  0.92434860  1
  O  O588  1  0.92884701  0.14667885  0.17699926  1
  O  O589  1  0.92840562  0.14733639  0.42659216  1
  O  O590  1  0.92972758  0.14751071  0.67684781  1
  O  O591  1  0.92781088  0.14557101  0.92507874  1
  O  O592  1  0.92834086  0.48006567  0.17662538  1
  O  O593  1  0.92653366  0.47941756  0.42425071  1
  O  O594  1  0.92817609  0.47976906  0.67656595  1
  O  O595  1  0.92706818  0.47939529  0.92442020  1
  O  O596  1  0.92705314  0.81328374  0.17473670  1
  O  O597  1  0.92599613  0.81387282  0.42337825  1
  O  O598  1  0.92671199  0.81613490  0.67561393  1
  O  O599  1  0.92716571  0.81553254  0.92551320  1
  O  O600  1  0.07458239  0.18637941  0.07583651  1
  O  O601  1  0.07170426  0.18547114  0.32297890  1
  O  O602  1  0.07413150  0.18549138  0.57403963  1
  O  O603  1  0.07230047  0.18558290  0.82274977  1
  O  O604  1  0.07325705  0.51966834  0.07568558  1
  O  O605  1  0.07192577  0.51980313  0.32284909  1
  O  O606  1  0.07348635  0.51985474  0.57515537  1
  O  O607  1  0.07258408  0.51910004  0.82344253  1
  O  O608  1  0.07278538  0.85332815  0.07307192  1
  O  O609  1  0.07371629  0.85503391  0.32476348  1
  O  O610  1  0.07262542  0.85480679  0.57420984  1
  O  O611  1  0.07201116  0.85312110  0.82236753  1
  O  O612  1  0.57366645  0.18653338  0.07538299  1
  O  O613  1  0.57377219  0.18671146  0.32634128  1
  O  O614  1  0.57369826  0.18706130  0.57692618  1
  O  O615  1  0.57378159  0.18829500  0.82507444  1
  O  O616  1  0.57317919  0.51815380  0.07391087  1
  O  O617  1  0.57284027  0.51847659  0.32533154  1
  O  O618  1  0.57187388  0.51908149  0.57381455  1
  O  O619  1  0.57290195  0.51841045  0.82375707  1
  O  O620  1  0.57372057  0.85304741  0.07543005  1
  O  O621  1  0.57284529  0.85400661  0.32544308  1
  O  O622  1  0.57315212  0.85445660  0.57493233  1
  O  O623  1  0.57302163  0.85406917  0.82378210  1
  O  O624  1  0.32407828  0.18729827  0.04945602  1
  O  O625  1  0.32199253  0.18684424  0.30190803  1
  O  O626  1  0.32334983  0.18489490  0.55047346  1
  O  O627  1  0.32284458  0.18668912  0.80081135  1
  O  O628  1  0.32134533  0.51982945  0.05131893  1
  O  O629  1  0.32249647  0.52129849  0.30011789  1
  O  O630  1  0.32191069  0.51780908  0.55110688  1
  O  O631  1  0.32226394  0.52023526  0.80222310  1
  O  O632  1  0.32340446  0.85329241  0.04927153  1
  O  O633  1  0.32261249  0.85355644  0.30044846  1
  O  O634  1  0.32125710  0.85203911  0.55036056  1
  O  O635  1  0.32238691  0.85202167  0.79974237  1
  O  O636  1  0.82408912  0.18500696  0.05090105  1
  O  O637  1  0.82304644  0.18609590  0.30230339  1
  O  O638  1  0.82432369  0.18560348  0.55156295  1
  O  O639  1  0.82392892  0.18768335  0.80038738  1
  O  O640  1  0.82360820  0.52026838  0.05054864  1
  O  O641  1  0.82405724  0.51950901  0.29916245  1
  O  O642  1  0.82342955  0.51785006  0.55124607  1
  O  O643  1  0.82357033  0.51886821  0.80159114  1
  O  O644  1  0.82382636  0.85336140  0.04880654  1
  O  O645  1  0.82377108  0.85289423  0.30000558  1
  O  O646  1  0.82343298  0.85486725  0.55072953  1
  O  O647  1  0.82242568  0.85519666  0.79945061  1
  O  O648  1  0.17722719  0.14750502  0.20094257  1
  O  O649  1  0.17889540  0.14658396  0.44804561  1
  O  O650  1  0.17802808  0.14720908  0.69749890  1
  O  O651  1  0.17650856  0.14834955  0.94779712  1
  O  O652  1  0.17681382  0.48131487  0.19905129  1
  O  O653  1  0.17568950  0.47807622  0.44952555  1
  O  O654  1  0.17721081  0.48110947  0.69947475  1
  O  O655  1  0.17697271  0.48068374  0.94831042  1
  O  O656  1  0.17646655  0.81275225  0.19950527  1
  O  O657  1  0.17580700  0.81189093  0.44927889  1
  O  O658  1  0.17618526  0.81436450  0.69856696  1
  O  O659  1  0.17724123  0.81367214  0.94812168  1
  O  O660  1  0.67767375  0.14874613  0.19909404  1
  O  O661  1  0.67759666  0.14848151  0.45031320  1
  O  O662  1  0.67863818  0.14835359  0.69932917  1
  O  O663  1  0.67692159  0.14639077  0.94932668  1
  O  O664  1  0.67627569  0.47890086  0.20113345  1
  O  O665  1  0.67714663  0.47841951  0.45005319  1
  O  O666  1  0.67741239  0.48096899  0.69959655  1
  O  O667  1  0.67867561  0.48012686  0.94897468  1
  O  O668  1  0.67670888  0.81222842  0.19974501  1
  O  O669  1  0.67587211  0.81351389  0.45025603  1
  O  O670  1  0.67551276  0.81400028  0.70035414  1
  O  O671  1  0.67549120  0.81317068  0.95066817  1
