# generated using pymatgen
data_Na2MnFe(PO4)2
_symmetry_space_group_name_H-M   'P 1'
_cell_length_a   22.34652210
_cell_length_b   20.09673463
_cell_length_c   19.44674339
_cell_angle_alpha   89.97197111
_cell_angle_beta   89.98482613
_cell_angle_gamma   89.95643337
_symmetry_Int_Tables_number   1
_chemical_formula_structural   Na2MnFe(PO4)2
_chemical_formula_sum   'Na96 Mn48 Fe48 P96 O384'
_cell_volume   8733.37542714
_cell_formula_units_Z   48
loop_
 _symmetry_equiv_pos_site_id
 _symmetry_equiv_pos_as_xyz
  1  'x, y, z'
loop_
 _atom_site_type_symbol
 _atom_site_label
 _atom_site_symmetry_multiplicity
 _atom_site_fract_x
 _atom_site_fract_y
 _atom_site_fract_z
 _atom_site_occupancy
  Na  Na0  1  0.14026101  0.25064355  0.24320741  1
  Na  Na1  1  0.14073160  0.24992069  0.49210982  1
  Na  Na2  1  0.14069998  0.25038232  0.74348850  1
  Na  Na3  1  0.14034119  0.25102804  0.99329155  1
  Na  Na4  1  0.14068350  0.58402776  0.24426417  1
  Na  Na5  1  0.14097967  0.58157899  0.49391489  1
  Na  Na6  1  0.14009453  0.58236043  0.74266287  1
  Na  Na7  1  0.13981911  0.58360362  0.99354684  1
  Na  Na8  1  0.14061633  0.91757795  0.24495664  1
  Na  Na9  1  0.14042336  0.91583625  0.49294371  1
  Na  Na10  1  0.14087273  0.91704786  0.74398788  1
  Na  Na11  1  0.14086681  0.91783375  0.99466364  1
  Na  Na12  1  0.63993092  0.24938775  0.24405928  1
  Na  Na13  1  0.64043347  0.24956204  0.49317371  1
  Na  Na14  1  0.64033441  0.24914810  0.74421654  1
  Na  Na15  1  0.64010175  0.24963110  0.99450286  1
  Na  Na16  1  0.64044876  0.58357371  0.24448194  1
  Na  Na17  1  0.64054597  0.58452705  0.49371321  1
  Na  Na18  1  0.63967448  0.58331440  0.74285715  1
  Na  Na19  1  0.63992471  0.58270740  0.99304456  1
  Na  Na20  1  0.64033449  0.91840360  0.24493549  1
  Na  Na21  1  0.64032151  0.91736088  0.49201077  1
  Na  Na22  1  0.64030803  0.91617398  0.74345767  1
  Na  Na23  1  0.64034775  0.91829754  0.99408295  1
  Na  Na24  1  0.35989352  0.08263030  0.00702390  1
  Na  Na25  1  0.35967846  0.08331155  0.25705471  1
  Na  Na26  1  0.35952609  0.08249404  0.50559764  1
  Na  Na27  1  0.35939943  0.08296126  0.75650014  1
  Na  Na28  1  0.35920441  0.41688460  0.00474740  1
  Na  Na29  1  0.35898589  0.41692078  0.25719585  1
  Na  Na30  1  0.35947193  0.41552934  0.50613396  1
  Na  Na31  1  0.35999615  0.41560432  0.75597084  1
  Na  Na32  1  0.35937942  0.74967569  0.00694026  1
  Na  Na33  1  0.35913058  0.75045031  0.25691073  1
  Na  Na34  1  0.35993342  0.74800240  0.50734177  1
  Na  Na35  1  0.35982138  0.74957519  0.75660575  1
  Na  Na36  1  0.85960821  0.08556271  0.00607735  1
  Na  Na37  1  0.85983071  0.08511401  0.25762016  1
  Na  Na38  1  0.86031716  0.08372591  0.50540904  1
  Na  Na39  1  0.85963926  0.08350546  0.75477178  1
  Na  Na40  1  0.85975321  0.41513134  0.00644488  1
  Na  Na41  1  0.85954620  0.41651989  0.25666866  1
  Na  Na42  1  0.85953328  0.41694618  0.50541793  1
  Na  Na43  1  0.86021040  0.41539591  0.75744618  1
  Na  Na44  1  0.85979073  0.74976613  0.00570854  1
  Na  Na45  1  0.85914577  0.75112484  0.25695833  1
  Na  Na46  1  0.85969470  0.75125912  0.50646940  1
  Na  Na47  1  0.85988201  0.74900060  0.75515256  1
  Na  Na48  1  0.11010814  0.08492339  0.11881813  1
  Na  Na49  1  0.11023609  0.08413610  0.36796480  1
  Na  Na50  1  0.10968654  0.08256289  0.61767474  1
  Na  Na51  1  0.11039025  0.08427479  0.86852954  1
  Na  Na52  1  0.10983056  0.41841166  0.11955526  1
  Na  Na53  1  0.11008191  0.41601127  0.36728660  1
  Na  Na54  1  0.11031312  0.41569966  0.61841168  1
  Na  Na55  1  0.10930029  0.41756331  0.86793549  1
  Na  Na56  1  0.10958610  0.75039085  0.11932226  1
  Na  Na57  1  0.10989066  0.74959103  0.36915043  1
  Na  Na58  1  0.11014735  0.75007484  0.61856312  1
  Na  Na59  1  0.10949261  0.74886650  0.86902747  1
  Na  Na60  1  0.60985481  0.08369308  0.11964328  1
  Na  Na61  1  0.60972126  0.08273465  0.36819744  1
  Na  Na62  1  0.60968493  0.08296761  0.61788134  1
  Na  Na63  1  0.60985828  0.08403411  0.86930815  1
  Na  Na64  1  0.60927637  0.41567635  0.11876349  1
  Na  Na65  1  0.60937417  0.41480777  0.36861011  1
  Na  Na66  1  0.60972410  0.41708462  0.61945444  1
  Na  Na67  1  0.60916292  0.41660866  0.86832879  1
  Na  Na68  1  0.60932008  0.75081627  0.11988875  1
  Na  Na69  1  0.61017654  0.75085241  0.36921159  1
  Na  Na70  1  0.60921785  0.74992874  0.61739555  1
  Na  Na71  1  0.60905536  0.74899124  0.86872110  1
  Na  Na72  1  0.39012334  0.24843866  0.13149042  1
  Na  Na73  1  0.38971829  0.24835812  0.38198604  1
  Na  Na74  1  0.38993267  0.25115845  0.63071825  1
  Na  Na75  1  0.39032540  0.24918670  0.88103701  1
  Na  Na76  1  0.38989680  0.58347287  0.13116338  1
  Na  Na77  1  0.38990740  0.58275324  0.38278986  1
  Na  Na78  1  0.39057356  0.58219590  0.63177097  1
  Na  Na79  1  0.38994770  0.58269703  0.88028402  1
  Na  Na80  1  0.38994320  0.91783592  0.13205602  1
  Na  Na81  1  0.39062008  0.91615084  0.38205828  1
  Na  Na82  1  0.39028466  0.91494331  0.63108387  1
  Na  Na83  1  0.39032370  0.91694492  0.88256981  1
  Na  Na84  1  0.89014137  0.25168097  0.13204987  1
  Na  Na85  1  0.89008572  0.24972739  0.38067806  1
  Na  Na86  1  0.89065251  0.24993046  0.63052519  1
  Na  Na87  1  0.88977855  0.25089986  0.88159138  1
  Na  Na88  1  0.89040945  0.58329815  0.13125719  1
  Na  Na89  1  0.89028407  0.58380499  0.38152505  1
  Na  Na90  1  0.89060267  0.58279460  0.63168292  1
  Na  Na91  1  0.89065981  0.58249504  0.88018830  1
  Na  Na92  1  0.89058786  0.91797272  0.13157869  1
  Na  Na93  1  0.89039838  0.91805645  0.38299520  1
  Na  Na94  1  0.89039000  0.91668471  0.62971722  1
  Na  Na95  1  0.89059965  0.91617991  0.88031246  1
  Mn  Mn96  1  0.75103006  0.00176768  0.12484205  1
  Mn  Mn97  1  -0.00032539  0.33276124  0.49908401  1
  Mn  Mn98  1  0.74996927  0.49871984  0.12492769  1
  Mn  Mn99  1  0.74969899  0.50039257  0.37528533  1
  Mn  Mn100  1  0.25023560  0.33438545  0.12423556  1
  Mn  Mn101  1  0.25021549  0.83274080  0.37521422  1
  Mn  Mn102  1  0.24991913  0.66651326  0.12544522  1
  Mn  Mn103  1  0.49961858  0.83341853  0.00027367  1
  Mn  Mn104  1  0.24971932  0.83424127  0.87623241  1
  Mn  Mn105  1  0.75001036  0.83438868  0.12556747  1
  Mn  Mn106  1  0.75053234  0.33275400  0.62509826  1
  Mn  Mn107  1  0.49949465  0.66678587  0.25065317  1
  Mn  Mn108  1  0.49891829  0.33155195  0.24918294  1
  Mn  Mn109  1  0.24960714  0.33342104  0.87452092  1
  Mn  Mn110  1  0.75032902  0.49877301  0.87480094  1
  Mn  Mn111  1  0.49985963  0.49948631  0.25031261  1
  Mn  Mn112  1  0.74982170  0.83382654  0.62416362  1
  Mn  Mn113  1  0.24940479  0.66590350  0.87563249  1
  Mn  Mn114  1  0.00060651  0.00159174  0.25092176  1
  Mn  Mn115  1  0.75086188  0.00106433  0.87471489  1
  Mn  Mn116  1  0.74961343  0.66629806  0.87503844  1
  Mn  Mn117  1  0.50011695  0.49918081  0.50069344  1
  Mn  Mn118  1  0.74977790  0.83335047  0.87397773  1
  Mn  Mn119  1  0.74960789  0.50024628  0.62516278  1
  Mn  Mn120  1  0.50052962  0.83227430  0.75063140  1
  Mn  Mn121  1  0.25033936  0.16615845  0.12461772  1
  Mn  Mn122  1  0.50000983  0.16630510  0.50022000  1
  Mn  Mn123  1  0.24970710  -0.00087230  0.62526921  1
  Mn  Mn124  1  0.00035856  -0.00006472  0.74904426  1
  Mn  Mn125  1  0.00109988  0.66660850  0.50013521  1
  Mn  Mn126  1  0.49922300  0.83417529  0.24972891  1
  Mn  Mn127  1  0.00007947  0.49933153  0.50039203  1
  Mn  Mn128  1  -0.00098808  0.66659042  0.25028574  1
  Mn  Mn129  1  -0.00011601  0.16891112  -0.00076640  1
  Mn  Mn130  1  0.00039828  0.83281591  0.00026473  1
  Mn  Mn131  1  0.49881308  0.33253060  -0.00017833  1
  Mn  Mn132  1  -0.00003132  0.00116282  0.00019193  1
  Mn  Mn133  1  0.00089389  0.83236268  0.75029262  1
  Mn  Mn134  1  -0.00034824  0.16765128  0.74952147  1
  Mn  Mn135  1  0.49937472  0.50068590  -0.00101797  1
  Mn  Mn136  1  0.74919697  0.66680860  0.12525966  1
  Mn  Mn137  1  0.24939691  0.16668016  0.62446488  1
  Mn  Mn138  1  0.75052354  0.16596811  0.62418119  1
  Mn  Mn139  1  0.49903041  0.16709365  0.74909714  1
  Mn  Mn140  1  -0.00010463  0.83399830  0.24995190  1
  Mn  Mn141  1  0.50001133  -0.00033648  0.75011435  1
  Mn  Mn142  1  0.25023087  0.66553247  0.62545150  1
  Mn  Mn143  1  -0.00018920  0.50018625  -0.00047119  1
  Fe  Fe144  1  0.00014265  0.50022946  0.24970799  1
  Fe  Fe145  1  -0.00011665  0.83317991  0.50007613  1
  Fe  Fe146  1  0.74992507  0.16717645  0.37491116  1
  Fe  Fe147  1  0.74955949  0.16704329  0.87542350  1
  Fe  Fe148  1  -0.00026853  0.66624438  -0.00019995  1
  Fe  Fe149  1  0.49983668  0.16540714  0.25086494  1
  Fe  Fe150  1  0.25043032  0.49873541  0.62378231  1
  Fe  Fe151  1  0.74917098  0.33280417  0.12574565  1
  Fe  Fe152  1  0.49966540  -0.00044221  0.49964602  1
  Fe  Fe153  1  0.00110576  0.16712171  0.49969194  1
  Fe  Fe154  1  0.00011089  0.33445651  0.00040874  1
  Fe  Fe155  1  0.00046999  0.00045018  0.49974609  1
  Fe  Fe156  1  0.00017120  0.49941258  0.75025592  1
  Fe  Fe157  1  0.25013837  0.50071978  0.12582044  1
  Fe  Fe158  1  0.25056424  -0.00053949  0.37511021  1
  Fe  Fe159  1  0.50042012  0.33327260  0.75035277  1
  Fe  Fe160  1  0.25036858  0.16644303  0.87461022  1
  Fe  Fe161  1  0.25028145  0.49982981  0.37539407  1
  Fe  Fe162  1  -0.00004664  0.16763147  0.24968999  1
  Fe  Fe163  1  0.50040640  0.66615147  0.50059335  1
  Fe  Fe164  1  0.50005222  0.00051167  0.00111365  1
  Fe  Fe165  1  0.50014938  0.50011090  0.74960596  1
  Fe  Fe166  1  0.25064457  0.00010654  0.87531260  1
  Fe  Fe167  1  0.75023468  0.00112533  0.37481735  1
  Fe  Fe168  1  0.25000757  0.66633941  0.37533502  1
  Fe  Fe169  1  0.74993681  0.16778438  0.12591798  1
  Fe  Fe170  1  0.24949851  0.49946841  0.87425922  1
  Fe  Fe171  1  0.50013068  0.16603902  0.00034525  1
  Fe  Fe172  1  0.25019179  0.83267169  0.62522053  1
  Fe  Fe173  1  0.74954944  0.00039244  0.62410271  1
  Fe  Fe174  1  -0.00000164  0.33376367  0.24989069  1
  Fe  Fe175  1  0.24993839  0.16661084  0.37457477  1
  Fe  Fe176  1  0.24970996  0.83396284  0.12595943  1
  Fe  Fe177  1  0.49991659  0.83295048  0.50026871  1
  Fe  Fe178  1  0.25000295  0.33378420  0.37436318  1
  Fe  Fe179  1  0.00069665  0.33338794  0.74965551  1
  Fe  Fe180  1  0.75060796  0.66742740  0.37488071  1
  Fe  Fe181  1  0.49985588  0.66642364  -0.00029304  1
  Fe  Fe182  1  0.50008238  0.00012466  0.25038616  1
  Fe  Fe183  1  0.24981468  0.00046592  0.12550960  1
  Fe  Fe184  1  0.74946090  0.33337637  0.37499407  1
  Fe  Fe185  1  0.25037768  0.33295347  0.62400525  1
  Fe  Fe186  1  0.49952945  0.66643412  0.74966947  1
  Fe  Fe187  1  0.00013112  0.66623452  0.74940242  1
  Fe  Fe188  1  0.75028646  0.83443136  0.37522335  1
  Fe  Fe189  1  0.74953376  0.33226572  0.87598153  1
  Fe  Fe190  1  0.75012536  0.66724735  0.62418314  1
  Fe  Fe191  1  0.50020198  0.33282203  0.50025568  1
  P  P192  1  0.04232408  0.25249736  0.10312366  1
  P  P193  1  0.04149592  0.24979303  0.35138836  1
  P  P194  1  0.04278297  0.24940346  0.60216962  1
  P  P195  1  0.04248384  0.25219060  0.85251646  1
  P  P196  1  0.04201513  0.58410634  0.10260294  1
  P  P197  1  0.04243216  0.58209325  0.35228414  1
  P  P198  1  0.04307616  0.58271550  0.60412793  1
  P  P199  1  0.04139616  0.58348493  0.85148441  1
  P  P200  1  0.04295330  0.91756048  0.10335569  1
  P  P201  1  0.04240973  0.91700856  0.35446029  1
  P  P202  1  0.04175657  0.91639243  0.60101151  1
  P  P203  1  0.04322304  0.91657013  0.85303779  1
  P  P204  1  0.54143455  0.24787789  0.10285427  1
  P  P205  1  0.54167199  0.24816411  0.35282312  1
  P  P206  1  0.54234818  0.25139228  0.60287939  1
  P  P207  1  0.54182389  0.25014464  0.85271043  1
  P  P208  1  0.54215673  0.58438138  0.10224792  1
  P  P209  1  0.54243259  0.58313038  0.35404112  1
  P  P210  1  0.54217470  0.58397359  0.60333954  1
  P  P211  1  0.54106137  0.58377207  0.85141040  1
  P  P212  1  0.54206504  0.91839499  0.10315301  1
  P  P213  1  0.54163896  0.91757986  0.35333768  1
  P  P214  1  0.54146374  0.91650586  0.60120905  1
  P  P215  1  0.54282182  0.91666205  0.85387951  1
  P  P216  1  0.45849229  0.08316339  0.14838521  1
  P  P217  1  0.45798904  0.08175499  0.39706057  1
  P  P218  1  0.45689000  0.08249785  0.64620264  1
  P  P219  1  0.45859701  0.08308923  0.89885004  1
  P  P220  1  0.45644372  0.41638541  0.14671811  1
  P  P221  1  0.45770113  0.41460306  0.39788432  1
  P  P222  1  0.45913425  0.41602827  0.64831405  1
  P  P223  1  0.45727959  0.41652898  0.89556574  1
  P  P224  1  0.45653585  0.75001636  0.14674666  1
  P  P225  1  0.45861982  0.74960446  0.39911838  1
  P  P226  1  0.45805138  0.74853558  0.64694670  1
  P  P227  1  0.45725757  0.74827348  0.89745824  1
  P  P228  1  0.95771445  0.08582133  0.14774795  1
  P  P229  1  0.95944352  0.08473162  0.39809845  1
  P  P230  1  0.95785695  0.08367354  0.64528721  1
  P  P231  1  0.95724953  0.08439307  0.89643497  1
  P  P232  1  0.95866131  0.41716824  0.14819821  1
  P  P233  1  0.95749271  0.41669171  0.39578238  1
  P  P234  1  0.95857403  0.41608801  0.64843818  1
  P  P235  1  0.95782793  0.41555162  0.89670225  1
  P  P236  1  0.95669259  0.75000113  0.14661420  1
  P  P237  1  0.95771716  0.75098119  0.39793040  1
  P  P238  1  0.95831360  0.74920763  0.64686453  1
  P  P239  1  0.95798066  0.74805329  0.89701543  1
  P  P240  1  0.20820502  0.08255659  0.22838150  1
  P  P241  1  0.20883427  0.08281234  0.47615742  1
  P  P242  1  0.20729828  0.08335687  0.72866542  1
  P  P243  1  0.20881621  0.08320956  0.97676003  1
  P  P244  1  0.20843896  0.41825661  0.22821840  1
  P  P245  1  0.20853007  0.41613103  0.47666326  1
  P  P246  1  0.20905103  0.41633722  0.72592075  1
  P  P247  1  0.20724085  0.41836407  0.97729880  1
  P  P248  1  0.20782191  0.75118054  0.22815984  1
  P  P249  1  0.20808512  0.74810363  0.47806794  1
  P  P250  1  0.20797743  0.75083135  0.72776005  1
  P  P251  1  0.20714336  0.75041038  0.97928399  1
  P  P252  1  0.70859483  0.08528800  0.22852229  1
  P  P253  1  0.70843689  0.08355993  0.47637095  1
  P  P254  1  0.70748785  0.08237938  0.72721413  1
  P  P255  1  0.70798023  0.08543422  0.97806282  1
  P  P256  1  0.70727575  0.41488434  0.22829443  1
  P  P257  1  0.70756965  0.41575885  0.47744336  1
  P  P258  1  0.70757042  0.41551960  0.72883588  1
  P  P259  1  0.70736979  0.41454591  0.97795967  1
  P  P260  1  0.70729126  0.75087199  0.22945970  1
  P  P261  1  0.70929880  0.75033844  0.47660272  1
  P  P262  1  0.70737576  0.74891925  0.72648701  1
  P  P263  1  0.70666434  0.75052394  0.97803928  1
  P  P264  1  0.29260113  0.24983059  0.02115702  1
  P  P265  1  0.29123969  0.25029269  0.27318413  1
  P  P266  1  0.29169227  0.25075610  0.52103512  1
  P  P267  1  0.29225563  0.24890614  0.77199279  1
  P  P268  1  0.29180060  0.58165385  0.02234750  1
  P  P269  1  0.29176134  0.58335449  0.27372294  1
  P  P270  1  0.29248508  0.58115389  0.52187825  1
  P  P271  1  0.29154514  0.58144145  0.77196666  1
  P  P272  1  0.29146950  0.91743334  0.02398951  1
  P  P273  1  0.29225443  0.91773325  0.27227669  1
  P  P274  1  0.29204052  0.91478975  0.52245731  1
  P  P275  1  0.29266606  0.91747087  0.77289940  1
  P  P276  1  0.79123107  0.25037035  0.02351078  1
  P  P277  1  0.79092479  0.25047470  0.27311187  1
  P  P278  1  0.79288450  0.24984935  0.52056457  1
  P  P279  1  0.79152874  0.24930480  0.77369910  1
  P  P280  1  0.79260659  0.58270012  0.02206053  1
  P  P281  1  0.79224013  0.58442860  0.27280279  1
  P  P282  1  0.79229904  0.58503776  0.52213770  1
  P  P283  1  0.79241225  0.58323734  0.77122091  1
  P  P284  1  0.79336026  0.91758844  0.02183442  1
  P  P285  1  0.79201105  0.91801092  0.27379477  1
  P  P286  1  0.79172381  0.91878157  0.52116834  1
  P  P287  1  0.79288735  0.91713730  0.77066025  1
  O  O288  1  0.03688930  0.25174556  0.18300395  1
  O  O289  1  0.03695912  0.24944875  0.43138533  1
  O  O290  1  0.03761076  0.25016326  0.68210354  1
  O  O291  1  0.03738249  0.25278238  0.93249603  1
  O  O292  1  0.03665417  0.58333520  0.18252055  1
  O  O293  1  0.03766573  0.58226278  0.43228839  1
  O  O294  1  0.03771373  0.58272214  0.68403372  1
  O  O295  1  0.03656688  0.58352929  0.93152133  1
  O  O296  1  0.03781662  0.91781537  0.18337289  1
  O  O297  1  0.03694140  0.91652640  0.43438420  1
  O  O298  1  0.03723060  0.91642602  0.68104774  1
  O  O299  1  0.03801205  0.91658379  0.93298528  1
  O  O300  1  0.53612830  0.24740626  0.18279371  1
  O  O301  1  0.53678570  0.24896941  0.43278922  1
  O  O302  1  0.53700688  0.25136309  0.68282018  1
  O  O303  1  0.53634611  0.24926020  0.93263490  1
  O  O304  1  0.53710561  0.58386934  0.18226334  1
  O  O305  1  0.53725212  0.58324526  0.43401968  1
  O  O306  1  0.53682136  0.58400004  0.68322828  1
  O  O307  1  0.53628449  0.58401101  0.93142512  1
  O  O308  1  0.53662120  0.91850176  0.18312142  1
  O  O309  1  0.53619654  0.91724075  0.43322136  1
  O  O310  1  0.53717815  0.91598554  0.68127438  1
  O  O311  1  0.53757443  0.91703005  0.93380617  1
  O  O312  1  0.46356877  0.08334948  0.06845601  1
  O  O313  1  0.46348182  0.08197059  0.31715896  1
  O  O314  1  0.46217495  0.08207035  0.56626364  1
  O  O315  1  0.46317987  0.08319381  0.81883138  1
  O  O316  1  0.46137787  0.41667931  0.06671962  1
  O  O317  1  0.46262320  0.41488127  0.31790925  1
  O  O318  1  0.46399119  0.41574593  0.56831201  1
  O  O319  1  0.46307899  0.41643353  0.81570988  1
  O  O320  1  0.46166131  0.74954154  0.06681154  1
  O  O321  1  0.46283632  0.75033341  0.31907588  1
  O  O322  1  0.46364535  0.74885163  0.56708029  1
  O  O323  1  0.46265171  0.74827737  0.81746212  1
  O  O324  1  0.96255727  0.08574600  0.06776378  1
  O  O325  1  0.96420015  0.08512771  0.31808071  1
  O  O326  1  0.96365590  0.08381924  0.56539154  1
  O  O327  1  0.96235960  0.08430119  0.81644353  1
  O  O328  1  0.96347298  0.41659726  0.06819141  1
  O  O329  1  0.96263613  0.41716014  0.31589093  1
  O  O330  1  0.96303554  0.41621242  0.56839473  1
  O  O331  1  0.96335659  0.41545929  0.81682960  1
  O  O332  1  0.96194041  0.74942415  0.06664617  1
  O  O333  1  0.96234300  0.75082453  0.31791873  1
  O  O334  1  0.96386662  0.75017408  0.56692713  1
  O  O335  1  0.96354118  0.74787406  0.81704592  1
  O  O336  1  0.21388388  0.08287987  0.05678513  1
  O  O337  1  0.21374205  0.08270886  0.30821722  1
  O  O338  1  0.21338312  0.08311979  0.55615635  1
  O  O339  1  0.21275902  0.08343896  0.80856809  1
  O  O340  1  0.21259257  0.41845699  0.05721673  1
  O  O341  1  0.21407783  0.41769425  0.30808091  1
  O  O342  1  0.21385988  0.41583846  0.55657698  1
  O  O343  1  0.21365200  0.41643799  0.80590325  1
  O  O344  1  0.21249302  0.75067429  0.05923926  1
  O  O345  1  0.21325217  0.75030055  0.30810107  1
  O  O346  1  0.21326056  0.74858106  0.55799800  1
  O  O347  1  0.21287736  0.75069399  0.80775011  1
  O  O348  1  0.71330146  0.08574340  0.05800869  1
  O  O349  1  0.71400706  0.08491937  0.30841345  1
  O  O350  1  0.71332629  0.08284873  0.55635581  1
  O  O351  1  0.71267678  0.08320204  0.80712784  1
  O  O352  1  0.71229369  0.41455541  0.05799320  1
  O  O353  1  0.71248978  0.41489161  0.30826457  1
  O  O354  1  0.71277718  0.41620246  0.55740970  1
  O  O355  1  0.71275266  0.41484976  0.80881270  1
  O  O356  1  0.71159352  0.75065572  0.05805334  1
  O  O357  1  0.71305899  0.75077550  0.30937369  1
  O  O358  1  0.71403331  0.75015589  0.55660434  1
  O  O359  1  0.71216851  0.74915545  0.80646728  1
  O  O360  1  0.28672390  0.25004139  0.19315832  1
  O  O361  1  0.28628812  0.25084689  0.44113797  1
  O  O362  1  0.28723801  0.24928415  0.69203265  1
  O  O363  1  0.28716162  0.24929265  0.94124166  1
  O  O364  1  0.28666441  0.58338894  0.19371946  1
  O  O365  1  0.28712663  0.58162902  0.44200303  1
  O  O366  1  0.28635866  0.58135819  0.69201294  1
  O  O367  1  0.28632804  0.58158986  0.94239914  1
  O  O368  1  0.28653177  0.91754640  0.19244922  1
  O  O369  1  0.28690649  0.91529635  0.44253588  1
  O  O370  1  0.28738114  0.91655358  0.69296764  1
  O  O371  1  0.28652456  0.91798259  0.94399612  1
  O  O372  1  0.78577344  0.25033984  0.19319938  1
  O  O373  1  0.78733288  0.25028231  0.44070028  1
  O  O374  1  0.78713506  0.24929155  0.69365754  1
  O  O375  1  0.78598268  0.25047318  0.94361817  1
  O  O376  1  0.78699066  0.58386601  0.19287310  1
  O  O377  1  0.78698261  0.58514943  0.44216337  1
  O  O378  1  0.78721760  0.58383850  0.69124007  1
  O  O379  1  0.78758952  0.58243602  0.94205535  1
  O  O380  1  0.78754844  0.91783528  0.19375642  1
  O  O381  1  0.78630727  0.91865373  0.44126322  1
  O  O382  1  0.78731053  0.91745170  0.69069179  1
  O  O383  1  0.78837025  0.91757381  0.94183375  1
  O  O384  1  0.22840935  0.25016914  0.05685851  1
  O  O385  1  0.22701211  0.25103334  0.30876653  1
  O  O386  1  0.22763146  0.25124185  0.55729105  1
  O  O387  1  0.22802589  0.24859565  0.80778346  1
  O  O388  1  0.22764150  0.58179196  0.05841110  1
  O  O389  1  0.22763277  0.58345289  0.30983078  1
  O  O390  1  0.22836586  0.58092450  0.55802125  1
  O  O391  1  0.22733305  0.58143205  0.80789360  1
  O  O392  1  0.22735310  0.91761409  0.06013151  1
  O  O393  1  0.22821101  0.91782868  0.30867558  1
  O  O394  1  0.22776681  0.91443330  0.55821632  1
  O  O395  1  0.22838198  0.91855422  0.80863600  1
  O  O396  1  0.72713846  0.25013006  0.05996706  1
  O  O397  1  0.72692181  0.25020360  0.30951324  1
  O  O398  1  0.72870425  0.24962754  0.55639297  1
  O  O399  1  0.72720106  0.24924110  0.80922714  1
  O  O400  1  0.72810568  0.58242302  0.05694108  1
  O  O401  1  0.72795978  0.58483421  0.30837927  1
  O  O402  1  0.72801369  0.58503342  0.55788982  1
  O  O403  1  0.72807992  0.58261910  0.80657520  1
  O  O404  1  0.72891811  0.91809406  0.05691756  1
  O  O405  1  0.72769877  0.91850837  0.30919752  1
  O  O406  1  0.72759748  0.91873969  0.55738314  1
  O  O407  1  0.72863029  0.91751847  0.80627688  1
  O  O408  1  0.27229807  0.08189962  0.19207040  1
  O  O409  1  0.27303764  0.08245694  0.44048132  1
  O  O410  1  0.27146395  0.08316411  0.69282249  1
  O  O411  1  0.27298005  0.08297812  0.94065627  1
  O  O412  1  0.27244079  0.41850394  0.19172487  1
  O  O413  1  0.27259924  0.41609387  0.44031985  1
  O  O414  1  0.27324642  0.41646346  0.68999224  1
  O  O415  1  0.27147473  0.41812530  0.94139834  1
  O  O416  1  0.27193962  0.75131769  0.19216817  1
  O  O417  1  0.27234020  0.74785334  0.44229209  1
  O  O418  1  0.27228211  0.75074433  0.69217283  1
  O  O419  1  0.27137019  0.74984921  0.94369331  1
  O  O420  1  0.77272576  0.08588834  0.19242600  1
  O  O421  1  0.77266812  0.08395440  0.44052174  1
  O  O422  1  0.77180014  0.08140860  0.69142053  1
  O  O423  1  0.77220056  0.08575632  0.94215403  1
  O  O424  1  0.77155769  0.41455393  0.19257837  1
  O  O425  1  0.77185351  0.41584930  0.44194497  1
  O  O426  1  0.77190271  0.41636569  0.69348586  1
  O  O427  1  0.77175218  0.41440671  0.94254627  1
  O  O428  1  0.77143795  0.75049720  0.19351565  1
  O  O429  1  0.77338677  0.75019613  0.44069132  1
  O  O430  1  0.77181375  0.74920846  0.69127806  1
  O  O431  1  0.77118548  0.75022437  0.94314112  1
  O  O432  1  0.02218445  0.08601653  0.18292231  1
  O  O433  1  0.02360692  0.08458180  0.43395860  1
  O  O434  1  0.02196106  0.08410819  0.68126781  1
  O  O435  1  0.02164218  0.08471384  0.93155357  1
  O  O436  1  0.02278917  0.41769563  0.18414585  1
  O  O437  1  0.02180284  0.41630057  0.43128045  1
  O  O438  1  0.02291546  0.41569841  0.68381827  1
  O  O439  1  0.02191547  0.41548328  0.93301415  1
  O  O440  1  0.02108068  0.74997353  0.18182470  1
  O  O441  1  0.02221537  0.75135649  0.43289858  1
  O  O442  1  0.02249269  0.74817798  0.68280230  1
  O  O443  1  0.02213776  0.74792052  0.93308154  1
  O  O444  1  0.52261114  0.08336719  0.18465250  1
  O  O445  1  0.52208130  0.08167381  0.43322197  1
  O  O446  1  0.52124102  0.08316856  0.68143860  1
  O  O447  1  0.52283613  0.08254297  0.93449670  1
  O  O448  1  0.52093346  0.41576496  0.18160964  1
  O  O449  1  0.52205366  0.41461895  0.43329582  1
  O  O450  1  0.52316209  0.41572596  0.68440152  1
  O  O451  1  0.52126813  0.41626875  0.93181810  1
  O  O452  1  0.52088515  0.75028833  0.18203958  1
  O  O453  1  0.52294945  0.74917360  0.43441648  1
  O  O454  1  0.52218565  0.74795155  0.68313679  1
  O  O455  1  0.52149859  0.74851557  0.93324052  1
  O  O456  1  0.47724319  0.24787887  0.06706219  1
  O  O457  1  0.47734750  0.24746334  0.31728529  1
  O  O458  1  0.47806491  0.25113946  0.56719213  1
  O  O459  1  0.47763203  0.25109581  0.81674728  1
  O  O460  1  0.47774320  0.58490682  0.06688855  1
  O  O461  1  0.47800391  0.58291865  0.31888642  1
  O  O462  1  0.47806202  0.58402617  0.56721672  1
  O  O463  1  0.47695572  0.58404476  0.81542561  1
  O  O464  1  0.47785267  0.91846331  0.06728664  1
  O  O465  1  0.47754588  0.91825714  0.31714612  1
  O  O466  1  0.47709037  0.91680626  0.56604523  1
  O  O467  1  0.47848343  0.91612067  0.81853242  1
  O  O468  1  0.97810499  0.25298035  0.06705788  1
  O  O469  1  0.97727025  0.24955291  0.31569136  1
  O  O470  1  0.97845282  0.24839589  0.56659315  1
  O  O471  1  0.97814453  0.25250168  0.81695080  1
  O  O472  1  0.97782353  0.58455266  0.06663441  1
  O  O473  1  0.97797605  0.58160741  0.31714585  1
  O  O474  1  0.97883508  0.58324142  0.56849279  1
  O  O475  1  0.97735249  0.58393087  0.81539872  1
  O  O476  1  0.97857321  0.91727811  0.06827559  1
  O  O477  1  0.97824737  0.91752366  0.31862421  1
  O  O478  1  0.97751703  0.91664054  0.56543977  1
  O  O479  1  0.97887797  0.91622345  0.81780522  1
  O  O480  1  0.07336961  0.31593772  0.07479710  1
  O  O481  1  0.07153792  0.31395932  0.32305275  1
  O  O482  1  0.07326400  0.31309004  0.57360121  1
  O  O483  1  0.07379387  0.31508166  0.82329578  1
  O  O484  1  0.07278059  0.64773581  0.07437435  1
  O  O485  1  0.07298943  0.64605878  0.32457642  1
  O  O486  1  0.07467601  0.64581897  0.57565034  1
  O  O487  1  0.07301010  0.64652691  0.82317470  1
  O  O488  1  0.07371823  0.98122069  0.07526825  1
  O  O489  1  0.07375861  0.98049806  0.32651710  1
  O  O490  1  0.07248227  0.98013542  0.57274370  1
  O  O491  1  0.07391378  0.98016312  0.82476309  1
  O  O492  1  0.57228278  0.31181456  0.07539865  1
  O  O493  1  0.57252856  0.31157800  0.32421185  1
  O  O494  1  0.57310104  0.31473391  0.57405626  1
  O  O495  1  0.57289713  0.31368668  0.82473610  1
  O  O496  1  0.57298668  0.64790419  0.07397126  1
  O  O497  1  0.57348010  0.64647120  0.32565777  1
  O  O498  1  0.57309472  0.64725683  0.57429214  1
  O  O499  1  0.57245760  0.64691761  0.82296519  1
  O  O500  1  0.57310300  0.98174941  0.07470647  1
  O  O501  1  0.57296657  0.98075436  0.32466627  1
  O  O502  1  0.57236486  0.98008359  0.57308508  1
  O  O503  1  0.57379709  0.97996189  0.82517883  1
  O  O504  1  0.42784217  0.01945915  0.17688367  1
  O  O505  1  0.42700436  0.01841463  0.42574803  1
  O  O506  1  0.42599652  0.01925420  0.67509508  1
  O  O507  1  0.42757876  0.01962447  0.92719164  1
  O  O508  1  0.42517653  0.35291794  0.17453427  1
  O  O509  1  0.42720995  0.35092410  0.42627495  1
  O  O510  1  0.42766162  0.35290035  0.67669427  1
  O  O511  1  0.42566072  0.35339313  0.92391083  1
  O  O512  1  0.42536432  0.68690174  0.17561884  1
  O  O513  1  0.42769539  0.68595823  0.42703599  1
  O  O514  1  0.42664096  0.68534678  0.67544784  1
  O  O515  1  0.42654369  0.68481213  0.92606250  1
  O  O516  1  0.92691892  0.02218336  0.17592830  1
  O  O517  1  0.92906044  0.02066389  0.42620921  1
  O  O518  1  0.92697087  0.02001620  0.67343443  1
  O  O519  1  0.92637155  0.02089080  0.92460763  1
  O  O520  1  0.92824423  0.35350002  0.17714906  1
  O  O521  1  0.92634793  0.35319589  0.42403608  1
  O  O522  1  0.92747712  0.35253559  0.67633727  1
  O  O523  1  0.92677677  0.35249212  0.92595100  1
  O  O524  1  0.92538371  0.68690703  0.17534150  1
  O  O525  1  0.92715800  0.68711097  0.42578865  1
  O  O526  1  0.92716634  0.68571889  0.67479298  1
  O  O527  1  0.92698562  0.68476694  0.92567412  1
  O  O528  1  0.17681812  0.01948588  0.19970155  1
  O  O529  1  0.17791204  0.01912854  0.44850865  1
  O  O530  1  0.17603856  0.02003841  0.70012524  1
  O  O531  1  0.17764445  0.01988428  0.94850513  1
  O  O532  1  0.17732956  0.35475498  0.20003368  1
  O  O533  1  0.17735052  0.35283495  0.44794114  1
  O  O534  1  0.17888180  0.35227569  0.69755806  1
  O  O535  1  0.17626391  0.35462301  0.94954314  1
  O  O536  1  0.17636633  0.68788449  0.20015248  1
  O  O537  1  0.17749640  0.68442283  0.44965876  1
  O  O538  1  0.17689381  0.68725407  0.70007499  1
  O  O539  1  0.17590492  0.68698611  0.95119813  1
  O  O540  1  0.67778072  0.02159657  0.20033382  1
  O  O541  1  0.67751943  0.02024466  0.44760750  1
  O  O542  1  0.67631068  0.01908308  0.69882777  1
  O  O543  1  0.67728365  0.02155726  0.95041366  1
  O  O544  1  0.67607857  0.35177438  0.19959322  1
  O  O545  1  0.67700577  0.35208554  0.44923591  1
  O  O546  1  0.67675579  0.35219025  0.70015274  1
  O  O547  1  0.67648578  0.35124178  0.94925311  1
  O  O548  1  0.67569085  0.68771173  0.20115610  1
  O  O549  1  0.67797740  0.68709334  0.44837244  1
  O  O550  1  0.67707382  0.68528101  0.69784678  1
  O  O551  1  0.67564494  0.68700074  0.95002061  1
  O  O552  1  0.32365211  0.31348558  0.04882977  1
  O  O553  1  0.32269917  0.31356797  0.30106066  1
  O  O554  1  0.32281794  0.31393181  0.55005738  1
  O  O555  1  0.32329325  0.31240305  0.80001989  1
  O  O556  1  0.32281357  0.64542054  0.04997634  1
  O  O557  1  0.32234703  0.64723809  0.30185643  1
  O  O558  1  0.32359502  0.64452417  0.55033972  1
  O  O559  1  0.32233117  0.64530507  0.79969376  1
  O  O560  1  0.32266249  0.98070776  0.05247486  1
  O  O561  1  0.32317185  0.98106447  0.30105451  1
  O  O562  1  0.32310729  0.97830253  0.55038347  1
  O  O563  1  0.32375862  0.98094883  0.80101057  1
  O  O564  1  0.82195026  0.31394422  0.05224496  1
  O  O565  1  0.82168372  0.31419417  0.30134384  1
  O  O566  1  0.82412946  0.31305488  0.54929129  1
  O  O567  1  0.82199521  0.31302228  0.80215044  1
  O  O568  1  0.82333133  0.64629105  0.05008902  1
  O  O569  1  0.82321129  0.64789544  0.30097217  1
  O  O570  1  0.82318671  0.64834250  0.55081154  1
  O  O571  1  0.82338447  0.64653518  0.79978295  1
  O  O572  1  0.82455266  0.98101792  0.04990339  1
  O  O573  1  0.82330006  0.98143753  0.30171015  1
  O  O574  1  0.82258232  0.98213918  0.54982899  1
  O  O575  1  0.82466822  0.98000752  0.79902218  1
  O  O576  1  0.42728241  0.14653935  0.17706876  1
  O  O577  1  0.42671061  0.14529081  0.42503341  1
  O  O578  1  0.42559742  0.14613997  0.67388519  1
  O  O579  1  0.42827390  0.14707706  0.92702704  1
  O  O580  1  0.42591030  0.47997523  0.17533024  1
  O  O581  1  0.42662588  0.47815501  0.42585741  1
  O  O582  1  0.42897667  0.48034752  0.67624430  1
  O  O583  1  0.42614617  0.48012352  0.92361259  1
  O  O584  1  0.42562456  0.81373767  0.17473380  1
  O  O585  1  0.42828139  0.81347220  0.42782230  1
  O  O586  1  0.42724499  0.81225423  0.67527278  1
  O  O587  1  0.42602971  0.81196479  0.92512223  1
  O  O588  1  0.92694813  0.14935798  0.17619564  1
  O  O589  1  0.92827002  0.14803952  0.42650679  1
  O  O590  1  0.92614755  0.14678298  0.67371005  1
  O  O591  1  0.92617032  0.14794314  0.92443743  1
  O  O592  1  0.92752381  0.48086116  0.17587147  1
  O  O593  1  0.92635544  0.47984881  0.42487616  1
  O  O594  1  0.92841963  0.48005323  0.67700135  1
  O  O595  1  0.92669709  0.47931964  0.92445184  1
  O  O596  1  0.92587347  0.81378186  0.17459073  1
  O  O597  1  0.92689339  0.81444955  0.42646219  1
  O  O598  1  0.92741463  0.81283378  0.67505615  1
  O  O599  1  0.92703746  0.81202661  0.92437134  1
  O  O600  1  0.07336145  0.18896612  0.07455569  1
  O  O601  1  0.07290716  0.18667489  0.32279955  1
  O  O602  1  0.07409913  0.18607099  0.57390737  1
  O  O603  1  0.07306183  0.18808226  0.82509366  1
  O  O604  1  0.07314926  0.52071379  0.07417717  1
  O  O605  1  0.07336221  0.51880126  0.32362362  1
  O  O606  1  0.07386300  0.51910282  0.57561159  1
  O  O607  1  0.07137734  0.51909588  0.82337505  1
  O  O608  1  0.07412431  0.85406326  0.07555535  1
  O  O609  1  0.07358607  0.85372896  0.32574179  1
  O  O610  1  0.07247415  0.85257112  0.57309837  1
  O  O611  1  0.07452966  0.85312348  0.82503898  1
  O  O612  1  0.57251892  0.18472014  0.07389999  1
  O  O613  1  0.57255477  0.18450899  0.32475991  1
  O  O614  1  0.57349952  0.18767044  0.57515482  1
  O  O615  1  0.57262997  0.18658707  0.82421454  1
  O  O616  1  0.57291308  0.52061778  0.07413218  1
  O  O617  1  0.57340425  0.51949899  0.32587203  1
  O  O618  1  0.57343709  0.52032117  0.57558076  1
  O  O619  1  0.57127916  0.51952676  0.82334084  1
  O  O620  1  0.57306594  0.85463172  0.07550150  1
  O  O621  1  0.57249113  0.85386096  0.32516562  1
  O  O622  1  0.57178765  0.85262379  0.57247038  1
  O  O623  1  0.57399970  0.85311370  0.82575421  1
  O  O624  1  0.32382384  0.18660701  0.04979686  1
  O  O625  1  0.32122651  0.18609367  0.30161540  1
  O  O626  1  0.32270711  0.18700361  0.54888638  1
  O  O627  1  0.32301987  0.18528553  0.80054192  1
  O  O628  1  0.32283665  0.51842119  0.05116596  1
  O  O629  1  0.32284352  0.51983873  0.30188714  1
  O  O630  1  0.32347054  0.51761864  0.55033630  1
  O  O631  1  0.32252690  0.51806363  0.80046091  1
  O  O632  1  0.32178324  0.85321324  0.05177581  1
  O  O633  1  0.32361694  0.85419428  0.30031526  1
  O  O634  1  0.32265906  0.85107651  0.55096566  1
  O  O635  1  0.32347515  0.85391274  0.80145120  1
  O  O636  1  0.82239144  0.18689854  0.05193548  1
  O  O637  1  0.82208987  0.18700822  0.30163517  1
  O  O638  1  0.82407741  0.18640101  0.54884614  1
  O  O639  1  0.82223538  0.18555422  0.80184278  1
  O  O640  1  0.82378088  0.51922677  0.05025778  1
  O  O641  1  0.82314714  0.52068999  0.30071696  1
  O  O642  1  0.82324713  0.52110245  0.54970504  1
  O  O643  1  0.82370083  0.51967941  0.79908051  1
  O  O644  1  0.82405622  0.85399616  0.05018182  1
  O  O645  1  0.82211040  0.85398277  0.30240025  1
  O  O646  1  0.82301129  0.85516520  0.54901510  1
  O  O647  1  0.82344927  0.85308388  0.79844777  1
  O  O648  1  0.17743695  0.14638088  0.20014876  1
  O  O649  1  0.17852544  0.14679290  0.44768441  1
  O  O650  1  0.17605328  0.14665810  0.70004097  1
  O  O651  1  0.17837765  0.14734333  0.94886199  1
  O  O652  1  0.17747974  0.48183611  0.19994247  1
  O  O653  1  0.17768678  0.47991778  0.44852621  1
  O  O654  1  0.17782550  0.47965479  0.69751396  1
  O  O655  1  0.17632285  0.48160255  0.94827827  1
  O  O656  1  0.17721144  0.81507640  0.20021160  1
  O  O657  1  0.17680618  0.81147073  0.44988806  1
  O  O658  1  0.17750686  0.81456620  0.69923514  1
  O  O659  1  0.17614663  0.81387220  0.95099918  1
  O  O660  1  0.67725845  0.14849545  0.19992648  1
  O  O661  1  0.67760925  0.14747346  0.44867616  1
  O  O662  1  0.67688143  0.14612599  0.69874337  1
  O  O663  1  0.67682890  0.14858212  0.94914140  1
  O  O664  1  0.67655437  0.47885704  0.20050619  1
  O  O665  1  0.67626965  0.47932178  0.44969791  1
  O  O666  1  0.67620046  0.47905118  0.70107060  1
  O  O667  1  0.67645069  0.47832998  0.94998927  1
  O  O668  1  0.67631965  0.81455310  0.20126021  1
  O  O669  1  0.67900044  0.81457971  0.44856909  1
  O  O670  1  0.67606813  0.81244487  0.69855613  1
  O  O671  1  0.67596012  0.81410610  0.94957366  1
