# generated using pymatgen
data_Na2MnFe(PO4)2
_symmetry_space_group_name_H-M   'P 1'
_cell_length_a   22.34330565
_cell_length_b   20.09259530
_cell_length_c   19.44867393
_cell_angle_alpha   90.00274434
_cell_angle_beta   89.99763995
_cell_angle_gamma   89.94303709
_symmetry_Int_Tables_number   1
_chemical_formula_structural   Na2MnFe(PO4)2
_chemical_formula_sum   'Na96 Mn48 Fe48 P96 O384'
_cell_volume   8731.18606164
_cell_formula_units_Z   48
loop_
 _symmetry_equiv_pos_site_id
 _symmetry_equiv_pos_as_xyz
  1  'x, y, z'
loop_
 _atom_site_type_symbol
 _atom_site_label
 _atom_site_symmetry_multiplicity
 _atom_site_fract_x
 _atom_site_fract_y
 _atom_site_fract_z
 _atom_site_occupancy
  Na  Na0  1  0.14033572  0.25104554  0.24392490  1
  Na  Na1  1  0.14045606  0.24979536  0.49468360  1
  Na  Na2  1  0.14085009  0.24913279  0.74353300  1
  Na  Na3  1  0.14031576  0.24916381  0.99457415  1
  Na  Na4  1  0.13971406  0.58581956  0.24331378  1
  Na  Na5  1  0.13958877  0.58427547  0.49357923  1
  Na  Na6  1  0.13948817  0.58349591  0.74371193  1
  Na  Na7  1  0.14009785  0.58492034  0.99334963  1
  Na  Na8  1  0.14007080  0.91853708  0.24362422  1
  Na  Na9  1  0.13972291  0.91745422  0.49313962  1
  Na  Na10  1  0.14025809  0.91765113  0.74397940  1
  Na  Na11  1  0.14054636  0.91583114  0.99419556  1
  Na  Na12  1  0.64048039  0.24911381  0.24348914  1
  Na  Na13  1  0.64066562  0.24861612  0.49412612  1
  Na  Na14  1  0.64098358  0.25096595  0.74361445  1
  Na  Na15  1  0.64072325  0.25173242  0.99308959  1
  Na  Na16  1  0.64031602  0.58175361  0.24453467  1
  Na  Na17  1  0.64000531  0.58175696  0.49463105  1
  Na  Na18  1  0.64003655  0.58179134  0.74269161  1
  Na  Na19  1  0.64116366  0.58316575  0.99225964  1
  Na  Na20  1  0.64022547  0.91635367  0.24420759  1
  Na  Na21  1  0.64001999  0.91507354  0.49284739  1
  Na  Na22  1  0.64076532  0.91629506  0.74282444  1
  Na  Na23  1  0.64107346  0.91727203  0.99339454  1
  Na  Na24  1  0.35962156  0.08230488  0.00585916  1
  Na  Na25  1  0.36015029  0.08488514  0.25664511  1
  Na  Na26  1  0.36000291  0.08352743  0.50717136  1
  Na  Na27  1  0.35987498  0.08215416  0.75510030  1
  Na  Na28  1  0.36011323  0.41628730  0.00576460  1
  Na  Na29  1  0.35992807  0.41847729  0.25641834  1
  Na  Na30  1  0.35964480  0.41662438  0.50702983  1
  Na  Na31  1  0.36002816  0.41633607  0.75633745  1
  Na  Na32  1  0.36003511  0.75064830  0.00446385  1
  Na  Na33  1  0.35982554  0.75264487  0.25637259  1
  Na  Na34  1  0.35938965  0.75068655  0.50567942  1
  Na  Na35  1  0.35938098  0.75052860  0.75641344  1
  Na  Na36  1  0.85913679  0.08445025  0.00599047  1
  Na  Na37  1  0.85971923  0.08211307  0.25637054  1
  Na  Na38  1  0.85986479  0.08245129  0.50635700  1
  Na  Na39  1  0.85953432  0.08321287  0.75644781  1
  Na  Na40  1  0.85996316  0.41665760  0.00604129  1
  Na  Na41  1  0.85985984  0.41657756  0.25695359  1
  Na  Na42  1  0.85882915  0.41690780  0.50706589  1
  Na  Na43  1  0.85911500  0.41683764  0.75715437  1
  Na  Na44  1  0.85978508  0.75003668  0.00589946  1
  Na  Na45  1  0.85987225  0.74879318  0.25756889  1
  Na  Na46  1  0.85942183  0.74742491  0.50620529  1
  Na  Na47  1  0.85903403  0.74778319  0.75695971  1
  Na  Na48  1  0.10967662  0.08393059  0.11921633  1
  Na  Na49  1  0.10979226  0.08252934  0.36878043  1
  Na  Na50  1  0.10981297  0.08258316  0.61854662  1
  Na  Na51  1  0.10983719  0.08274477  0.86866173  1
  Na  Na52  1  0.10918004  0.41803450  0.11967255  1
  Na  Na53  1  0.10884450  0.41776338  0.36885194  1
  Na  Na54  1  0.10938864  0.41794984  0.61908266  1
  Na  Na55  1  0.10942982  0.41690210  0.86875600  1
  Na  Na56  1  0.10973516  0.75094181  0.11934352  1
  Na  Na57  1  0.10888070  0.74969682  0.36766549  1
  Na  Na58  1  0.10907373  0.75022041  0.61958173  1
  Na  Na59  1  0.10978066  0.74955245  0.86805677  1
  Na  Na60  1  0.60997018  0.08465483  0.11873307  1
  Na  Na61  1  0.60986785  0.08167666  0.36909130  1
  Na  Na62  1  0.60972065  0.08195989  0.61800755  1
  Na  Na63  1  0.60989081  0.08459738  0.86803266  1
  Na  Na64  1  0.61006267  0.41712696  0.11882469  1
  Na  Na65  1  0.60985065  0.41610154  0.36932012  1
  Na  Na66  1  0.61023473  0.41517789  0.61873409  1
  Na  Na67  1  0.60999173  0.41712801  0.86734492  1
  Na  Na68  1  0.60999203  0.75069637  0.11939902  1
  Na  Na69  1  0.60932494  0.74896391  0.36916084  1
  Na  Na70  1  0.60952839  0.74801215  0.61881883  1
  Na  Na71  1  0.61042875  0.74976785  0.86647613  1
  Na  Na72  1  0.39086945  0.25142240  0.13147372  1
  Na  Na73  1  0.39081863  0.24949851  0.38185677  1
  Na  Na74  1  0.39025636  0.24915785  0.63205609  1
  Na  Na75  1  0.39057088  0.25046096  0.88007494  1
  Na  Na76  1  0.39097661  0.58499377  0.13079129  1
  Na  Na77  1  0.39027451  0.58411648  0.38107134  1
  Na  Na78  1  0.39059367  0.58231513  0.63171798  1
  Na  Na79  1  0.39044754  0.58327289  0.88042005  1
  Na  Na80  1  0.39043389  0.91771489  0.13102527  1
  Na  Na81  1  0.39064750  0.91762718  0.38178760  1
  Na  Na82  1  0.39028264  0.91626155  0.63061899  1
  Na  Na83  1  0.39025164  0.91739018  0.88037592  1
  Na  Na84  1  0.89032357  0.25125725  0.13139028  1
  Na  Na85  1  0.89066506  0.24958109  0.38123946  1
  Na  Na86  1  0.88974864  0.24961227  0.63299333  1
  Na  Na87  1  0.88992052  0.25028114  0.88169852  1
  Na  Na88  1  0.89081258  0.58349359  0.13192391  1
  Na  Na89  1  0.88948032  0.58284164  0.38160280  1
  Na  Na90  1  0.88955285  0.58331286  0.63173696  1
  Na  Na91  1  0.88963317  0.58241442  0.88112156  1
  Na  Na92  1  0.89048081  0.91604769  0.13245589  1
  Na  Na93  1  0.89029355  0.91579539  0.38083837  1
  Na  Na94  1  0.89026732  0.91576819  0.63085936  1
  Na  Na95  1  0.89012488  0.91581929  0.88136510  1
  Mn  Mn96  1  0.50086491  0.83418223  -0.00118637  1
  Mn  Mn97  1  0.25055573  0.16676118  0.37562421  1
  Mn  Mn98  1  -0.00101358  0.50131143  0.49941998  1
  Mn  Mn99  1  0.25060646  0.66879139  0.12401971  1
  Mn  Mn100  1  0.00054611  0.83234871  0.00053950  1
  Mn  Mn101  1  0.24885560  0.83439908  0.62510786  1
  Mn  Mn102  1  0.25040488  0.49989023  0.62474343  1
  Mn  Mn103  1  0.24974389  0.83491382  0.37530928  1
  Mn  Mn104  1  0.50084929  0.49976291  -0.00045952  1
  Mn  Mn105  1  -0.00048513  0.83280705  0.49979601  1
  Mn  Mn106  1  0.24958672  0.66728396  0.62516601  1
  Mn  Mn107  1  0.25021104  0.33267275  0.87524073  1
  Mn  Mn108  1  0.49985268  0.66588004  0.49962494  1
  Mn  Mn109  1  0.25052962  0.50135278  0.12511319  1
  Mn  Mn110  1  0.25087238  0.16518566  0.87393456  1
  Mn  Mn111  1  0.00043857  0.33392089  0.75063367  1
  Mn  Mn112  1  0.50052438  0.00131257  0.00043380  1
  Mn  Mn113  1  0.50034316  0.83348080  0.74901393  1
  Mn  Mn114  1  0.50025250  0.16628947  0.74977109  1
  Mn  Mn115  1  0.75059664  0.16523996  0.37439098  1
  Mn  Mn116  1  0.25030028  0.00037899  0.12475569  1
  Mn  Mn117  1  -0.00085917  0.33382599  0.50075043  1
  Mn  Mn118  1  0.50093738  0.66718410  -0.00007971  1
  Mn  Mn119  1  0.50017008  0.66704819  0.25040540  1
  Mn  Mn120  1  0.50029586  0.33380920  0.25070995  1
  Mn  Mn121  1  0.00027219  0.50045008  0.00068281  1
  Mn  Mn122  1  0.74988912  0.83222990  0.37524793  1
  Mn  Mn123  1  0.24980984  0.33310744  0.12540563  1
  Mn  Mn124  1  0.24909920  0.50051009  0.87499157  1
  Mn  Mn125  1  0.50017284  0.00048171  0.25049957  1
  Mn  Mn126  1  0.49969538  0.33279222  0.49978254  1
  Mn  Mn127  1  0.75008097  0.66625137  0.12473641  1
  Mn  Mn128  1  -0.00064378  0.83299244  0.74965278  1
  Mn  Mn129  1  -0.00013091  -0.00022360  0.00049565  1
  Mn  Mn130  1  0.74992357  0.83366190  0.12566874  1
  Mn  Mn131  1  0.75034585  0.16677077  0.12480889  1
  Mn  Mn132  1  0.74991257  0.00037592  0.87436349  1
  Mn  Mn133  1  -0.00056976  0.16736417  0.00020677  1
  Mn  Mn134  1  0.00023136  0.16678147  0.25029288  1
  Mn  Mn135  1  0.74990450  0.83117931  0.62411726  1
  Mn  Mn136  1  0.00002227  0.16572042  0.50054092  1
  Mn  Mn137  1  0.75047542  -0.00039158  0.62536043  1
  Mn  Mn138  1  0.49978222  0.16866682  -0.00125687  1
  Mn  Mn139  1  0.75088287  0.49905090  0.12443770  1
  Mn  Mn140  1  0.00034568  0.16582662  0.75070661  1
  Mn  Mn141  1  0.25020726  0.33376586  0.37531198  1
  Mn  Mn142  1  0.75055399  0.33310351  0.37548598  1
  Mn  Mn143  1  0.24915356  0.50169534  0.37564148  1
  Fe  Fe144  1  0.49978501  0.49912146  0.50058571  1
  Fe  Fe145  1  0.74979282  0.16644906  0.62531027  1
  Fe  Fe146  1  0.50039761  0.16582001  0.50064367  1
  Fe  Fe147  1  0.24954341  -0.00046072  0.87522118  1
  Fe  Fe148  1  0.25025699  0.66743087  0.87495470  1
  Fe  Fe149  1  0.49967249  0.49918027  0.75009261  1
  Fe  Fe150  1  0.50027057  0.83383022  0.25008602  1
  Fe  Fe151  1  0.25024106  -0.00006730  0.62509652  1
  Fe  Fe152  1  0.74971085  0.66629536  0.87489616  1
  Fe  Fe153  1  0.75018185  0.33339633  0.87425395  1
  Fe  Fe154  1  0.24963176  0.33321234  0.62531207  1
  Fe  Fe155  1  0.74933497  0.66504286  0.37591346  1
  Fe  Fe156  1  0.24986933  0.66829874  0.37466355  1
  Fe  Fe157  1  0.75010703  -0.00082125  0.37505906  1
  Fe  Fe158  1  0.49966836  0.83271972  0.50032424  1
  Fe  Fe159  1  0.25000720  0.00114719  0.37478714  1
  Fe  Fe160  1  0.25054984  0.16655597  0.12496193  1
  Fe  Fe161  1  0.75013751  0.00008987  0.12422238  1
  Fe  Fe162  1  -0.00036201  -0.00034901  0.25016051  1
  Fe  Fe163  1  0.24979657  0.16604559  0.62485396  1
  Fe  Fe164  1  0.50044114  0.16688506  0.25053488  1
  Fe  Fe165  1  -0.00068750  0.66628345  0.74983355  1
  Fe  Fe166  1  0.74991962  0.49941064  0.87452946  1
  Fe  Fe167  1  -0.00048360  0.66659456  0.24982032  1
  Fe  Fe168  1  0.50009275  0.50030844  0.24975921  1
  Fe  Fe169  1  0.74981432  0.49962440  0.62551226  1
  Fe  Fe170  1  0.75007558  0.33364797  0.12412936  1
  Fe  Fe171  1  -0.00058333  0.50034812  0.75045648  1
  Fe  Fe172  1  -0.00018247  0.66662383  0.00031310  1
  Fe  Fe173  1  0.50055739  -0.00085063  0.49934162  1
  Fe  Fe174  1  0.50043816  0.33314619  0.74930381  1
  Fe  Fe175  1  0.75061359  0.33290513  0.62552429  1
  Fe  Fe176  1  -0.00017297  -0.00069067  0.49960972  1
  Fe  Fe177  1  0.50015351  0.33429608  0.00005805  1
  Fe  Fe178  1  -0.00032984  0.66656626  0.49961995  1
  Fe  Fe179  1  0.00007449  0.33373158  0.25054209  1
  Fe  Fe180  1  0.25029981  0.83402260  0.12438444  1
  Fe  Fe181  1  0.50034286  -0.00026272  0.74895646  1
  Fe  Fe182  1  0.24997738  0.83384026  0.87463875  1
  Fe  Fe183  1  0.49975225  0.66600184  0.74867235  1
  Fe  Fe184  1  -0.00051407  -0.00042950  0.75007605  1
  Fe  Fe185  1  0.74929622  0.49934682  0.37597082  1
  Fe  Fe186  1  0.74927647  0.66494412  0.62592923  1
  Fe  Fe187  1  0.75027837  0.83320284  0.87498424  1
  Fe  Fe188  1  0.74993117  0.16745725  0.87520948  1
  Fe  Fe189  1  0.00037470  0.33409060  0.00061209  1
  Fe  Fe190  1  -0.00026591  0.50049850  0.25006908  1
  Fe  Fe191  1  -0.00007832  0.83285185  0.25023783  1
  P  P192  1  0.04183250  0.25204214  0.10331715  1
  P  P193  1  0.04226076  0.25117219  0.35287678  1
  P  P194  1  0.04243364  0.24999903  0.60365054  1
  P  P195  1  0.04313414  0.25022892  0.85385963  1
  P  P196  1  0.04217811  0.58538059  0.10332803  1
  P  P197  1  0.04076324  0.58408898  0.35172468  1
  P  P198  1  0.04151747  0.58511902  0.60303398  1
  P  P199  1  0.04116653  0.58338602  0.85199198  1
  P  P200  1  0.04253342  0.91639327  0.10443026  1
  P  P201  1  0.04105677  0.91648857  0.35182917  1
  P  P202  1  0.04169351  0.91751800  0.60245421  1
  P  P203  1  0.04192655  0.91716098  0.85224733  1
  P  P204  1  0.54256320  0.25199563  0.10257039  1
  P  P205  1  0.54260156  0.24829781  0.35323586  1
  P  P206  1  0.54205743  0.24861453  0.60264468  1
  P  P207  1  0.54247660  0.25191725  0.85212621  1
  P  P208  1  0.54368149  0.58339927  0.10320096  1
  P  P209  1  0.54193238  0.58155417  0.35300328  1
  P  P210  1  0.54161580  0.58126499  0.60316049  1
  P  P211  1  0.54133890  0.58325467  0.85072670  1
  P  P212  1  0.54323862  0.91710162  0.10344725  1
  P  P213  1  0.54212743  0.91522211  0.35343658  1
  P  P214  1  0.54171544  0.91606313  0.60144351  1
  P  P215  1  0.54293728  0.91828661  0.85151856  1
  P  P216  1  0.45808350  0.08552506  0.14781920  1
  P  P217  1  0.45890921  0.08355699  0.39851812  1
  P  P218  1  0.45842462  0.08155788  0.64631546  1
  P  P219  1  0.45734451  0.08363865  0.89609079  1
  P  P220  1  0.45794799  0.41817448  0.14736426  1
  P  P221  1  0.45759688  0.41799812  0.39736203  1
  P  P222  1  0.45875760  0.41618352  0.64790159  1
  P  P223  1  0.45816875  0.41552992  0.89637329  1
  P  P224  1  0.45800205  0.75187433  0.14760089  1
  P  P225  1  0.45778046  0.75139294  0.39727165  1
  P  P226  1  0.45753479  0.74876975  0.64670977  1
  P  P227  1  0.45829329  0.74985229  0.89549361  1
  P  P228  1  0.95760814  0.08246296  0.14797144  1
  P  P229  1  0.95796400  0.08145047  0.39717225  1
  P  P230  1  0.95774369  0.08140523  0.64742016  1
  P  P231  1  0.95697839  0.08286888  0.89680825  1
  P  P232  1  0.95865845  0.41690100  0.14857662  1
  P  P233  1  0.95674503  0.41685349  0.39627940  1
  P  P234  1  0.95726911  0.41843869  0.64812362  1
  P  P235  1  0.95804893  0.41610456  0.89787418  1
  P  P236  1  0.95827066  0.74955709  0.14840346  1
  P  P237  1  0.95745070  0.74839899  0.39664650  1
  P  P238  1  0.95703601  0.74832734  0.64722622  1
  P  P239  1  0.95802240  0.74795015  0.89726216  1
  P  P240  1  0.20794350  0.08492510  0.22765630  1
  P  P241  1  0.20801121  0.08240197  0.47842323  1
  P  P242  1  0.20861185  0.08238812  0.72675921  1
  P  P243  1  0.20771578  0.08204220  0.97758789  1
  P  P244  1  0.20724334  0.41793072  0.22834403  1
  P  P245  1  0.20685409  0.41667191  0.47881133  1
  P  P246  1  0.20767089  0.41575017  0.72743562  1
  P  P247  1  0.20700372  0.41657603  0.97836610  1
  P  P248  1  0.20819555  0.75266046  0.22757290  1
  P  P249  1  0.20679583  0.74993240  0.47717071  1
  P  P250  1  0.20704640  0.75076623  0.72920226  1
  P  P251  1  0.20851666  0.75109492  0.97638368  1
  P  P252  1  0.70807832  0.08131787  0.22735941  1
  P  P253  1  0.70819321  0.08180550  0.47780698  1
  P  P254  1  0.70785049  0.08485794  0.72783987  1
  P  P255  1  0.70771821  0.08492142  0.97729584  1
  P  P256  1  0.70812435  0.41515638  0.22744347  1
  P  P257  1  0.70792026  0.41717893  0.47886046  1
  P  P258  1  0.70912774  0.41627672  0.72721555  1
  P  P259  1  0.70868363  0.41638774  0.97607556  1
  P  P260  1  0.70760497  0.74893085  0.22895829  1
  P  P261  1  0.70754463  0.74701246  0.47807554  1
  P  P262  1  0.70766874  0.74785111  0.72813690  1
  P  P263  1  0.70862329  0.75023140  0.97627304  1
  P  P264  1  0.29272356  0.24832449  0.02253645  1
  P  P265  1  0.29321829  0.25015623  0.27177311  1
  P  P266  1  0.29151545  0.25002530  0.52400617  1
  P  P267  1  0.29274808  0.24957247  0.77055643  1
  P  P268  1  0.29311298  0.58458367  0.02096886  1
  P  P269  1  0.29207573  0.58617432  0.27252157  1
  P  P270  1  0.29272386  0.58435446  0.52146041  1
  P  P271  1  0.29185301  0.58467419  0.77260180  1
  P  P272  1  0.29245100  0.91553342  0.02155936  1
  P  P273  1  0.29250211  0.91903246  0.27248933  1
  P  P274  1  0.29179079  0.91841397  0.52218631  1
  P  P275  1  0.29139131  0.91729332  0.77303165  1
  P  P276  1  0.79226324  0.25165542  0.02160236  1
  P  P277  1  0.79301841  0.24966348  0.27165540  1
  P  P278  1  0.79164596  0.24927337  0.52387287  1
  P  P279  1  0.79159930  0.24985471  0.77265724  1
  P  P280  1  0.79294469  0.58319065  0.02086649  1
  P  P281  1  0.79104958  0.58211570  0.27404374  1
  P  P282  1  0.79094327  0.58254036  0.52338114  1
  P  P283  1  0.79039689  0.58261390  0.77296485  1
  P  P284  1  0.79248819  0.91763075  0.02214278  1
  P  P285  1  0.79195497  0.91736487  0.27227081  1
  P  P286  1  0.79245655  0.91584215  0.52142026  1
  P  P287  1  0.79228610  0.91482490  0.77242026  1
  O  O288  1  0.03634226  0.25211731  0.18327846  1
  O  O289  1  0.03682463  0.25055033  0.43281731  1
  O  O290  1  0.03765208  0.24976620  0.68364163  1
  O  O291  1  0.03793069  0.25057348  0.93383030  1
  O  O292  1  0.03678109  0.58530128  0.18316891  1
  O  O293  1  0.03592669  0.58422519  0.43171290  1
  O  O294  1  0.03608818  0.58477812  0.68292325  1
  O  O295  1  0.03651182  0.58340427  0.93199428  1
  O  O296  1  0.03714701  0.91636221  0.18432927  1
  O  O297  1  0.03622558  0.91643641  0.43184740  1
  O  O298  1  0.03642656  0.91754678  0.68237912  1
  O  O299  1  0.03716624  0.91660804  0.93223386  1
  O  O300  1  0.53749821  0.25122179  0.18252703  1
  O  O301  1  0.53713776  0.24806298  0.43316768  1
  O  O302  1  0.53685253  0.24939649  0.68255834  1
  O  O303  1  0.53706447  0.25252649  0.93204974  1
  O  O304  1  0.53845248  0.58308374  0.18316327  1
  O  O305  1  0.53633474  0.58136215  0.43291461  1
  O  O306  1  0.53583739  0.58188249  0.68299385  1
  O  O307  1  0.53725514  0.58317189  0.93078725  1
  O  O308  1  0.53786945  0.91653724  0.18341646  1
  O  O309  1  0.53651296  0.91532603  0.43332522  1
  O  O310  1  0.53687040  0.91684277  0.68144204  1
  O  O311  1  0.53814058  0.91814005  0.93151737  1
  O  O312  1  0.46307224  0.08547718  0.06785912  1
  O  O313  1  0.46391243  0.08425393  0.31853005  1
  O  O314  1  0.46407911  0.08161783  0.56646609  1
  O  O315  1  0.46247264  0.08292319  0.81613380  1
  O  O316  1  0.46334432  0.41730461  0.06740312  1
  O  O317  1  0.46299122  0.41805657  0.31742578  1
  O  O318  1  0.46339620  0.41668224  0.56790224  1
  O  O319  1  0.46345397  0.41546988  0.81645651  1
  O  O320  1  0.46347361  0.75140902  0.06763748  1
  O  O321  1  0.46332248  0.75170011  0.31735947  1
  O  O322  1  0.46271432  0.74918592  0.56674816  1
  O  O323  1  0.46333550  0.74907016  0.81552084  1
  O  O324  1  0.96259494  0.08294088  0.06800637  1
  O  O325  1  0.96331527  0.08172629  0.31723250  1
  O  O326  1  0.96309411  0.08137988  0.56743839  1
  O  O327  1  0.96213341  0.08238651  0.81681496  1
  O  O328  1  0.96378698  0.41685589  0.06858471  1
  O  O329  1  0.96217979  0.41659739  0.31638713  1
  O  O330  1  0.96188574  0.41841762  0.56811892  1
  O  O331  1  0.96319225  0.41683207  0.81796376  1
  O  O332  1  0.96315334  0.74957744  0.06839963  1
  O  O333  1  0.96285581  0.74870839  0.31677361  1
  O  O334  1  0.96217768  0.74840431  0.56726298  1
  O  O335  1  0.96307898  0.74788522  0.81730259  1
  O  O336  1  0.21311279  0.08305328  0.05749691  1
  O  O337  1  0.21311381  0.08434648  0.30761448  1
  O  O338  1  0.21338072  0.08236573  0.55830597  1
  O  O339  1  0.21339567  0.08204827  0.80672958  1
  O  O340  1  0.21226011  0.41687017  0.05831282  1
  O  O341  1  0.21212727  0.41808831  0.30835351  1
  O  O342  1  0.21228221  0.41605392  0.55878674  1
  O  O343  1  0.21266760  0.41598583  0.80742574  1
  O  O344  1  0.21359597  0.75176027  0.05637085  1
  O  O345  1  0.21323077  0.75174022  0.30751814  1
  O  O346  1  0.21164034  0.75014137  0.55716334  1
  O  O347  1  0.21264707  0.75067294  0.80908335  1
  O  O348  1  0.71309060  0.08429209  0.05721412  1
  O  O349  1  0.71343881  0.08080434  0.30732095  1
  O  O350  1  0.71341462  0.08273657  0.55773720  1
  O  O351  1  0.71311156  0.08495703  0.80778487  1
  O  O352  1  0.71365638  0.41611805  0.05603929  1
  O  O353  1  0.71300276  0.41572184  0.30739204  1
  O  O354  1  0.71349433  0.41714811  0.55869458  1
  O  O355  1  0.71405587  0.41589671  0.80710462  1
  O  O356  1  0.71344019  0.75032118  0.05630670  1
  O  O357  1  0.71277491  0.74822302  0.30892189  1
  O  O358  1  0.71275333  0.74674009  0.55802908  1
  O  O359  1  0.71306024  0.74846202  0.80800398  1
  O  O360  1  0.28806775  0.24940092  0.19181849  1
  O  O361  1  0.28706467  0.24984445  0.44396153  1
  O  O362  1  0.28711728  0.24991847  0.69069334  1
  O  O363  1  0.28769661  0.24844108  0.94252140  1
  O  O364  1  0.28731303  0.58602745  0.19248059  1
  O  O365  1  0.28735239  0.58499761  0.44150377  1
  O  O366  1  0.28701529  0.58434664  0.69260021  1
  O  O367  1  0.28766261  0.58482222  0.94102802  1
  O  O368  1  0.28756342  0.91830327  0.19257351  1
  O  O369  1  0.28668419  0.91871287  0.44226796  1
  O  O370  1  0.28615707  0.91762453  0.69307088  1
  O  O371  1  0.28694599  0.91578902  0.94170209  1
  O  O372  1  0.78797031  0.25009617  0.19174021  1
  O  O373  1  0.78707054  0.24949756  0.44388489  1
  O  O374  1  0.78634496  0.24955979  0.69274058  1
  O  O375  1  0.78687005  0.25138457  0.94170727  1
  O  O376  1  0.78634643  0.58226439  0.19404004  1
  O  O377  1  0.78552538  0.58265215  0.44349851  1
  O  O378  1  0.78527513  0.58265271  0.69307624  1
  O  O379  1  0.78772010  0.58309754  0.94099848  1
  O  O380  1  0.78662988  0.91777538  0.19230637  1
  O  O381  1  0.78703615  0.91633842  0.44147767  1
  O  O382  1  0.78709994  0.91479289  0.69248361  1
  O  O383  1  0.78717935  0.91687684  0.94218852  1
  O  O384  1  0.22834237  0.24810806  0.05798409  1
  O  O385  1  0.22881069  0.25023460  0.30694311  1
  O  O386  1  0.22724195  0.25037237  0.55947779  1
  O  O387  1  0.22864298  0.24930331  0.80658246  1
  O  O388  1  0.22878685  0.58469655  0.05633836  1
  O  O389  1  0.22762501  0.58668140  0.30777926  1
  O  O390  1  0.22832992  0.58366658  0.55661970  1
  O  O391  1  0.22749308  0.58514829  0.80788520  1
  O  O392  1  0.22832275  0.91568382  0.05780989  1
  O  O393  1  0.22810578  0.91955538  0.30804319  1
  O  O394  1  0.22744857  0.91894352  0.55775373  1
  O  O395  1  0.22728310  0.91712642  0.80929008  1
  O  O396  1  0.72815453  0.25165012  0.05783685  1
  O  O397  1  0.72871521  0.24948574  0.30706324  1
  O  O398  1  0.72740934  0.24889641  0.55952711  1
  O  O399  1  0.72760120  0.25008434  0.80920356  1
  O  O400  1  0.72866472  0.58269751  0.05643373  1
  O  O401  1  0.72683479  0.58179023  0.30990379  1
  O  O402  1  0.72693264  0.58199847  0.55993699  1
  O  O403  1  0.72646497  0.58230101  0.80942485  1
  O  O404  1  0.72818706  0.91792691  0.05790533  1
  O  O405  1  0.72781252  0.91719645  0.30831511  1
  O  O406  1  0.72823205  0.91584778  0.55699214  1
  O  O407  1  0.72799341  0.91499194  0.80798872  1
  O  O408  1  0.27226172  0.08516898  0.19201525  1
  O  O409  1  0.27226767  0.08180527  0.44243527  1
  O  O410  1  0.27276072  0.08237448  0.69081121  1
  O  O411  1  0.27199392  0.08082134  0.94176655  1
  O  O412  1  0.27170735  0.41737211  0.19338612  1
  O  O413  1  0.27124464  0.41759292  0.44360787  1
  O  O414  1  0.27206748  0.41534514  0.69211224  1
  O  O415  1  0.27140822  0.41694387  0.94326244  1
  O  O416  1  0.27249818  0.75299647  0.19188172  1
  O  O417  1  0.27128183  0.74982514  0.44202128  1
  O  O418  1  0.27118902  0.75114906  0.69328473  1
  O  O419  1  0.27265979  0.75117798  0.94033736  1
  O  O420  1  0.77225898  0.08140929  0.19138803  1
  O  O421  1  0.77244321  0.08096558  0.44198050  1
  O  O422  1  0.77212058  0.08489777  0.69209556  1
  O  O423  1  0.77190636  0.08508197  0.94135353  1
  O  O424  1  0.77248203  0.41456456  0.19177600  1
  O  O425  1  0.77196933  0.41784933  0.44247037  1
  O  O426  1  0.77312360  0.41705540  0.69094392  1
  O  O427  1  0.77287496  0.41658946  0.94016102  1
  O  O428  1  0.77189713  0.74943998  0.19349572  1
  O  O429  1  0.77173965  0.74720954  0.44228509  1
  O  O430  1  0.77179947  0.74727774  0.69200851  1
  O  O431  1  0.77284991  0.75032675  0.94059330  1
  O  O432  1  0.02195733  0.08221941  0.18336795  1
  O  O433  1  0.02218696  0.08152299  0.43302268  1
  O  O434  1  0.02201471  0.08116838  0.68322001  1
  O  O435  1  0.02134754  0.08337378  0.93198450  1
  O  O436  1  0.02270615  0.41703170  0.18471561  1
  O  O437  1  0.02094287  0.41705660  0.43205200  1
  O  O438  1  0.02173522  0.41877743  0.68319680  1
  O  O439  1  0.02226322  0.41590913  0.93373451  1
  O  O440  1  0.02244583  0.74918293  0.18424120  1
  O  O441  1  0.02155591  0.74813165  0.43295115  1
  O  O442  1  0.02130386  0.74846459  0.68286026  1
  O  O443  1  0.02229768  0.74784777  0.93305577  1
  O  O444  1  0.52240368  0.08511035  0.18337201  1
  O  O445  1  0.52306145  0.08336998  0.43450128  1
  O  O446  1  0.52249201  0.08149899  0.68269821  1
  O  O447  1  0.52174438  0.08441215  0.93124311  1
  O  O448  1  0.52217688  0.41844474  0.18328297  1
  O  O449  1  0.52181485  0.41757158  0.43325899  1
  O  O450  1  0.52296724  0.41580290  0.68362450  1
  O  O451  1  0.52240839  0.41498697  0.93241516  1
  O  O452  1  0.52224598  0.75181958  0.18339748  1
  O  O453  1  0.52190418  0.75117880  0.43337068  1
  O  O454  1  0.52184096  0.74848975  0.68227608  1
  O  O455  1  0.52269371  0.75015939  0.93074209  1
  O  O456  1  0.47823407  0.25266217  0.06680707  1
  O  O457  1  0.47840362  0.24868852  0.31731222  1
  O  O458  1  0.47782970  0.24824792  0.56683384  1
  O  O459  1  0.47829180  0.25160277  0.81622024  1
  O  O460  1  0.47932160  0.58348251  0.06790272  1
  O  O461  1  0.47786633  0.58186554  0.31670102  1
  O  O462  1  0.47762817  0.58132751  0.56667545  1
  O  O463  1  0.47700566  0.58360080  0.81548440  1
  O  O464  1  0.47891579  0.91714815  0.06799379  1
  O  O465  1  0.47811941  0.91529799  0.31693720  1
  O  O466  1  0.47753928  0.91597864  0.56556555  1
  O  O467  1  0.47849233  0.91821312  0.81622477  1
  O  O468  1  0.97769343  0.25234417  0.06720946  1
  O  O469  1  0.97802492  0.25106585  0.31720213  1
  O  O470  1  0.97791716  0.24954734  0.56886286  1
  O  O471  1  0.97872052  0.25002193  0.81870625  1
  O  O472  1  0.97800040  0.58517583  0.06725260  1
  O  O473  1  0.97659895  0.58419698  0.31582975  1
  O  O474  1  0.97730074  0.58570337  0.56695811  1
  O  O475  1  0.97691272  0.58301809  0.81617947  1
  O  O476  1  0.97833332  0.91595624  0.06868923  1
  O  O477  1  0.97697687  0.91689370  0.31582563  1
  O  O478  1  0.97747206  0.91729922  0.56662232  1
  O  O479  1  0.97751809  0.91758551  0.81691883  1
  O  O480  1  0.07301756  0.31521346  0.07473506  1
  O  O481  1  0.07283891  0.31487192  0.32470519  1
  O  O482  1  0.07291564  0.31381957  0.57574203  1
  O  O483  1  0.07430988  0.31344778  0.82533803  1
  O  O484  1  0.07283048  0.64878604  0.07423702  1
  O  O485  1  0.07212254  0.64727918  0.32341904  1
  O  O486  1  0.07275561  0.64827838  0.57423276  1
  O  O487  1  0.07188955  0.64692336  0.82354173  1
  O  O488  1  0.07355030  0.97986397  0.07609563  1
  O  O489  1  0.07244714  0.97977039  0.32366712  1
  O  O490  1  0.07251889  0.98077875  0.57350417  1
  O  O491  1  0.07268532  0.98071771  0.82399525  1
  O  O492  1  0.57330302  0.31563686  0.07435580  1
  O  O493  1  0.57376976  0.31209912  0.32584460  1
  O  O494  1  0.57312935  0.31203076  0.57436321  1
  O  O495  1  0.57343445  0.31498925  0.82290922  1
  O  O496  1  0.57458023  0.64708003  0.07511942  1
  O  O497  1  0.57296855  0.64549525  0.32580080  1
  O  O498  1  0.57303034  0.64462918  0.57496771  1
  O  O499  1  0.57239952  0.64658481  0.82228469  1
  O  O500  1  0.57396163  0.98098248  0.07572017  1
  O  O501  1  0.57325512  0.97893489  0.32567634  1
  O  O502  1  0.57272990  0.97935764  0.57261754  1
  O  O503  1  0.57344211  0.98187413  0.82297260  1
  O  O504  1  0.42684222  0.02193770  0.17551878  1
  O  O505  1  0.42840373  0.01942673  0.42608311  1
  O  O506  1  0.42759418  0.01809858  0.67502053  1
  O  O507  1  0.42653551  0.02041340  0.92514463  1
  O  O508  1  0.42672157  0.35490221  0.17578625  1
  O  O509  1  0.42653806  0.35413942  0.42494720  1
  O  O510  1  0.42790005  0.35239101  0.67566992  1
  O  O511  1  0.42690189  0.35251010  0.92540927  1
  O  O512  1  0.42686683  0.68828711  0.17546821  1
  O  O513  1  0.42679584  0.68747606  0.42454582  1
  O  O514  1  0.42687908  0.68518177  0.67517127  1
  O  O515  1  0.42713930  0.68686694  0.92460270  1
  O  O516  1  0.92688740  0.01887269  0.17620265  1
  O  O517  1  0.92713103  0.01804765  0.42573113  1
  O  O518  1  0.92661868  0.01816706  0.67601298  1
  O  O519  1  0.92588022  0.01960605  0.92529581  1
  O  O520  1  0.92761033  0.35351882  0.17690731  1
  O  O521  1  0.92553869  0.35363023  0.42508601  1
  O  O522  1  0.92659040  0.35460835  0.67591713  1
  O  O523  1  0.92752285  0.35235922  0.92616469  1
  O  O524  1  0.92674003  0.68634549  0.17654381  1
  O  O525  1  0.92638318  0.68512436  0.42532508  1
  O  O526  1  0.92614179  0.68514390  0.67621329  1
  O  O527  1  0.92707943  0.68472270  0.92607887  1
  O  O528  1  0.17678863  0.02153828  0.19943532  1
  O  O529  1  0.17677056  0.01943931  0.44918369  1
  O  O530  1  0.17742127  0.01913114  0.69830682  1
  O  O531  1  0.17650400  0.01850781  0.94973296  1
  O  O532  1  0.17604252  0.35449350  0.20042594  1
  O  O533  1  0.17619037  0.35318208  0.45019426  1
  O  O534  1  0.17676886  0.35230632  0.69910429  1
  O  O535  1  0.17636705  0.35285466  0.95040156  1
  O  O536  1  0.17705086  0.68937447  0.19899236  1
  O  O537  1  0.17623186  0.68648656  0.44842536  1
  O  O538  1  0.17593544  0.68739403  0.70078691  1
  O  O539  1  0.17820926  0.68686081  0.94868224  1
  O  O540  1  0.67701722  0.01825277  0.19839009  1
  O  O541  1  0.67718006  0.01826853  0.44973465  1
  O  O542  1  0.67713195  0.02086212  0.70023851  1
  O  O543  1  0.67644723  0.02153582  0.94915816  1
  O  O544  1  0.67741218  0.35161026  0.19889328  1
  O  O545  1  0.67716962  0.35332295  0.45092418  1
  O  O546  1  0.67906281  0.35231597  0.69822160  1
  O  O547  1  0.67772298  0.35305684  0.94746421  1
  O  O548  1  0.67656560  0.68571821  0.20017766  1
  O  O549  1  0.67657966  0.68371144  0.44942895  1
  O  O550  1  0.67652374  0.68446468  0.69968242  1
  O  O551  1  0.67805312  0.68633812  0.94820486  1
  O  O552  1  0.32349463  0.31215219  0.05025023  1
  O  O553  1  0.32403405  0.31393776  0.29963753  1
  O  O554  1  0.32260806  0.31357015  0.55191492  1
  O  O555  1  0.32392024  0.31279565  0.79932203  1
  O  O556  1  0.32445593  0.64784105  0.04928868  1
  O  O557  1  0.32289665  0.64970657  0.30081320  1
  O  O558  1  0.32370476  0.64763143  0.55006107  1
  O  O559  1  0.32270498  0.64817839  0.80091146  1
  O  O560  1  0.32386594  0.97890173  0.04974572  1
  O  O561  1  0.32322539  0.98265942  0.30080878  1
  O  O562  1  0.32328818  0.98117384  0.55122740  1
  O  O563  1  0.32229039  0.98072388  0.80152066  1
  O  O564  1  0.82292816  0.31518888  0.05033158  1
  O  O565  1  0.82423346  0.31269314  0.30051348  1
  O  O566  1  0.82185938  0.31330560  0.55227622  1
  O  O567  1  0.82265925  0.31355531  0.80062687  1
  O  O568  1  0.82368395  0.64671236  0.04958846  1
  O  O569  1  0.82155920  0.64594523  0.30221262  1
  O  O570  1  0.82148369  0.64626449  0.55199673  1
  O  O571  1  0.82099706  0.64634079  0.80156490  1
  O  O572  1  0.82296303  0.98150078  0.05021701  1
  O  O573  1  0.82287771  0.98056939  0.30116695  1
  O  O574  1  0.82393660  0.97881408  0.55008571  1
  O  O575  1  0.82333014  0.97855479  0.79987921  1
  O  O576  1  0.42768261  0.14918087  0.17647446  1
  O  O577  1  0.42774883  0.14683361  0.42735487  1
  O  O578  1  0.42714368  0.14511962  0.67423068  1
  O  O579  1  0.42608639  0.14729095  0.92378223  1
  O  O580  1  0.42718531  0.48202930  0.17525861  1
  O  O581  1  0.42664775  0.48122566  0.42617787  1
  O  O582  1  0.42803702  0.47974038  0.67683239  1
  O  O583  1  0.42744325  0.47948388  0.92431423  1
  O  O584  1  0.42722497  0.81549210  0.17578172  1
  O  O585  1  0.42668952  0.81458247  0.42618681  1
  O  O586  1  0.42635045  0.81236524  0.67463260  1
  O  O587  1  0.42745233  0.81380689  0.92307462  1
  O  O588  1  0.92659158  0.14619098  0.17574553  1
  O  O589  1  0.92679700  0.14517303  0.42504498  1
  O  O590  1  0.92689937  0.14531717  0.67515965  1
  O  O591  1  0.92585596  0.14650208  0.92479388  1
  O  O592  1  0.92802114  0.48097283  0.17654014  1
  O  O593  1  0.92553670  0.48036860  0.42448333  1
  O  O594  1  0.92651017  0.48188363  0.67686522  1
  O  O595  1  0.92673496  0.47945161  0.92613695  1
  O  O596  1  0.92809614  0.81359014  0.17704219  1
  O  O597  1  0.92642614  0.81211522  0.42470284  1
  O  O598  1  0.92601046  0.81215850  0.67499678  1
  O  O599  1  0.92726496  0.81189731  0.92505731  1
  O  O600  1  0.07257806  0.18792768  0.07591585  1
  O  O601  1  0.07370004  0.18766018  0.32507512  1
  O  O602  1  0.07373802  0.18667850  0.57537596  1
  O  O603  1  0.07420823  0.18660563  0.82573015  1
  O  O604  1  0.07355839  0.52186693  0.07530789  1
  O  O605  1  0.07110253  0.51998937  0.32349875  1
  O  O606  1  0.07236196  0.52138014  0.57473470  1
  O  O607  1  0.07187415  0.51954401  0.82363606  1
  O  O608  1  0.07393584  0.85313501  0.07576950  1
  O  O609  1  0.07122082  0.85225052  0.32364552  1
  O  O610  1  0.07280974  0.85371483  0.57475357  1
  O  O611  1  0.07259030  0.85340546  0.82408353  1
  O  O612  1  0.57350895  0.18848506  0.07405517  1
  O  O613  1  0.57343965  0.18496011  0.32431199  1
  O  O614  1  0.57291959  0.18488876  0.57464592  1
  O  O615  1  0.57354898  0.18797241  0.82491763  1
  O  O616  1  0.57496661  0.52023191  0.07444295  1
  O  O617  1  0.57292754  0.51827961  0.32427461  1
  O  O618  1  0.57250278  0.51759384  0.57496203  1
  O  O619  1  0.57146469  0.51905407  0.82246703  1
  O  O620  1  0.57471662  0.85404853  0.07469557  1
  O  O621  1  0.57323429  0.85189504  0.32479179  1
  O  O622  1  0.57235936  0.85190955  0.57395991  1
  O  O623  1  0.57400909  0.85467350  0.82356106  1
  O  O624  1  0.32349177  0.18473882  0.05088242  1
  O  O625  1  0.32455616  0.18715824  0.30085360  1
  O  O626  1  0.32173166  0.18590553  0.55221943  1
  O  O627  1  0.32412454  0.18599870  0.79839710  1
  O  O628  1  0.32412502  0.52095182  0.04907005  1
  O  O629  1  0.32276268  0.52231782  0.30038830  1
  O  O630  1  0.32402645  0.52079437  0.54942055  1
  O  O631  1  0.32272065  0.52080734  0.80020565  1
  O  O632  1  0.32312985  0.85198659  0.05041276  1
  O  O633  1  0.32346999  0.85559006  0.30105047  1
  O  O634  1  0.32210734  0.85415553  0.54988889  1
  O  O635  1  0.32229830  0.85342509  0.80077791  1
  O  O636  1  0.82365439  0.18819415  0.04971510  1
  O  O637  1  0.82392673  0.18584688  0.29960582  1
  O  O638  1  0.82283608  0.18575747  0.55188150  1
  O  O639  1  0.82249481  0.18631111  0.80135265  1
  O  O640  1  0.82443638  0.51999884  0.04957897  1
  O  O641  1  0.82185716  0.51842715  0.30214999  1
  O  O642  1  0.82243086  0.51922162  0.55171967  1
  O  O643  1  0.82181198  0.51915353  0.80112236  1
  O  O644  1  0.82373951  0.85426582  0.05062429  1
  O  O645  1  0.82299244  0.85340618  0.29955639  1
  O  O646  1  0.82335231  0.85189881  0.54889721  1
  O  O647  1  0.82299148  0.85127060  0.80097893  1
  O  O648  1  0.17722414  0.14856184  0.19920885  1
  O  O649  1  0.17722310  0.14635266  0.45058634  1
  O  O650  1  0.17824470  0.14648653  0.69855077  1
  O  O651  1  0.17702825  0.14561379  0.94896217  1
  O  O652  1  0.17662263  0.48166617  0.20016835  1
  O  O653  1  0.17521693  0.48009614  0.45106602  1
  O  O654  1  0.17685531  0.47963254  0.69973475  1
  O  O655  1  0.17559220  0.47993903  0.95021479  1
  O  O656  1  0.17766586  0.81650018  0.19939580  1
  O  O657  1  0.17585355  0.81372930  0.44946045  1
  O  O658  1  0.17563138  0.81412404  0.70082681  1
  O  O659  1  0.17709324  0.81424739  0.94781895  1
  O  O660  1  0.67717884  0.14539962  0.20007688  1
  O  O661  1  0.67739494  0.14542264  0.44932381  1
  O  O662  1  0.67677563  0.14806144  0.69905505  1
  O  O663  1  0.67705044  0.14871542  0.94914764  1
  O  O664  1  0.67726020  0.47873163  0.19901738  1
  O  O665  1  0.67657553  0.48029187  0.44993505  1
  O  O666  1  0.67736055  0.47948274  0.69917562  1
  O  O667  1  0.67787963  0.48026256  0.94795358  1
  O  O668  1  0.67650113  0.81264075  0.20121567  1
  O  O669  1  0.67648545  0.81084821  0.45056773  1
  O  O670  1  0.67657941  0.81137675  0.69963385  1
  O  O671  1  0.67768049  0.81385333  0.94807703  1
