# generated using pymatgen
data_Na2MnFe(PO4)2
_symmetry_space_group_name_H-M   'P 1'
_cell_length_a   22.34299728
_cell_length_b   20.09369484
_cell_length_c   19.45106306
_cell_angle_alpha   89.99719574
_cell_angle_beta   89.99816498
_cell_angle_gamma   89.94268079
_symmetry_Int_Tables_number   1
_chemical_formula_structural   Na2MnFe(PO4)2
_chemical_formula_sum   'Na96 Mn48 Fe48 P96 O384'
_cell_volume   8732.61590865
_cell_formula_units_Z   48
loop_
 _symmetry_equiv_pos_site_id
 _symmetry_equiv_pos_as_xyz
  1  'x, y, z'
loop_
 _atom_site_type_symbol
 _atom_site_label
 _atom_site_symmetry_multiplicity
 _atom_site_fract_x
 _atom_site_fract_y
 _atom_site_fract_z
 _atom_site_occupancy
  Na  Na0  1  0.14054784  0.25155903  0.24489485  1
  Na  Na1  1  0.13976559  0.25080539  0.49401051  1
  Na  Na2  1  0.13993855  0.25044377  0.74313951  1
  Na  Na3  1  0.14033431  0.25000070  0.99368723  1
  Na  Na4  1  0.13961252  0.58371415  0.24309453  1
  Na  Na5  1  0.13965752  0.58284559  0.49345476  1
  Na  Na6  1  0.14021723  0.58261260  0.74239358  1
  Na  Na7  1  0.13996402  0.58258627  0.99475324  1
  Na  Na8  1  0.13961640  0.91662240  0.24388345  1
  Na  Na9  1  0.13940353  0.91554092  0.49301360  1
  Na  Na10  1  0.13964750  0.91627892  0.74261268  1
  Na  Na11  1  0.14022482  0.91681700  0.99391261  1
  Na  Na12  1  0.64095821  0.24973979  0.24357764  1
  Na  Na13  1  0.64075709  0.24855939  0.49324741  1
  Na  Na14  1  0.64092771  0.25067799  0.74333028  1
  Na  Na15  1  0.64105005  0.24907062  0.99394989  1
  Na  Na16  1  0.64035989  0.58392058  0.24422648  1
  Na  Na17  1  0.63975949  0.58263859  0.49416781  1
  Na  Na18  1  0.64072484  0.58325555  0.74327419  1
  Na  Na19  1  0.64114979  0.58254533  0.99327780  1
  Na  Na20  1  0.64100180  0.91795581  0.24321605  1
  Na  Na21  1  0.64068167  0.91783735  0.49384842  1
  Na  Na22  1  0.64054334  0.91729309  0.74383513  1
  Na  Na23  1  0.64086905  0.91703436  0.99313004  1
  Na  Na24  1  0.35931715  0.08314989  0.00562859  1
  Na  Na25  1  0.35960621  0.08468229  0.25570267  1
  Na  Na26  1  0.35951977  0.08402548  0.50564789  1
  Na  Na27  1  0.35933547  0.08296146  0.75699803  1
  Na  Na28  1  0.35989282  0.41603389  0.00544103  1
  Na  Na29  1  0.35944086  0.41797963  0.25555827  1
  Na  Na30  1  0.35951361  0.41758829  0.50723104  1
  Na  Na31  1  0.36009770  0.41559365  0.75572519  1
  Na  Na32  1  0.35949095  0.74941910  0.00653338  1
  Na  Na33  1  0.36024059  0.75025709  0.25594276  1
  Na  Na34  1  0.35965621  0.74811497  0.50556274  1
  Na  Na35  1  0.35912319  0.74976529  0.75527970  1
  Na  Na36  1  0.85969693  0.08256313  0.00599323  1
  Na  Na37  1  0.85972668  0.08373276  0.25742578  1
  Na  Na38  1  0.85984220  0.08291620  0.50645755  1
  Na  Na39  1  0.85988849  0.08314571  0.75606071  1
  Na  Na40  1  0.85997680  0.41629123  0.00687721  1
  Na  Na41  1  0.85983916  0.41650191  0.25696947  1
  Na  Na42  1  0.85928968  0.41548658  0.50707578  1
  Na  Na43  1  0.85977060  0.41774902  0.75653669  1
  Na  Na44  1  0.85925922  0.75035133  0.00585363  1
  Na  Na45  1  0.86009746  0.75078254  0.25797394  1
  Na  Na46  1  0.86010240  0.74981669  0.50814910  1
  Na  Na47  1  0.85955364  0.75080934  0.75705423  1
  Na  Na48  1  0.10941337  0.08269588  0.11902706  1
  Na  Na49  1  0.10894380  0.08225843  0.36955846  1
  Na  Na50  1  0.10896692  0.08241677  0.61857330  1
  Na  Na51  1  0.10971587  0.08334750  0.86713600  1
  Na  Na52  1  0.11017006  0.41743748  0.11901928  1
  Na  Na53  1  0.10941328  0.41644134  0.36907122  1
  Na  Na54  1  0.10950229  0.41583446  0.61762793  1
  Na  Na55  1  0.10936926  0.41814805  0.86879643  1
  Na  Na56  1  0.10913027  0.74980719  0.11989088  1
  Na  Na57  1  0.10883212  0.74946755  0.36880595  1
  Na  Na58  1  0.10874005  0.75001251  0.61819518  1
  Na  Na59  1  0.10905361  0.75079695  0.86785254  1
  Na  Na60  1  0.61049817  0.08444661  0.11856092  1
  Na  Na61  1  0.61057936  0.08290438  0.36742965  1
  Na  Na62  1  0.61043841  0.08285064  0.61861161  1
  Na  Na63  1  0.61020206  0.08334542  0.86836741  1
  Na  Na64  1  0.61020690  0.41696335  0.11896106  1
  Na  Na65  1  0.60958032  0.41724439  0.36863276  1
  Na  Na66  1  0.60989284  0.41757145  0.61888786  1
  Na  Na67  1  0.61002629  0.41584005  0.86880811  1
  Na  Na68  1  0.60977398  0.75108402  0.11894089  1
  Na  Na69  1  0.60951700  0.74946968  0.36971312  1
  Na  Na70  1  0.60969496  0.74879592  0.61920552  1
  Na  Na71  1  0.61017203  0.75009710  0.86775181  1
  Na  Na72  1  0.39016414  0.25106080  0.13067931  1
  Na  Na73  1  0.39045767  0.25092967  0.38070397  1
  Na  Na74  1  0.39054692  0.25020078  0.63151747  1
  Na  Na75  1  0.39034560  0.24945308  0.88076702  1
  Na  Na76  1  0.39085950  0.58410076  0.13141937  1
  Na  Na77  1  0.39010383  0.58381522  0.38134272  1
  Na  Na78  1  0.38972760  0.58219172  0.63100027  1
  Na  Na79  1  0.39034688  0.58164865  0.87984762  1
  Na  Na80  1  0.39042949  0.91710908  0.13071669  1
  Na  Na81  1  0.39102590  0.91529763  0.37984700  1
  Na  Na82  1  0.39037219  0.91643566  0.63074910  1
  Na  Na83  1  0.38989190  0.91750450  0.88129617  1
  Na  Na84  1  0.89054730  0.24943392  0.13262289  1
  Na  Na85  1  0.89026574  0.24877838  0.38300420  1
  Na  Na86  1  0.89016220  0.24878508  0.63087690  1
  Na  Na87  1  0.89047222  0.25164601  0.88114741  1
  Na  Na88  1  0.89062754  0.58339923  0.13192903  1
  Na  Na89  1  0.89059184  0.58335319  0.38208780  1
  Na  Na90  1  0.88975275  0.58387757  0.63259561  1
  Na  Na91  1  0.89030426  0.58464608  0.88106719  1
  Na  Na92  1  0.89006787  0.91637395  0.13233155  1
  Na  Na93  1  0.89084547  0.91683600  0.38227354  1
  Na  Na94  1  0.89040190  0.91628967  0.63196335  1
  Na  Na95  1  0.88967131  0.91681295  0.88067081  1
  Mn  Mn96  1  0.24893940  0.83326992  0.87458634  1
  Mn  Mn97  1  0.49954402  0.33334827  0.25020755  1
  Mn  Mn98  1  -0.00009909  0.83340530  0.00042466  1
  Mn  Mn99  1  0.24983387  0.66570472  0.87523894  1
  Mn  Mn100  1  0.00022858  0.33353315  0.25066540  1
  Mn  Mn101  1  0.24890414  0.33267213  0.87515645  1
  Mn  Mn102  1  0.00040968  0.33496403  0.00119384  1
  Mn  Mn103  1  0.75019120  0.83432962  0.12533193  1
  Mn  Mn104  1  0.50020002  0.16611019  0.75038444  1
  Mn  Mn105  1  0.24993311  0.66665226  0.12453807  1
  Mn  Mn106  1  -0.00050558  0.50015139  0.50056106  1
  Mn  Mn107  1  -0.00016278  0.16699250  -0.00017492  1
  Mn  Mn108  1  0.24962146  0.16852913  0.37560238  1
  Mn  Mn109  1  -0.00043387  0.66656871  0.00026210  1
  Mn  Mn110  1  0.75055317  0.50000008  0.87509531  1
  Mn  Mn111  1  0.24954334  0.50020613  0.37498511  1
  Mn  Mn112  1  0.24920580  0.16764057  0.12513354  1
  Mn  Mn113  1  -0.00018208  0.16701287  0.74943545  1
  Mn  Mn114  1  0.24991229  0.49913404  0.87420609  1
  Mn  Mn115  1  0.25008671  0.00024387  0.37458369  1
  Mn  Mn116  1  0.74977906  0.83484981  0.37646694  1
  Mn  Mn117  1  0.50004239  0.16620141  0.50051888  1
  Mn  Mn118  1  0.75069835  0.33272016  0.12552227  1
  Mn  Mn119  1  0.75037898  0.66674619  0.37569400  1
  Mn  Mn120  1  -0.00020503  0.50052169  0.74945690  1
  Mn  Mn121  1  0.50001754  0.00041345  0.24958948  1
  Mn  Mn122  1  0.50061609  0.66683883  -0.00044518  1
  Mn  Mn123  1  0.00019346  -0.00035133  -0.00028979  1
  Mn  Mn124  1  0.25016537  0.83217282  0.62407166  1
  Mn  Mn125  1  0.75058231  0.49936407  0.37552751  1
  Mn  Mn126  1  0.74986763  0.66650763  0.12537007  1
  Mn  Mn127  1  0.50100189  0.33399216  0.50016163  1
  Mn  Mn128  1  0.49953949  0.83371179  0.74927243  1
  Mn  Mn129  1  0.00081321  0.16554432  0.25135039  1
  Mn  Mn130  1  0.75053989  0.16651900  0.87490171  1
  Mn  Mn131  1  0.24940407  -0.00017091  0.12494177  1
  Mn  Mn132  1  0.50074479  0.49931382  0.00029963  1
  Mn  Mn133  1  0.49954708  0.83447399  -0.00085118  1
  Mn  Mn134  1  0.74973475  0.83375410  0.62568712  1
  Mn  Mn135  1  0.49999425  -0.00060825  0.49876250  1
  Mn  Mn136  1  0.24919407  0.16749742  0.62528649  1
  Mn  Mn137  1  0.49942858  0.66536949  0.74934299  1
  Mn  Mn138  1  0.49998065  0.50104580  0.24941451  1
  Mn  Mn139  1  0.50031036  0.16725266  -0.00078282  1
  Mn  Mn140  1  0.75003222  0.33285514  0.62484727  1
  Mn  Mn141  1  0.24959093  -0.00000626  0.62492592  1
  Mn  Mn142  1  0.50056824  0.83210183  0.50027899  1
  Mn  Mn143  1  0.25037437  0.83249197  0.37465146  1
  Fe  Fe144  1  -0.00057286  0.83297889  0.50002953  1
  Fe  Fe145  1  0.25034227  0.33463028  0.37486522  1
  Fe  Fe146  1  0.25003959  0.33394162  0.12452245  1
  Fe  Fe147  1  -0.00042866  -0.00068193  0.25089539  1
  Fe  Fe148  1  0.74977920  0.00029884  0.87494041  1
  Fe  Fe149  1  0.75011528  0.66668512  0.87521940  1
  Fe  Fe150  1  0.50037451  0.49922354  0.75007304  1
  Fe  Fe151  1  -0.00055575  -0.00041040  0.74894915  1
  Fe  Fe152  1  0.75016741  0.00062366  0.62497017  1
  Fe  Fe153  1  0.24960045  0.66628718  0.37443000  1
  Fe  Fe154  1  0.50070517  0.33330574  0.74981372  1
  Fe  Fe155  1  -0.00048573  0.83348786  0.74903660  1
  Fe  Fe156  1  0.24997164  0.83319465  0.12467173  1
  Fe  Fe157  1  0.49950143  0.66581797  0.49974294  1
  Fe  Fe158  1  0.75011442  0.16606382  0.37466369  1
  Fe  Fe159  1  0.50079253  0.83346843  0.24955777  1
  Fe  Fe160  1  -0.00054864  0.33287663  0.49979494  1
  Fe  Fe161  1  0.74973383  0.83364935  0.87504167  1
  Fe  Fe162  1  -0.00021217  0.33364082  0.74980734  1
  Fe  Fe163  1  0.75050139  0.49957137  0.12504607  1
  Fe  Fe164  1  -0.00048153  0.66698258  0.50016910  1
  Fe  Fe165  1  0.50049482  0.00085194  0.00034322  1
  Fe  Fe166  1  -0.00038856  0.50000542  0.25079680  1
  Fe  Fe167  1  0.49964055  0.50006631  0.49998909  1
  Fe  Fe168  1  -0.00054473  0.66653025  0.25061699  1
  Fe  Fe169  1  0.75050903  0.33309923  0.87508468  1
  Fe  Fe170  1  0.50012609  -0.00011579  0.74975211  1
  Fe  Fe171  1  0.74989538  0.49969301  0.62535753  1
  Fe  Fe172  1  0.74975493  0.33275143  0.37510317  1
  Fe  Fe173  1  0.75073063  0.00058865  0.12463597  1
  Fe  Fe174  1  0.25041966  0.50012967  0.12517850  1
  Fe  Fe175  1  0.24910863  0.66584815  0.62474783  1
  Fe  Fe176  1  0.25042853  0.33331533  0.62493248  1
  Fe  Fe177  1  0.50026746  0.33332903  -0.00030621  1
  Fe  Fe178  1  0.24991425  0.16661797  0.87484601  1
  Fe  Fe179  1  -0.00008055  0.83307835  0.25110612  1
  Fe  Fe180  1  0.00005761  0.16573298  0.50071076  1
  Fe  Fe181  1  0.50033255  0.16718246  0.24911457  1
  Fe  Fe182  1  0.50055386  0.66721036  0.25052987  1
  Fe  Fe183  1  0.00001142  -0.00117288  0.50016656  1
  Fe  Fe184  1  0.24967157  -0.00021916  0.87494240  1
  Fe  Fe185  1  0.24951809  0.49954722  0.62417752  1
  Fe  Fe186  1  -0.00018411  0.50093609  -0.00014650  1
  Fe  Fe187  1  0.75059093  0.00111978  0.37491176  1
  Fe  Fe188  1  -0.00005691  0.66744957  0.75028199  1
  Fe  Fe189  1  0.74972150  0.66671983  0.62607930  1
  Fe  Fe190  1  0.75122345  0.16653240  0.12545370  1
  Fe  Fe191  1  0.75000736  0.16611547  0.62412398  1
  P  P192  1  0.04306221  0.24994577  0.10357905  1
  P  P193  1  0.04233683  0.24981018  0.35477688  1
  P  P194  1  0.04083188  0.25010248  0.60183983  1
  P  P195  1  0.04218069  0.25189506  0.85219202  1
  P  P196  1  0.04171590  0.58218713  0.10361069  1
  P  P197  1  0.04090513  0.58338445  0.35230572  1
  P  P198  1  0.04143867  0.58513032  0.60284836  1
  P  P199  1  0.04221104  0.58476503  0.85226573  1
  P  P200  1  0.04230187  0.91643198  0.10435626  1
  P  P201  1  0.04129982  0.91606093  0.35286765  1
  P  P202  1  0.04088240  0.91582650  0.60198043  1
  P  P203  1  0.04106021  0.91651127  0.85063805  1
  P  P204  1  0.54273071  0.25127104  0.10236039  1
  P  P205  1  0.54266494  0.24883851  0.35223626  1
  P  P206  1  0.54316439  0.25023140  0.60376971  1
  P  P207  1  0.54252041  0.25122498  0.85248185  1
  P  P208  1  0.54352235  0.58409227  0.10341196  1
  P  P209  1  0.54206601  0.58457014  0.35321813  1
  P  P210  1  0.54110190  0.58251871  0.60182376  1
  P  P211  1  0.54278236  0.58152081  0.85207942  1
  P  P212  1  0.54245990  0.91811696  0.10236981  1
  P  P213  1  0.54290608  0.91518853  0.35185060  1
  P  P214  1  0.54305338  0.91680083  0.60321874  1
  P  P215  1  0.54209178  0.91825539  0.85240058  1
  P  P216  1  0.45794900  0.08507615  0.14679503  1
  P  P217  1  0.45732035  0.08379379  0.39578520  1
  P  P218  1  0.45758578  0.08194965  0.64766444  1
  P  P219  1  0.45811514  0.08194071  0.89714304  1
  P  P220  1  0.45738588  0.41659189  0.14636808  1
  P  P221  1  0.45747781  0.41809323  0.39775275  1
  P  P222  1  0.45894590  0.41687885  0.64801543  1
  P  P223  1  0.45824986  0.41508613  0.89664866  1
  P  P224  1  0.45889675  0.75048914  0.14829268  1
  P  P225  1  0.45807686  0.74820400  0.39676726  1
  P  P226  1  0.45696066  0.74898924  0.64610460  1
  P  P227  1  0.45688858  0.75000971  0.89645998  1
  P  P228  1  0.95782550  0.08187301  0.14841385  1
  P  P229  1  0.95889721  0.08207254  0.39885112  1
  P  P230  1  0.95809666  0.08187317  0.64640051  1
  P  P231  1  0.95743207  0.08331269  0.89605400  1
  P  P232  1  0.95789978  0.41845171  0.14795427  1
  P  P233  1  0.95749082  0.41596920  0.39788264  1
  P  P234  1  0.95774704  0.41510203  0.64706972  1
  P  P235  1  0.95768839  0.41866536  0.89748347  1
  P  P236  1  0.95822616  0.75013941  0.14937792  1
  P  P237  1  0.95815576  0.74988055  0.39821591  1
  P  P238  1  0.95797528  0.74993857  0.64777195  1
  P  P239  1  0.95740167  0.75059916  0.89630439  1
  P  P240  1  0.20675108  0.08412662  0.22821133  1
  P  P241  1  0.20678893  0.08392307  0.47812282  1
  P  P242  1  0.20685067  0.08348041  0.72899884  1
  P  P243  1  0.20801148  0.08352874  0.97624258  1
  P  P244  1  0.20865233  0.41704782  0.22680398  1
  P  P245  1  0.20779704  0.41580827  0.47816276  1
  P  P246  1  0.20819459  0.41611232  0.72593224  1
  P  P247  1  0.20704372  0.41667857  0.97884441  1
  P  P248  1  0.20782079  0.75091309  0.22747145  1
  P  P249  1  0.20753621  0.74762374  0.47742760  1
  P  P250  1  0.20713188  0.74847294  0.72684462  1
  P  P251  1  0.20674937  0.74978743  0.97838912  1
  P  P252  1  0.70929714  0.08358749  0.22698497  1
  P  P253  1  0.70847040  0.08352116  0.47683729  1
  P  P254  1  0.70915114  0.08372823  0.72665325  1
  P  P255  1  0.70821854  0.08213245  0.97786865  1
  P  P256  1  0.70809405  0.41742249  0.22782666  1
  P  P257  1  0.70771215  0.41482406  0.47774857  1
  P  P258  1  0.70827683  0.41765348  0.72772772  1
  P  P259  1  0.70847838  0.41506856  0.97776629  1
  P  P260  1  0.70763873  0.75084684  0.22856974  1
  P  P261  1  0.70754269  0.74991203  0.47948088  1
  P  P262  1  0.70800654  0.74916085  0.72873028  1
  P  P263  1  0.70863856  0.74999448  0.97657397  1
  P  P264  1  0.29190633  0.25078247  0.02205690  1
  P  P265  1  0.29223318  0.25271353  0.27211357  1
  P  P266  1  0.29246319  0.25190192  0.52234164  1
  P  P267  1  0.29196241  0.24908824  0.77232901  1
  P  P268  1  0.29289610  0.58169981  0.02257116  1
  P  P269  1  0.29186788  0.58423599  0.27206016  1
  P  P270  1  0.29067825  0.58327563  0.52285884  1
  P  P271  1  0.29213734  0.58274391  0.77041015  1
  P  P272  1  0.29182531  0.91570192  0.02192190  1
  P  P273  1  0.29283458  0.91630227  0.27101755  1
  P  P274  1  0.29281617  0.91620847  0.52144780  1
  P  P275  1  0.29188817  0.91746317  0.77236599  1
  P  P276  1  0.79313118  0.24834522  0.02274308  1
  P  P277  1  0.79200400  0.24962854  0.27364739  1
  P  P278  1  0.79203205  0.24807518  0.52167418  1
  P  P279  1  0.79250048  0.25107974  0.77218884  1
  P  P280  1  0.79229010  0.58223098  0.02253377  1
  P  P281  1  0.79309972  0.58297225  0.27206372  1
  P  P282  1  0.79123661  0.58303276  0.52431000  1
  P  P283  1  0.79222802  0.58512697  0.77222634  1
  P  P284  1  0.79219432  0.91792657  0.02188204  1
  P  P285  1  0.79248175  0.91881404  0.27292573  1
  P  P286  1  0.79204042  0.91852585  0.52290128  1
  P  P287  1  0.79097310  0.91731723  0.77330384  1
  O  O288  1  0.03814074  0.24959743  0.18356949  1
  O  O289  1  0.03663443  0.24991497  0.43464255  1
  O  O290  1  0.03593940  0.25057607  0.68182731  1
  O  O291  1  0.03709691  0.25166128  0.93215871  1
  O  O292  1  0.03616072  0.58213943  0.18345527  1
  O  O293  1  0.03590759  0.58419356  0.43226617  1
  O  O294  1  0.03636208  0.58522031  0.68275950  1
  O  O295  1  0.03702522  0.58384876  0.93222325  1
  O  O296  1  0.03701615  0.91664888  0.18424684  1
  O  O297  1  0.03602640  0.91624461  0.43275298  1
  O  O298  1  0.03575747  0.91556828  0.68185766  1
  O  O299  1  0.03660342  0.91671520  0.93066043  1
  O  O300  1  0.53738914  0.25041720  0.18229005  1
  O  O301  1  0.53758323  0.24908766  0.43221796  1
  O  O302  1  0.53794124  0.25053141  0.68371205  1
  O  O303  1  0.53729343  0.25130745  0.93242252  1
  O  O304  1  0.53825479  0.58484377  0.18337834  1
  O  O305  1  0.53658480  0.58400329  0.43312069  1
  O  O306  1  0.53614353  0.58173983  0.68176633  1
  O  O307  1  0.53801073  0.58181697  0.93205845  1
  O  O308  1  0.53725421  0.91721522  0.18227855  1
  O  O309  1  0.53774051  0.91530027  0.43179503  1
  O  O310  1  0.53773936  0.91752366  0.68317724  1
  O  O311  1  0.53704285  0.91866238  0.93236950  1
  O  O312  1  0.46330581  0.08456412  0.06686329  1
  O  O313  1  0.46257928  0.08460730  0.31582665  1
  O  O314  1  0.46238753  0.08229545  0.56764806  1
  O  O315  1  0.46336900  0.08148510  0.81719655  1
  O  O316  1  0.46277709  0.41593126  0.06646954  1
  O  O317  1  0.46224366  0.41796095  0.31779327  1
  O  O318  1  0.46388160  0.41742427  0.56804138  1
  O  O319  1  0.46383212  0.41534925  0.81675132  1
  O  O320  1  0.46374442  0.75066123  0.06829047  1
  O  O321  1  0.46357390  0.74841842  0.31690539  1
  O  O322  1  0.46238284  0.74846326  0.56618932  1
  O  O323  1  0.46168919  0.74988139  0.81648032  1
  O  O324  1  0.96276210  0.08236344  0.06841981  1
  O  O325  1  0.96379596  0.08194703  0.31888340  1
  O  O326  1  0.96365062  0.08171894  0.56656697  1
  O  O327  1  0.96253090  0.08320479  0.81608634  1
  O  O328  1  0.96310729  0.41885750  0.06798901  1
  O  O329  1  0.96281368  0.41677523  0.31796794  1
  O  O330  1  0.96295324  0.41482090  0.56714840  1
  O  O331  1  0.96280231  0.41794906  0.81752804  1
  O  O332  1  0.96290602  0.74983898  0.06938848  1
  O  O333  1  0.96340628  0.75016324  0.31836440  1
  O  O334  1  0.96290302  0.74943856  0.56784886  1
  O  O335  1  0.96266031  0.75080260  0.81642014  1
  O  O336  1  0.21273854  0.08343550  0.05627664  1
  O  O337  1  0.21197456  0.08421682  0.30811274  1
  O  O338  1  0.21174238  0.08388445  0.55812236  1
  O  O339  1  0.21215319  0.08345382  0.80893878  1
  O  O340  1  0.21247022  0.41693978  0.05872027  1
  O  O341  1  0.21384608  0.41671098  0.30679905  1
  O  O342  1  0.21318128  0.41585431  0.55800050  1
  O  O343  1  0.21248779  0.41626455  0.80594900  1
  O  O344  1  0.21219316  0.75050811  0.05831700  1
  O  O345  1  0.21309708  0.75009600  0.30739702  1
  O  O346  1  0.21266953  0.74724927  0.55738166  1
  O  O347  1  0.21198113  0.74893519  0.80681724  1
  O  O348  1  0.71371524  0.08227126  0.05765927  1
  O  O349  1  0.71437245  0.08363259  0.30689927  1
  O  O350  1  0.71343356  0.08372300  0.55670612  1
  O  O351  1  0.71368214  0.08315595  0.80658016  1
  O  O352  1  0.71373253  0.41552853  0.05767492  1
  O  O353  1  0.71316800  0.41664221  0.30775987  1
  O  O354  1  0.71294430  0.41521220  0.55762937  1
  O  O355  1  0.71339942  0.41742134  0.80760413  1
  O  O356  1  0.71331502  0.75037937  0.05658344  1
  O  O357  1  0.71275732  0.75097618  0.30851064  1
  O  O358  1  0.71269853  0.74942355  0.55944985  1
  O  O359  1  0.71340059  0.74920825  0.80862244  1
  O  O360  1  0.28661547  0.25280749  0.19219230  1
  O  O361  1  0.28737399  0.25233018  0.44238955  1
  O  O362  1  0.28695430  0.24977415  0.69238760  1
  O  O363  1  0.28664320  0.24964848  0.94211940  1
  O  O364  1  0.28687647  0.58340735  0.19214482  1
  O  O365  1  0.28616616  0.58340906  0.44284936  1
  O  O366  1  0.28653226  0.58296981  0.69052444  1
  O  O367  1  0.28787240  0.58184936  0.94258549  1
  O  O368  1  0.28754625  0.91577538  0.19105297  1
  O  O369  1  0.28779671  0.91625401  0.44147887  1
  O  O370  1  0.28729923  0.91717664  0.69235784  1
  O  O371  1  0.28613312  0.91645468  0.94198654  1
  O  O372  1  0.78732325  0.24921661  0.19363823  1
  O  O373  1  0.78656736  0.24839197  0.44184240  1
  O  O374  1  0.78718379  0.25070056  0.69234830  1
  O  O375  1  0.78801043  0.24893393  0.94283605  1
  O  O376  1  0.78797112  0.58254131  0.19213539  1
  O  O377  1  0.78663841  0.58286167  0.44430173  1
  O  O378  1  0.78688919  0.58524906  0.69239231  1
  O  O379  1  0.78690901  0.58282580  0.94260609  1
  O  O380  1  0.78749073  0.91875264  0.19295909  1
  O  O381  1  0.78716948  0.91896021  0.44296944  1
  O  O382  1  0.78622110  0.91695995  0.69337328  1
  O  O383  1  0.78666189  0.91754218  0.94204025  1
  O  O384  1  0.22765269  0.25173042  0.05778054  1
  O  O385  1  0.22808420  0.25309184  0.30826700  1
  O  O386  1  0.22804422  0.25226209  0.55778591  1
  O  O387  1  0.22762751  0.24811469  0.80788370  1
  O  O388  1  0.22850253  0.58170005  0.05793472  1
  O  O389  1  0.22753131  0.58442015  0.30767472  1
  O  O390  1  0.22646011  0.58343331  0.55851269  1
  O  O391  1  0.22793461  0.58282761  0.80627390  1
  O  O392  1  0.22767401  0.91486168  0.05802822  1
  O  O393  1  0.22848559  0.91636101  0.30635228  1
  O  O394  1  0.22830041  0.91604072  0.55630339  1
  O  O395  1  0.22738058  0.91777812  0.80733456  1
  O  O396  1  0.72885902  0.24816294  0.05846973  1
  O  O397  1  0.72772476  0.24981116  0.30933190  1
  O  O398  1  0.72794794  0.24797923  0.55796010  1
  O  O399  1  0.72829517  0.25119046  0.80816312  1
  O  O400  1  0.72808249  0.58190459  0.05842461  1
  O  O401  1  0.72873816  0.58310334  0.30735400  1
  O  O402  1  0.72698424  0.58310811  0.55990444  1
  O  O403  1  0.72812202  0.58487777  0.80842121  1
  O  O404  1  0.72810205  0.91849370  0.05816502  1
  O  O405  1  0.72815922  0.91921718  0.30856302  1
  O  O406  1  0.72775310  0.91809589  0.55836920  1
  O  O407  1  0.72689496  0.91774232  0.80939739  1
  O  O408  1  0.27110375  0.08388681  0.19300755  1
  O  O409  1  0.27125828  0.08412496  0.44320229  1
  O  O410  1  0.27114389  0.08373227  0.69344263  1
  O  O411  1  0.27227610  0.08367921  0.94057341  1
  O  O412  1  0.27272119  0.41718448  0.19054371  1
  O  O413  1  0.27196882  0.41587758  0.44206095  1
  O  O414  1  0.27258454  0.41586911  0.69068957  1
  O  O415  1  0.27127258  0.41595237  0.94309378  1
  O  O416  1  0.27203018  0.75127358  0.19153392  1
  O  O417  1  0.27185539  0.74750538  0.44183255  1
  O  O418  1  0.27155619  0.74809177  0.69161783  1
  O  O419  1  0.27107458  0.74983530  0.94300644  1
  O  O420  1  0.77339354  0.08338884  0.19070741  1
  O  O421  1  0.77269912  0.08350430  0.44075731  1
  O  O422  1  0.77331540  0.08448265  0.69082733  1
  O  O423  1  0.77230876  0.08182967  0.94153751  1
  O  O424  1  0.77238634  0.41774279  0.19210543  1
  O  O425  1  0.77203374  0.41425557  0.44209729  1
  O  O426  1  0.77247024  0.41767475  0.69190326  1
  O  O427  1  0.77268455  0.41499101  0.94184422  1
  O  O428  1  0.77199984  0.75048118  0.19338491  1
  O  O429  1  0.77189869  0.75049965  0.44420159  1
  O  O430  1  0.77207163  0.74905414  0.69248550  1
  O  O431  1  0.77284066  0.74967940  0.94093971  1
  O  O432  1  0.02219974  0.08123851  0.18380299  1
  O  O433  1  0.02293306  0.08173485  0.43492541  1
  O  O434  1  0.02206562  0.08213487  0.68277449  1
  O  O435  1  0.02179227  0.08345414  0.93139764  1
  O  O436  1  0.02214595  0.41835172  0.18374841  1
  O  O437  1  0.02171219  0.41584031  0.43363718  1
  O  O438  1  0.02199683  0.41532773  0.68285382  1
  O  O439  1  0.02199190  0.41926080  0.93320410  1
  O  O440  1  0.02239982  0.75079643  0.18515036  1
  O  O441  1  0.02217305  0.74926982  0.43463011  1
  O  O442  1  0.02211161  0.75055922  0.68394680  1
  O  O443  1  0.02160136  0.75011127  0.93213357  1
  O  O444  1  0.52221060  0.08518575  0.18263073  1
  O  O445  1  0.52173682  0.08342836  0.43102040  1
  O  O446  1  0.52209765  0.08194155  0.68269464  1
  O  O447  1  0.52239142  0.08211240  0.93285684  1
  O  O448  1  0.52163145  0.41678456  0.18189221  1
  O  O449  1  0.52198067  0.41877275  0.43285877  1
  O  O450  1  0.52312461  0.41707457  0.68400080  1
  O  O451  1  0.52239184  0.41466596  0.93293708  1
  O  O452  1  0.52310876  0.75040718  0.18412308  1
  O  O453  1  0.52214748  0.74755848  0.43311490  1
  O  O454  1  0.52122741  0.74935351  0.68159028  1
  O  O455  1  0.52148788  0.75050841  0.93109945  1
  O  O456  1  0.47847473  0.25180320  0.06649460  1
  O  O457  1  0.47827947  0.24822066  0.31677700  1
  O  O458  1  0.47884206  0.25048654  0.56840469  1
  O  O459  1  0.47830527  0.25105819  0.81673491  1
  O  O460  1  0.47914303  0.58356974  0.06816857  1
  O  O461  1  0.47796508  0.58511010  0.31699443  1
  O  O462  1  0.47691367  0.58253983  0.56579758  1
  O  O463  1  0.47831213  0.58085332  0.81692296  1
  O  O464  1  0.47813309  0.91877276  0.06670238  1
  O  O465  1  0.47861131  0.91525552  0.31627799  1
  O  O466  1  0.47871568  0.91631609  0.56791160  1
  O  O467  1  0.47775128  0.91819657  0.81680662  1
  O  O468  1  0.97858581  0.25040287  0.06863191  1
  O  O469  1  0.97826482  0.24965384  0.31871458  1
  O  O470  1  0.97679502  0.25016453  0.56577896  1
  O  O471  1  0.97782987  0.25194146  0.81670270  1
  O  O472  1  0.97764843  0.58197313  0.06713278  1
  O  O473  1  0.97678775  0.58268316  0.31637001  1
  O  O474  1  0.97717564  0.58505789  0.56714295  1
  O  O475  1  0.97792036  0.58502094  0.81662578  1
  O  O476  1  0.97803040  0.91665714  0.06867682  1
  O  O477  1  0.97728777  0.91580707  0.31634347  1
  O  O478  1  0.97682270  0.91649381  0.56574686  1
  O  O479  1  0.97675975  0.91590414  0.81509407  1
  O  O480  1  0.07411913  0.31349568  0.07578036  1
  O  O481  1  0.07349880  0.31320034  0.32634242  1
  O  O482  1  0.07210827  0.31327683  0.57325815  1
  O  O483  1  0.07280168  0.31551752  0.82377530  1
  O  O484  1  0.07264050  0.64604001  0.07585346  1
  O  O485  1  0.07120885  0.64706134  0.32321591  1
  O  O486  1  0.07240293  0.64819374  0.57381786  1
  O  O487  1  0.07274882  0.64853761  0.82410103  1
  O  O488  1  0.07364705  0.97951935  0.07536813  1
  O  O489  1  0.07198408  0.97973318  0.32434430  1
  O  O490  1  0.07253351  0.97903339  0.57385107  1
  O  O491  1  0.07102034  0.98058603  0.82210752  1
  O  O492  1  0.57360597  0.31485024  0.07427136  1
  O  O493  1  0.57308992  0.31294726  0.32470604  1
  O  O494  1  0.57460406  0.31333024  0.57527362  1
  O  O495  1  0.57341310  0.31442016  0.82356469  1
  O  O496  1  0.57452364  0.64731796  0.07460341  1
  O  O497  1  0.57327694  0.64786918  0.32475098  1
  O  O498  1  0.57163606  0.64654884  0.57414390  1
  O  O499  1  0.57316981  0.64544442  0.82406555  1
  O  O500  1  0.57319993  0.98186475  0.07440915  1
  O  O501  1  0.57393192  0.97884296  0.32412479  1
  O  O502  1  0.57410550  0.97995558  0.57431934  1
  O  O503  1  0.57306131  0.98141067  0.82330375  1
  O  O504  1  0.42662769  0.02166850  0.17474748  1
  O  O505  1  0.42647592  0.01982679  0.42317877  1
  O  O506  1  0.42699399  0.01837529  0.67610272  1
  O  O507  1  0.42713679  0.01897695  0.92644384  1
  O  O508  1  0.42611831  0.35350629  0.17504010  1
  O  O509  1  0.42722911  0.35410960  0.42577728  1
  O  O510  1  0.42870044  0.35273091  0.67599411  1
  O  O511  1  0.42716908  0.35174205  0.92521369  1
  O  O512  1  0.42806922  0.68680222  0.17628523  1
  O  O513  1  0.42681741  0.68504806  0.42562715  1
  O  O514  1  0.42582454  0.68573538  0.67453620  1
  O  O515  1  0.42635910  0.68632620  0.92481055  1
  O  O516  1  0.92688186  0.01850193  0.17686520  1
  O  O517  1  0.92743122  0.01884815  0.42696157  1
  O  O518  1  0.92756034  0.01826078  0.67530204  1
  O  O519  1  0.92638821  0.01995137  0.92440367  1
  O  O520  1  0.92705077  0.35440206  0.17530286  1
  O  O521  1  0.92684050  0.35219178  0.42590510  1
  O  O522  1  0.92690049  0.35190891  0.67611106  1
  O  O523  1  0.92683757  0.35517289  0.92599211  1
  O  O524  1  0.92822621  0.68596235  0.17764840  1
  O  O525  1  0.92665124  0.68660393  0.42647396  1
  O  O526  1  0.92757213  0.68636011  0.67694102  1
  O  O527  1  0.92606189  0.68735610  0.92476252  1
  O  O528  1  0.17558890  0.02077425  0.20004451  1
  O  O529  1  0.17598066  0.02034111  0.45004086  1
  O  O530  1  0.17587665  0.02003765  0.70043438  1
  O  O531  1  0.17756989  0.01956309  0.94814777  1
  O  O532  1  0.17762833  0.35363456  0.19845076  1
  O  O533  1  0.17686273  0.35262623  0.44917947  1
  O  O534  1  0.17728472  0.35251572  0.69793604  1
  O  O535  1  0.17543016  0.35352031  0.95053847  1
  O  O536  1  0.17662995  0.68744120  0.19944653  1
  O  O537  1  0.17656286  0.68457928  0.44812877  1
  O  O538  1  0.17628356  0.68505117  0.69846225  1
  O  O539  1  0.17612134  0.68578367  0.95087678  1
  O  O540  1  0.67815019  0.02020517  0.19853487  1
  O  O541  1  0.67768362  0.01990023  0.44832525  1
  O  O542  1  0.67896200  0.01987744  0.69774142  1
  O  O543  1  0.67708277  0.01900412  0.94886757  1
  O  O544  1  0.67697185  0.35396082  0.19964421  1
  O  O545  1  0.67688985  0.35138056  0.44913496  1
  O  O546  1  0.67688914  0.35439807  0.69968067  1
  O  O547  1  0.67813574  0.35124396  0.94929187  1
  O  O548  1  0.67642894  0.68749882  0.20050117  1
  O  O549  1  0.67663726  0.68656238  0.45091257  1
  O  O550  1  0.67698997  0.68583765  0.69991845  1
  O  O551  1  0.67755940  0.68638068  0.94878436  1
  O  O552  1  0.32290376  0.31434431  0.05003885  1
  O  O553  1  0.32354203  0.31579881  0.30072576  1
  O  O554  1  0.32366188  0.31489195  0.55145618  1
  O  O555  1  0.32257057  0.31282059  0.80050388  1
  O  O556  1  0.32390202  0.64542003  0.05026634  1
  O  O557  1  0.32227038  0.64807412  0.30027498  1
  O  O558  1  0.32196944  0.64640155  0.55138359  1
  O  O559  1  0.32347108  0.64588191  0.79912975  1
  O  O560  1  0.32266693  0.97942613  0.04986670  1
  O  O561  1  0.32373620  0.98008664  0.29867669  1
  O  O562  1  0.32378631  0.97965079  0.54962073  1
  O  O563  1  0.32247638  0.98094183  0.80120472  1
  O  O564  1  0.82439566  0.31165723  0.05106364  1
  O  O565  1  0.82251902  0.31355219  0.30166522  1
  O  O566  1  0.82328932  0.31147731  0.54989377  1
  O  O567  1  0.82290554  0.31482441  0.80082772  1
  O  O568  1  0.82350821  0.64574958  0.05044630  1
  O  O569  1  0.82389191  0.64669307  0.30015472  1
  O  O570  1  0.82208012  0.64666062  0.55235493  1
  O  O571  1  0.82299929  0.64839871  0.80144508  1
  O  O572  1  0.82345520  0.98108251  0.05059026  1
  O  O573  1  0.82358154  0.98198927  0.30161752  1
  O  O574  1  0.82246992  0.98195423  0.55215469  1
  O  O575  1  0.82230626  0.98074375  0.80111815  1
  O  O576  1  0.42731752  0.14884499  0.17504419  1
  O  O577  1  0.42598857  0.14676128  0.42488661  1
  O  O578  1  0.42654361  0.14559176  0.67568788  1
  O  O579  1  0.42717666  0.14602739  0.92431265  1
  O  O580  1  0.42638678  0.48036916  0.17406282  1
  O  O581  1  0.42632452  0.48137376  0.42633167  1
  O  O582  1  0.42763185  0.48010111  0.67659437  1
  O  O583  1  0.42723496  0.47880941  0.92470368  1
  O  O584  1  0.42830536  0.81441047  0.17635527  1
  O  O585  1  0.42717846  0.81204069  0.42468009  1
  O  O586  1  0.42580475  0.81267651  0.67380881  1
  O  O587  1  0.42563854  0.81337372  0.92469740  1
  O  O588  1  0.92714371  0.14569079  0.17654038  1
  O  O589  1  0.92869909  0.14624501  0.42712478  1
  O  O590  1  0.92642974  0.14524804  0.67418892  1
  O  O591  1  0.92644415  0.14695242  0.92424625  1
  O  O592  1  0.92678229  0.48146804  0.17706602  1
  O  O593  1  0.92609856  0.47926851  0.42629185  1
  O  O594  1  0.92675188  0.47908101  0.67439074  1
  O  O595  1  0.92680969  0.48233500  0.92558406  1
  O  O596  1  0.92678379  0.81343194  0.17749110  1
  O  O597  1  0.92775371  0.81378389  0.42696691  1
  O  O598  1  0.92667960  0.81358312  0.67568445  1
  O  O599  1  0.92646842  0.81406906  0.92500547  1
  O  O600  1  0.07381716  0.18641726  0.07501545  1
  O  O601  1  0.07384293  0.18642933  0.32679261  1
  O  O602  1  0.07120369  0.18578280  0.57416200  1
  O  O603  1  0.07320023  0.18828514  0.82422955  1
  O  O604  1  0.07287801  0.51907717  0.07450811  1
  O  O605  1  0.07223055  0.51966780  0.32484679  1
  O  O606  1  0.07227791  0.52108744  0.57532412  1
  O  O607  1  0.07354961  0.52148163  0.82370123  1
  O  O608  1  0.07322932  0.85284822  0.07592260  1
  O  O609  1  0.07247499  0.85245497  0.32476051  1
  O  O610  1  0.07117452  0.85193391  0.57305313  1
  O  O611  1  0.07242547  0.85314902  0.82259055  1
  O  O612  1  0.57383707  0.18780458  0.07396774  1
  O  O613  1  0.57380594  0.18564145  0.32359624  1
  O  O614  1  0.57386674  0.18639028  0.57576625  1
  O  O615  1  0.57368776  0.18733643  0.82509336  1
  O  O616  1  0.57462167  0.52038974  0.07568859  1
  O  O617  1  0.57314945  0.52094175  0.32496032  1
  O  O618  1  0.57222956  0.51922631  0.57301132  1
  O  O619  1  0.57384777  0.51815917  0.82367470  1
  O  O620  1  0.57351501  0.85467326  0.07383156  1
  O  O621  1  0.57357037  0.85153262  0.32359489  1
  O  O622  1  0.57422545  0.85305639  0.57569589  1
  O  O623  1  0.57293873  0.85426354  0.82488016  1
  O  O624  1  0.32284334  0.18723978  0.05055907  1
  O  O625  1  0.32291217  0.18864051  0.29969366  1
  O  O626  1  0.32305910  0.18784368  0.55003390  1
  O  O627  1  0.32313985  0.18571407  0.80075650  1
  O  O628  1  0.32362791  0.51824477  0.05116892  1
  O  O629  1  0.32322165  0.52101032  0.30060122  1
  O  O630  1  0.32085331  0.51906649  0.55119072  1
  O  O631  1  0.32324906  0.51911528  0.79852119  1
  O  O632  1  0.32305825  0.85223032  0.04998445  1
  O  O633  1  0.32420465  0.85317212  0.29968412  1
  O  O634  1  0.32376277  0.85250773  0.54936966  1
  O  O635  1  0.32282153  0.85368859  0.80011394  1
  O  O636  1  0.82374040  0.18462257  0.05118862  1
  O  O637  1  0.82296008  0.18612696  0.30218646  1
  O  O638  1  0.82289894  0.18458688  0.55040310  1
  O  O639  1  0.82390719  0.18767595  0.80014366  1
  O  O640  1  0.82290112  0.51846968  0.05081246  1
  O  O641  1  0.82435128  0.51985204  0.30088669  1
  O  O642  1  0.82180887  0.51902154  0.55234308  1
  O  O643  1  0.82364584  0.52146913  0.79986696  1
  O  O644  1  0.82313923  0.85416409  0.05014558  1
  O  O645  1  0.82308658  0.85488355  0.30102030  1
  O  O646  1  0.82331661  0.85486969  0.55050506  1
  O  O647  1  0.82116376  0.85325680  0.80192560  1
  O  O648  1  0.17581923  0.14776858  0.20017795  1
  O  O649  1  0.17578299  0.14753553  0.45025091  1
  O  O650  1  0.17539618  0.14675946  0.70053444  1
  O  O651  1  0.17711212  0.14719417  0.94817789  1
  O  O652  1  0.17796966  0.48112784  0.19922047  1
  O  O653  1  0.17651647  0.47944634  0.45012114  1
  O  O654  1  0.17780499  0.47996610  0.69730950  1
  O  O655  1  0.17626251  0.48016206  0.94997008  1
  O  O656  1  0.17702032  0.81458151  0.19936187  1
  O  O657  1  0.17673551  0.81168051  0.45003269  1
  O  O658  1  0.17638248  0.81225668  0.69871230  1
  O  O659  1  0.17508800  0.81272325  0.94963589  1
  O  O660  1  0.67869493  0.14743917  0.19849661  1
  O  O661  1  0.67748945  0.14690983  0.44789020  1
  O  O662  1  0.67785236  0.14722396  0.69860346  1
  O  O663  1  0.67719960  0.14585036  0.94973861  1
  O  O664  1  0.67746256  0.48114068  0.19944053  1
  O  O665  1  0.67677643  0.47854208  0.44982106  1
  O  O666  1  0.67782809  0.48147308  0.69908605  1
  O  O667  1  0.67699991  0.47841397  0.94977026  1
  O  O668  1  0.67683383  0.81443472  0.20025104  1
  O  O669  1  0.67635348  0.81356700  0.45169554  1
  O  O670  1  0.67672500  0.81280284  0.70091086  1
  O  O671  1  0.67822279  0.81390910  0.94803395  1
