# generated using pymatgen
data_Na2MnFe(PO4)2
_symmetry_space_group_name_H-M   'P 1'
_cell_length_a   22.34278741
_cell_length_b   20.09258822
_cell_length_c   19.44987149
_cell_angle_alpha   90.02807941
_cell_angle_beta   89.94011921
_cell_angle_gamma   89.99969461
_symmetry_Int_Tables_number   1
_chemical_formula_structural   Na2MnFe(PO4)2
_chemical_formula_sum   'Na96 Mn48 Fe48 P96 O384'
_cell_volume   8731.51659832
_cell_formula_units_Z   48
loop_
 _symmetry_equiv_pos_site_id
 _symmetry_equiv_pos_as_xyz
  1  'x, y, z'
loop_
 _atom_site_type_symbol
 _atom_site_label
 _atom_site_symmetry_multiplicity
 _atom_site_fract_x
 _atom_site_fract_y
 _atom_site_fract_z
 _atom_site_occupancy
  Na  Na0  1  0.14062636  0.24862232  0.24382283  1
  Na  Na1  1  0.14091318  0.24883299  0.49443509  1
  Na  Na2  1  0.14031433  0.24836354  0.74296142  1
  Na  Na3  1  0.14004498  0.24950439  0.99291647  1
  Na  Na4  1  0.14093168  0.58420101  0.24402578  1
  Na  Na5  1  0.14112661  0.58382334  0.49420082  1
  Na  Na6  1  0.14079076  0.58319404  0.74306363  1
  Na  Na7  1  0.14072183  0.58481599  0.99424160  1
  Na  Na8  1  0.14009490  0.91562103  0.24389081  1
  Na  Na9  1  0.14033642  0.91671693  0.49252323  1
  Na  Na10  1  0.14068849  0.91593795  0.74303110  1
  Na  Na11  1  0.14003929  0.91694376  0.99366132  1
  Na  Na12  1  0.64029951  0.24981640  0.24429099  1
  Na  Na13  1  0.64079910  0.24968128  0.49327908  1
  Na  Na14  1  0.64064042  0.25066666  0.74383910  1
  Na  Na15  1  0.64046070  0.25043347  0.99403366  1
  Na  Na16  1  0.64064280  0.58376481  0.24458557  1
  Na  Na17  1  0.64103369  0.58228621  0.49416998  1
  Na  Na18  1  0.64093071  0.58401367  0.74350538  1
  Na  Na19  1  0.64021271  0.58379748  0.99415905  1
  Na  Na20  1  0.64036185  0.91759496  0.24234994  1
  Na  Na21  1  0.64068087  0.91538768  0.49352525  1
  Na  Na22  1  0.64029787  0.91643617  0.74319223  1
  Na  Na23  1  0.63954224  0.91770798  0.99385809  1
  Na  Na24  1  0.35914428  0.08284471  0.00716969  1
  Na  Na25  1  0.35880254  0.08347885  0.25727407  1
  Na  Na26  1  0.35904046  0.08376932  0.50588010  1
  Na  Na27  1  0.35942109  0.08260584  0.75580263  1
  Na  Na28  1  0.35941291  0.41840890  0.00738416  1
  Na  Na29  1  0.35901308  0.41679272  0.25717495  1
  Na  Na30  1  0.35935227  0.41579981  0.50638828  1
  Na  Na31  1  0.35937414  0.41637577  0.75584838  1
  Na  Na32  1  0.35928551  0.75240704  0.00625730  1
  Na  Na33  1  0.35920408  0.75163217  0.25580713  1
  Na  Na34  1  0.35942915  0.75129380  0.50583971  1
  Na  Na35  1  0.36013544  0.75094444  0.75689966  1
  Na  Na36  1  0.85967875  0.08297316  0.00675450  1
  Na  Na37  1  0.85930325  0.08368810  0.25499969  1
  Na  Na38  1  0.85955200  0.08125696  0.50617698  1
  Na  Na39  1  0.85989098  0.08364730  0.75597418  1
  Na  Na40  1  0.85988451  0.41584079  0.00559788  1
  Na  Na41  1  0.85929255  0.41710252  0.25671768  1
  Na  Na42  1  0.85933423  0.41604795  0.50643921  1
  Na  Na43  1  0.85958210  0.41537409  0.75682844  1
  Na  Na44  1  0.85955900  0.75064539  0.00596303  1
  Na  Na45  1  0.85912539  0.75109123  0.25725069  1
  Na  Na46  1  0.85964339  0.74869660  0.50718480  1
  Na  Na47  1  0.86044217  0.74901923  0.75581753  1
  Na  Na48  1  0.10960088  0.08294018  0.11782017  1
  Na  Na49  1  0.11031842  0.08099504  0.36857858  1
  Na  Na50  1  0.11038449  0.08239268  0.61804175  1
  Na  Na51  1  0.10974175  0.08230681  0.86818736  1
  Na  Na52  1  0.10997432  0.41532542  0.11862584  1
  Na  Na53  1  0.11009492  0.41567460  0.36895321  1
  Na  Na54  1  0.10987304  0.41527272  0.61923647  1
  Na  Na55  1  0.10967925  0.41542292  0.86879704  1
  Na  Na56  1  0.10998318  0.75138123  0.11882909  1
  Na  Na57  1  0.11035812  0.75029869  0.36829813  1
  Na  Na58  1  0.11022113  0.75018362  0.61836489  1
  Na  Na59  1  0.10981300  0.75017063  0.86837646  1
  Na  Na60  1  0.60957565  0.08380362  0.11838217  1
  Na  Na61  1  0.60960339  0.08181169  0.36810214  1
  Na  Na62  1  0.60978888  0.08448101  0.61824401  1
  Na  Na63  1  0.60966198  0.08283547  0.86939888  1
  Na  Na64  1  0.60954886  0.41787092  0.12021070  1
  Na  Na65  1  0.61003839  0.41539175  0.36867399  1
  Na  Na66  1  0.61013826  0.41764838  0.61851014  1
  Na  Na67  1  0.60958951  0.41936608  0.86873696  1
  Na  Na68  1  0.60934188  0.75170822  0.11870096  1
  Na  Na69  1  0.61011598  0.74914625  0.36836965  1
  Na  Na70  1  0.61032798  0.75083663  0.61893945  1
  Na  Na71  1  0.60937464  0.75098593  0.86889963  1
  Na  Na72  1  0.38991287  0.25148393  0.13261859  1
  Na  Na73  1  0.38962690  0.24886657  0.38209614  1
  Na  Na74  1  0.38978592  0.25060655  0.63083300  1
  Na  Na75  1  0.39035235  0.25077062  0.88141521  1
  Na  Na76  1  0.39031051  0.58503454  0.13158468  1
  Na  Na77  1  0.39018999  0.58274516  0.38110260  1
  Na  Na78  1  0.39022339  0.58499982  0.63136816  1
  Na  Na79  1  0.39060907  0.58562664  0.88128873  1
  Na  Na80  1  0.38928867  0.91808906  0.13164222  1
  Na  Na81  1  0.38957842  0.91655823  0.38094336  1
  Na  Na82  1  0.39024948  0.91741245  0.63106319  1
  Na  Na83  1  0.38983399  0.91705573  0.88177080  1
  Na  Na84  1  0.89019534  0.24947827  0.13007552  1
  Na  Na85  1  0.89020713  0.24885941  0.38123809  1
  Na  Na86  1  0.89045283  0.24873113  0.63149879  1
  Na  Na87  1  0.89066053  0.24819978  0.88137066  1
  Na  Na88  1  0.89058908  0.58379225  0.13172406  1
  Na  Na89  1  0.89006554  0.58344186  0.38246282  1
  Na  Na90  1  0.89009255  0.58280408  0.63268886  1
  Na  Na91  1  0.89060746  0.58219505  0.88033494  1
  Na  Na92  1  0.88940662  0.91719454  0.13103503  1
  Na  Na93  1  0.88987529  0.91594549  0.38111893  1
  Na  Na94  1  0.89080841  0.91580372  0.63077099  1
  Na  Na95  1  0.89058161  0.91644676  0.88054639  1
  Mn  Mn96  1  0.74998507  0.83343086  0.87479713  1
  Mn  Mn97  1  0.49990541  0.66715959  0.49961874  1
  Mn  Mn98  1  0.24988113  0.50022865  0.37498349  1
  Mn  Mn99  1  0.49960839  -0.00004438  0.24963071  1
  Mn  Mn100  1  -0.00034156  0.66689553  0.00003542  1
  Mn  Mn101  1  0.49995471  0.16653588  0.50027130  1
  Mn  Mn102  1  0.74966422  0.83317517  0.37492578  1
  Mn  Mn103  1  0.24987546  0.50051797  0.12575611  1
  Mn  Mn104  1  -0.00114399  0.83388253  -0.00101589  1
  Mn  Mn105  1  0.75063109  0.66756668  0.12499875  1
  Mn  Mn106  1  0.00085521  0.49902788  -0.00016058  1
  Mn  Mn107  1  0.25052180  0.49988909  0.62418332  1
  Mn  Mn108  1  0.49925572  0.33331314  0.25006799  1
  Mn  Mn109  1  0.25044846  0.66803658  0.87467472  1
  Mn  Mn110  1  0.24979984  0.16624100  0.12557917  1
  Mn  Mn111  1  0.75035851  0.00092220  0.87424753  1
  Mn  Mn112  1  -0.00081262  -0.00115672  0.24921249  1
  Mn  Mn113  1  0.00086080  0.66722244  0.50071138  1
  Mn  Mn114  1  0.25078468  0.16547414  0.87464329  1
  Mn  Mn115  1  0.74979936  0.33327897  0.87489766  1
  Mn  Mn116  1  0.50017007  0.33540116  0.00150520  1
  Mn  Mn117  1  0.74920493  0.33318429  0.12518188  1
  Mn  Mn118  1  0.75034688  0.50044634  0.12597697  1
  Mn  Mn119  1  0.00010145  0.49932233  0.50103190  1
  Mn  Mn120  1  0.25009454  0.33296147  0.87507945  1
  Mn  Mn121  1  0.49958251  0.83399104  0.49974376  1
  Mn  Mn122  1  0.00079884  0.16497833  0.50017610  1
  Mn  Mn123  1  0.00024503  0.33214095  0.50018665  1
  Mn  Mn124  1  0.49972571  0.66682064  0.24943330  1
  Mn  Mn125  1  0.49975396  -0.00022956  0.75007362  1
  Mn  Mn126  1  0.50041656  0.49952097  0.50084397  1
  Mn  Mn127  1  0.50019140  0.33472950  0.75099748  1
  Mn  Mn128  1  0.00000009  0.49980048  0.24979946  1
  Mn  Mn129  1  0.00023936  0.66773111  0.25095754  1
  Mn  Mn130  1  0.25005357  0.50039055  0.87503497  1
  Mn  Mn131  1  0.75018039  0.33262654  0.62519925  1
  Mn  Mn132  1  0.00014293  -0.00062791  0.74957748  1
  Mn  Mn133  1  0.49994724  0.16715131  0.00037304  1
  Mn  Mn134  1  0.50029742  0.16736360  0.74995493  1
  Mn  Mn135  1  0.00031609  0.49880619  0.75063487  1
  Mn  Mn136  1  0.50006354  0.66823270  0.00057278  1
  Mn  Mn137  1  0.00016460  0.16565168  0.24937587  1
  Mn  Mn138  1  0.25041433  0.83363903  0.62436665  1
  Mn  Mn139  1  0.74980780  0.66614204  0.87510481  1
  Mn  Mn140  1  0.74970936  0.16583670  0.37443815  1
  Mn  Mn141  1  0.74953179  -0.00060549  0.62498290  1
  Mn  Mn142  1  0.49915318  0.50204094  0.74951268  1
  Mn  Mn143  1  -0.00020863  0.33236250  0.24951390  1
  Fe  Fe144  1  0.00014676  0.16618996  -0.00106110  1
  Fe  Fe145  1  0.75000576  0.66627308  0.37628287  1
  Fe  Fe146  1  0.50059141  0.83429916  0.75003086  1
  Fe  Fe147  1  0.75015135  0.50017300  0.37587699  1
  Fe  Fe148  1  0.24987219  0.33259709  0.62509840  1
  Fe  Fe149  1  0.00007485  0.33175955  0.75018007  1
  Fe  Fe150  1  0.24977307  -0.00038017  0.87502910  1
  Fe  Fe151  1  0.75019359  0.16593715  0.62442411  1
  Fe  Fe152  1  0.49978803  0.16650829  0.25055108  1
  Fe  Fe153  1  0.24997251  0.66795822  0.12472302  1
  Fe  Fe154  1  0.50050150  0.66843971  0.75073947  1
  Fe  Fe155  1  0.25027855  0.16602671  0.62473345  1
  Fe  Fe156  1  0.24912060  -0.00055458  0.12569824  1
  Fe  Fe157  1  0.49944023  0.83468060  -0.00064401  1
  Fe  Fe158  1  -0.00012376  0.83300059  0.50015230  1
  Fe  Fe159  1  0.24934166  0.16640045  0.37535301  1
  Fe  Fe160  1  0.24983936  -0.00003237  0.37498329  1
  Fe  Fe161  1  0.24982770  0.83400869  0.12523430  1
  Fe  Fe162  1  0.00070994  0.83327380  0.74958041  1
  Fe  Fe163  1  0.74971368  0.16671001  0.87524417  1
  Fe  Fe164  1  0.00004712  0.16549319  0.75013695  1
  Fe  Fe165  1  0.49990968  0.33296955  0.49963510  1
  Fe  Fe166  1  0.75032102  0.50000057  0.87488201  1
  Fe  Fe167  1  0.25039871  -0.00010082  0.62431016  1
  Fe  Fe168  1  0.74982429  -0.00015542  0.37439909  1
  Fe  Fe169  1  -0.00011146  0.83357143  0.24986306  1
  Fe  Fe170  1  0.74924656  0.00059348  0.12444279  1
  Fe  Fe171  1  0.49959636  0.49987587  0.25061309  1
  Fe  Fe172  1  0.00011320  -0.00019964  -0.00050669  1
  Fe  Fe173  1  0.75087650  0.83245428  0.62429564  1
  Fe  Fe174  1  0.75052408  0.66565104  0.62515910  1
  Fe  Fe175  1  0.49899039  0.00068321  0.00055600  1
  Fe  Fe176  1  0.24970155  0.33294066  0.12575792  1
  Fe  Fe177  1  -0.00000118  -0.00123534  0.49967215  1
  Fe  Fe178  1  0.49987335  0.50176015  -0.00009271  1
  Fe  Fe179  1  0.25037026  0.66778319  0.37426869  1
  Fe  Fe180  1  0.49990384  0.83405578  0.24969480  1
  Fe  Fe181  1  0.24948087  0.83437783  0.87537516  1
  Fe  Fe182  1  0.75048454  0.33285025  0.37530335  1
  Fe  Fe183  1  0.00100288  0.66657315  0.74992289  1
  Fe  Fe184  1  0.24972023  0.83369878  0.37444050  1
  Fe  Fe185  1  0.74929212  0.83403943  0.12556190  1
  Fe  Fe186  1  0.50021613  -0.00010032  0.49959964  1
  Fe  Fe187  1  -0.00032869  0.33211561  -0.00079040  1
  Fe  Fe188  1  0.75009819  0.16682579  0.12513584  1
  Fe  Fe189  1  0.25063007  0.66732884  0.62436607  1
  Fe  Fe190  1  0.75025279  0.49924492  0.62466022  1
  Fe  Fe191  1  0.24986919  0.33266166  0.37584802  1
  P  P192  1  0.04161869  0.24936153  0.10075340  1
  P  P193  1  0.04302681  0.24864935  0.35289209  1
  P  P194  1  0.04288203  0.24879088  0.60421016  1
  P  P195  1  0.04149736  0.24858010  0.85208804  1
  P  P196  1  0.04299181  0.58353084  0.10321539  1
  P  P197  1  0.04315159  0.58329932  0.35356637  1
  P  P198  1  0.04301214  0.58346873  0.60423672  1
  P  P199  1  0.04279192  0.58395682  0.85229529  1
  P  P200  1  0.04173718  0.91734291  0.10215308  1
  P  P201  1  0.04179419  0.91500967  0.35297524  1
  P  P202  1  0.04194465  0.91590284  0.60149394  1
  P  P203  1  0.04239753  0.91573677  0.85219359  1
  P  P204  1  0.54258077  0.25040170  0.10416247  1
  P  P205  1  0.54184821  0.24870096  0.35289241  1
  P  P206  1  0.54268761  0.25176228  0.60232338  1
  P  P207  1  0.54308577  0.25066038  0.85374197  1
  P  P208  1  0.54195252  0.58287509  0.10311157  1
  P  P209  1  0.54215026  0.58199378  0.35242400  1
  P  P210  1  0.54282225  0.58492146  0.60365122  1
  P  P211  1  0.54232356  0.58574653  0.85274633  1
  P  P212  1  0.54066953  0.91725226  0.10171624  1
  P  P213  1  0.54238157  0.91574667  0.35223498  1
  P  P214  1  0.54252763  0.91803367  0.60238505  1
  P  P215  1  0.54225615  0.91575501  0.85313259  1
  P  P216  1  0.45721358  0.08490805  0.14774239  1
  P  P217  1  0.45783211  0.08191404  0.39726630  1
  P  P218  1  0.45738921  0.08352191  0.64643593  1
  P  P219  1  0.45723755  0.08243171  0.89792120  1
  P  P220  1  0.45716405  0.41902401  0.14771040  1
  P  P221  1  0.45766186  0.41535013  0.39758313  1
  P  P222  1  0.45719718  0.41686812  0.64662240  1
  P  P223  1  0.45742317  0.41930584  0.89815793  1
  P  P224  1  0.45766219  0.75257327  0.14704983  1
  P  P225  1  0.45712490  0.75044911  0.39602118  1
  P  P226  1  0.45877243  0.75121128  0.64866673  1
  P  P227  1  0.45782150  0.75214285  0.89698440  1
  P  P228  1  0.95742430  0.08302732  0.14520637  1
  P  P229  1  0.95763314  0.08086971  0.39748247  1
  P  P230  1  0.95814588  0.08326385  0.64710391  1
  P  P231  1  0.95863059  0.08272742  0.89770830  1
  P  P232  1  0.95706222  0.41575060  0.14612108  1
  P  P233  1  0.95718439  0.41610378  0.39716985  1
  P  P234  1  0.95787478  0.41444304  0.64822165  1
  P  P235  1  0.95821011  0.41420384  0.89690551  1
  P  P236  1  0.95718001  0.75166155  0.14782357  1
  P  P237  1  0.95790687  0.75138477  0.39770037  1
  P  P238  1  0.95918241  0.75028655  0.64821228  1
  P  P239  1  0.95710319  0.74955905  0.89549260  1
  P  P240  1  0.20737326  0.08152823  0.22827062  1
  P  P241  1  0.20879964  0.08289892  0.47722726  1
  P  P242  1  0.20894414  0.08210015  0.72642753  1
  P  P243  1  0.20775268  0.08165756  0.97766643  1
  P  P244  1  0.20787041  0.41502184  0.22835523  1
  P  P245  1  0.20801700  0.41512498  0.47795878  1
  P  P246  1  0.20781408  0.41537239  0.72711008  1
  P  P247  1  0.20731399  0.41677383  0.97881243  1
  P  P248  1  0.20871653  0.75041279  0.22713553  1
  P  P249  1  0.20892347  0.75029625  0.47640766  1
  P  P250  1  0.20838021  0.74952021  0.72703300  1
  P  P251  1  0.20775484  0.75224660  0.97802489  1
  P  P252  1  0.70831806  0.08353386  0.22656298  1
  P  P253  1  0.70763834  0.08153986  0.47731324  1
  P  P254  1  0.70758538  0.08491076  0.72743353  1
  P  P255  1  0.70802767  0.08464343  0.97808883  1
  P  P256  1  0.70739038  0.41684245  0.22968486  1
  P  P257  1  0.70895192  0.41640181  0.47708050  1
  P  P258  1  0.70806036  0.41786978  0.72758724  1
  P  P259  1  0.70755415  0.41800493  0.97742278  1
  P  P260  1  0.70754499  0.75142446  0.22793194  1
  P  P261  1  0.70813435  0.74834292  0.47850332  1
  P  P262  1  0.70937811  0.74976860  0.72616694  1
  P  P263  1  0.70713063  0.75057626  0.97855902  1
  P  P264  1  0.29220362  0.25077432  0.02327852  1
  P  P265  1  0.29094653  0.24987113  0.27376096  1
  P  P266  1  0.29100326  0.24973201  0.52282656  1
  P  P267  1  0.29274094  0.24923897  0.77102088  1
  P  P268  1  0.29220368  0.58554151  0.02286628  1
  P  P269  1  0.29202721  0.58534121  0.27207730  1
  P  P270  1  0.29248960  0.58530645  0.52162177  1
  P  P271  1  0.29310012  0.58385496  0.77124236  1
  P  P272  1  0.29078215  0.91739192  0.02308721  1
  P  P273  1  0.29077791  0.91716226  0.27273124  1
  P  P274  1  0.29207331  0.91837743  0.52130138  1
  P  P275  1  0.29137698  0.91691352  0.77308670  1
  P  P276  1  0.79187854  0.24862588  0.02222219  1
  P  P277  1  0.79213806  0.25057685  0.27233527  1
  P  P278  1  0.79232773  0.24828972  0.52211047  1
  P  P279  1  0.79211486  0.24822891  0.77240052  1
  P  P280  1  0.79316538  0.58304373  0.02177204  1
  P  P281  1  0.79162870  0.58383085  0.27434176  1
  P  P282  1  0.79161106  0.58247578  0.52307928  1
  P  P283  1  0.79232561  0.58174246  0.77175849  1
  P  P284  1  0.79077732  0.91684823  0.02343705  1
  P  P285  1  0.79155134  0.91808013  0.27160096  1
  P  P286  1  0.79228956  0.91498120  0.52203078  1
  P  P287  1  0.79282961  0.91631463  0.77098061  1
  O  O288  1  0.03680157  0.24914046  0.18076353  1
  O  O289  1  0.03824222  0.24847896  0.43287803  1
  O  O290  1  0.03750782  0.24875835  0.68414616  1
  O  O291  1  0.03608221  0.24867503  0.93203405  1
  O  O292  1  0.03777179  0.58370737  0.18320319  1
  O  O293  1  0.03823988  0.58338929  0.43361354  1
  O  O294  1  0.03783069  0.58393715  0.68420761  1
  O  O295  1  0.03779209  0.58372716  0.93230372  1
  O  O296  1  0.03662278  0.91651992  0.18210085  1
  O  O297  1  0.03658188  0.91534496  0.43286185  1
  O  O298  1  0.03704714  0.91554817  0.68148677  1
  O  O299  1  0.03677938  0.91670706  0.93204503  1
  O  O300  1  0.53714914  0.24965649  0.18410894  1
  O  O301  1  0.53662003  0.24933062  0.43284502  1
  O  O302  1  0.53783254  0.25159435  0.68232453  1
  O  O303  1  0.53802290  0.25074334  0.93372032  1
  O  O304  1  0.53633625  0.58234921  0.18301203  1
  O  O305  1  0.53713117  0.58231725  0.43239405  1
  O  O306  1  0.53750105  0.58578705  0.68359096  1
  O  O307  1  0.53712764  0.58529062  0.93273019  1
  O  O308  1  0.53584978  0.91686872  0.18170594  1
  O  O309  1  0.53741716  0.91669376  0.43217483  1
  O  O310  1  0.53751595  0.91737754  0.68233671  1
  O  O311  1  0.53673795  0.91586282  0.93295997  1
  O  O312  1  0.46218323  0.08439231  0.06781289  1
  O  O313  1  0.46303243  0.08267789  0.31731109  1
  O  O314  1  0.46272702  0.08299502  0.56649650  1
  O  O315  1  0.46243140  0.08239591  0.81796708  1
  O  O316  1  0.46247476  0.41938849  0.06776761  1
  O  O317  1  0.46275755  0.41602851  0.31760688  1
  O  O318  1  0.46255749  0.41583194  0.56667867  1
  O  O319  1  0.46245547  0.41895587  0.81815566  1
  O  O320  1  0.46298804  0.75283741  0.06710388  1
  O  O321  1  0.46222482  0.75089802  0.31609377  1
  O  O322  1  0.46361887  0.75092402  0.56864869  1
  O  O323  1  0.46361214  0.75167924  0.81713186  1
  O  O324  1  0.96290368  0.08315791  0.06530597  1
  O  O325  1  0.96232843  0.08104431  0.31745700  1
  O  O326  1  0.96341949  0.08229593  0.56720923  1
  O  O327  1  0.96366328  0.08319344  0.81771747  1
  O  O328  1  0.96224124  0.41538993  0.06612097  1
  O  O329  1  0.96208863  0.41630178  0.31715966  1
  O  O330  1  0.96276448  0.41487072  0.56822730  1
  O  O331  1  0.96380333  0.41391372  0.81697486  1
  O  O332  1  0.96176968  0.75121955  0.06780397  1
  O  O333  1  0.96284359  0.75149292  0.31772459  1
  O  O334  1  0.96417163  0.75064809  0.56820725  1
  O  O335  1  0.96287309  0.74942499  0.81563000  1
  O  O336  1  0.21261233  0.08182307  0.05762874  1
  O  O337  1  0.21263995  0.08190134  0.30812249  1
  O  O338  1  0.21405570  0.08318789  0.55707042  1
  O  O339  1  0.21386823  0.08186408  0.80638479  1
  O  O340  1  0.21240956  0.41648628  0.05879639  1
  O  O341  1  0.21351242  0.41491090  0.30828906  1
  O  O342  1  0.21363166  0.41519008  0.55785500  1
  O  O343  1  0.21294077  0.41605017  0.80709363  1
  O  O344  1  0.21297874  0.75202828  0.05789271  1
  O  O345  1  0.21392183  0.75044421  0.30701412  1
  O  O346  1  0.21386121  0.75020072  0.55636266  1
  O  O347  1  0.21313088  0.75041338  0.80692078  1
  O  O348  1  0.71327892  0.08445822  0.05796932  1
  O  O349  1  0.71314369  0.08249661  0.30651182  1
  O  O350  1  0.71277811  0.08215968  0.55721462  1
  O  O351  1  0.71282761  0.08503993  0.80739102  1
  O  O352  1  0.71258114  0.41757113  0.05739946  1
  O  O353  1  0.71291004  0.41667811  0.30956089  1
  O  O354  1  0.71396487  0.41650220  0.55708598  1
  O  O355  1  0.71321440  0.41791199  0.80751393  1
  O  O356  1  0.71234790  0.75121847  0.05849023  1
  O  O357  1  0.71249157  0.75092995  0.30783676  1
  O  O358  1  0.71377420  0.74862692  0.55831956  1
  O  O359  1  0.71394507  0.74959819  0.80615331  1
  O  O360  1  0.28618488  0.24999770  0.19377947  1
  O  O361  1  0.28591136  0.24967027  0.44293090  1
  O  O362  1  0.28753153  0.24922874  0.69111480  1
  O  O363  1  0.28759430  0.25033342  0.94328210  1
  O  O364  1  0.28635170  0.58531275  0.19218956  1
  O  O365  1  0.28678744  0.58538766  0.44171662  1
  O  O366  1  0.28808555  0.58397693  0.69125758  1
  O  O367  1  0.28705819  0.58505699  0.94289498  1
  O  O368  1  0.28568298  0.91701975  0.19286256  1
  O  O369  1  0.28675279  0.91818781  0.44149361  1
  O  O370  1  0.28654072  0.91711953  0.69311933  1
  O  O371  1  0.28595363  0.91732953  0.94318723  1
  O  O372  1  0.78678577  0.25016125  0.19242837  1
  O  O373  1  0.78700065  0.24913024  0.44218897  1
  O  O374  1  0.78690968  0.24809815  0.69245248  1
  O  O375  1  0.78658102  0.24854472  0.94229773  1
  O  O376  1  0.78694102  0.58411997  0.19434488  1
  O  O377  1  0.78651980  0.58282842  0.44317993  1
  O  O378  1  0.78702038  0.58169130  0.69187354  1
  O  O379  1  0.78790452  0.58257453  0.94183301  1
  O  O380  1  0.78597356  0.91775617  0.19175268  1
  O  O381  1  0.78690062  0.91552463  0.44215262  1
  O  O382  1  0.78758065  0.91570436  0.69105972  1
  O  O383  1  0.78626441  0.91716674  0.94343431  1
  O  O384  1  0.22774023  0.25076708  0.05851410  1
  O  O385  1  0.22678104  0.25021842  0.30966411  1
  O  O386  1  0.22709837  0.25007895  0.55944191  1
  O  O387  1  0.22849120  0.24906792  0.80678803  1
  O  O388  1  0.22795230  0.58568397  0.05861700  1
  O  O389  1  0.22795689  0.58521547  0.30836809  1
  O  O390  1  0.22841510  0.58520612  0.55794493  1
  O  O391  1  0.22870275  0.58403008  0.80654043  1
  O  O392  1  0.22667475  0.91745735  0.05934425  1
  O  O393  1  0.22684333  0.91754481  0.30931705  1
  O  O394  1  0.22796999  0.91831237  0.55758337  1
  O  O395  1  0.22716977  0.91701758  0.80920330  1
  O  O396  1  0.72766892  0.24839129  0.05822943  1
  O  O397  1  0.72794226  0.25078550  0.30830430  1
  O  O398  1  0.72810249  0.24810433  0.55805855  1
  O  O399  1  0.72786029  0.24843531  0.80825600  1
  O  O400  1  0.72879979  0.58367918  0.05713234  1
  O  O401  1  0.72738299  0.58349733  0.31014886  1
  O  O402  1  0.72757593  0.58211481  0.55941249  1
  O  O403  1  0.72817304  0.58140311  0.80808021  1
  O  O404  1  0.72655632  0.91620176  0.05919073  1
  O  O405  1  0.72745599  0.91819756  0.30797898  1
  O  O406  1  0.72808417  0.91444296  0.55800942  1
  O  O407  1  0.72848768  0.91706849  0.80638082  1
  O  O408  1  0.27154509  0.08145135  0.19212276  1
  O  O409  1  0.27265733  0.08253665  0.44042751  1
  O  O410  1  0.27303593  0.08177407  0.69028103  1
  O  O411  1  0.27213742  0.08102661  0.94211878  1
  O  O412  1  0.27198593  0.41522233  0.19214390  1
  O  O413  1  0.27213902  0.41537085  0.44179863  1
  O  O414  1  0.27207596  0.41504352  0.69137439  1
  O  O415  1  0.27171518  0.41689496  0.94348199  1
  O  O416  1  0.27267820  0.75007082  0.19055293  1
  O  O417  1  0.27301925  0.75029300  0.44032353  1
  O  O418  1  0.27274157  0.74920872  0.69139636  1
  O  O419  1  0.27192351  0.75275267  0.94184545  1
  O  O420  1  0.77246274  0.08395315  0.19063182  1
  O  O421  1  0.77190849  0.08143824  0.44148428  1
  O  O422  1  0.77188169  0.08436833  0.69166031  1
  O  O423  1  0.77222540  0.08494317  0.94189777  1
  O  O424  1  0.77155977  0.41637637  0.19371605  1
  O  O425  1  0.77303342  0.41673322  0.44096542  1
  O  O426  1  0.77231665  0.41756006  0.69173131  1
  O  O427  1  0.77190704  0.41807732  0.94183566  1
  O  O428  1  0.77188346  0.75225646  0.19224761  1
  O  O429  1  0.77218658  0.74852831  0.44206770  1
  O  O430  1  0.77359947  0.75016718  0.69044242  1
  O  O431  1  0.77149156  0.74997084  0.94321759  1
  O  O432  1  0.02160605  0.08242214  0.18099813  1
  O  O433  1  0.02212910  0.08053523  0.43248176  1
  O  O434  1  0.02235267  0.08389149  0.68290201  1
  O  O435  1  0.02277886  0.08229814  0.93364123  1
  O  O436  1  0.02149037  0.41593370  0.18124210  1
  O  O437  1  0.02171212  0.41608345  0.43195762  1
  O  O438  1  0.02224200  0.41433923  0.68338056  1
  O  O439  1  0.02234566  0.41383500  0.93288151  1
  O  O440  1  0.02173070  0.75193933  0.18279541  1
  O  O441  1  0.02232739  0.75170906  0.43298680  1
  O  O442  1  0.02334511  0.75046160  0.68418405  1
  O  O443  1  0.02125412  0.75014506  0.93133265  1
  O  O444  1  0.52160073  0.08513100  0.18313258  1
  O  O445  1  0.52207955  0.08183916  0.43295577  1
  O  O446  1  0.52167609  0.08355139  0.68187267  1
  O  O447  1  0.52154681  0.08212724  0.93339413  1
  O  O448  1  0.52142596  0.41845672  0.18336011  1
  O  O449  1  0.52199730  0.41487353  0.43312498  1
  O  O450  1  0.52152539  0.41787512  0.68187518  1
  O  O451  1  0.52184645  0.41953350  0.93344204  1
  O  O452  1  0.52183739  0.75216454  0.18293647  1
  O  O453  1  0.52150144  0.75056344  0.43118311  1
  O  O454  1  0.52302454  0.75157635  0.68437328  1
  O  O455  1  0.52185965  0.75241047  0.93329626  1
  O  O456  1  0.47827577  0.25095466  0.06883582  1
  O  O457  1  0.47755455  0.24838863  0.31723666  1
  O  O458  1  0.47821652  0.25171846  0.56719607  1
  O  O459  1  0.47860170  0.25065548  0.81884528  1
  O  O460  1  0.47782795  0.58333146  0.06705716  1
  O  O461  1  0.47779517  0.58223377  0.31705205  1
  O  O462  1  0.47848592  0.58392740  0.56839775  1
  O  O463  1  0.47803395  0.58652013  0.81713199  1
  O  O464  1  0.47649656  0.91764806  0.06584612  1
  O  O465  1  0.47794571  0.91537426  0.31691180  1
  O  O466  1  0.47814262  0.91870346  0.56692496  1
  O  O467  1  0.47805039  0.91520033  0.81714177  1
  O  O468  1  0.97740191  0.24940856  0.06506856  1
  O  O469  1  0.97846002  0.24874973  0.31824081  1
  O  O470  1  0.97866609  0.24846308  0.56855181  1
  O  O471  1  0.97749370  0.24828554  0.81563235  1
  O  O472  1  0.97861005  0.58287686  0.06813483  1
  O  O473  1  0.97864997  0.58347487  0.31876420  1
  O  O474  1  0.97865433  0.58354036  0.56902180  1
  O  O475  1  0.97849581  0.58384551  0.81697860  1
  O  O476  1  0.97745728  0.91844926  0.06652273  1
  O  O477  1  0.97757703  0.91449375  0.31702699  1
  O  O478  1  0.97767513  0.91599733  0.56577614  1
  O  O479  1  0.97823085  0.91479262  0.81626823  1
  O  O480  1  0.07236351  0.31311594  0.07279397  1
  O  O481  1  0.07392412  0.31213627  0.32464115  1
  O  O482  1  0.07385782  0.31227414  0.57576093  1
  O  O483  1  0.07233668  0.31229245  0.82381763  1
  O  O484  1  0.07349469  0.64736556  0.07512618  1
  O  O485  1  0.07413461  0.64687029  0.32545160  1
  O  O486  1  0.07447465  0.64654482  0.57561535  1
  O  O487  1  0.07336759  0.64761642  0.82382904  1
  O  O488  1  0.07290182  0.98075551  0.07392280  1
  O  O489  1  0.07273893  0.97854577  0.32455726  1
  O  O490  1  0.07239602  0.97990549  0.57344193  1
  O  O491  1  0.07317491  0.97933743  0.82380162  1
  O  O492  1  0.57373460  0.31418740  0.07671082  1
  O  O493  1  0.57309821  0.31204534  0.32471804  1
  O  O494  1  0.57331536  0.31524399  0.57359100  1
  O  O495  1  0.57408320  0.31422832  0.82573403  1
  O  O496  1  0.57313210  0.64681943  0.07603398  1
  O  O497  1  0.57334253  0.64550154  0.32445450  1
  O  O498  1  0.57362944  0.64820264  0.57472096  1
  O  O499  1  0.57334591  0.64928610  0.82448873  1
  O  O500  1  0.57123113  0.98130679  0.07377643  1
  O  O501  1  0.57340184  0.97909026  0.32349907  1
  O  O502  1  0.57332034  0.98157465  0.57392029  1
  O  O503  1  0.57319936  0.97948962  0.82511930  1
  O  O504  1  0.42611883  0.02135579  0.17582442  1
  O  O505  1  0.42743579  0.01804915  0.42547556  1
  O  O506  1  0.42600358  0.02039438  0.67495472  1
  O  O507  1  0.42646491  0.01894211  0.92656097  1
  O  O508  1  0.42590444  0.35528626  0.17524688  1
  O  O509  1  0.42699137  0.35157810  0.42573118  1
  O  O510  1  0.42631500  0.35368539  0.67572690  1
  O  O511  1  0.42647788  0.35566276  0.92620753  1
  O  O512  1  0.42654563  0.68874492  0.17441462  1
  O  O513  1  0.42637658  0.68671246  0.42410724  1
  O  O514  1  0.42822699  0.68748886  0.67702371  1
  O  O515  1  0.42654863  0.68875216  0.92537377  1
  O  O516  1  0.92579167  0.01993304  0.17359105  1
  O  O517  1  0.92696136  0.01737715  0.42617003  1
  O  O518  1  0.92713351  0.01970733  0.67536881  1
  O  O519  1  0.92768720  0.01889313  0.92544300  1
  O  O520  1  0.92594217  0.35241582  0.17462465  1
  O  O521  1  0.92631246  0.35246676  0.42515681  1
  O  O522  1  0.92718854  0.35082465  0.67658361  1
  O  O523  1  0.92680582  0.35106453  0.92540721  1
  O  O524  1  0.92637694  0.68803173  0.17611791  1
  O  O525  1  0.92732641  0.68742825  0.42571778  1
  O  O526  1  0.92880260  0.68616273  0.67605207  1
  O  O527  1  0.92609852  0.68618557  0.92420532  1
  O  O528  1  0.17638563  0.01815483  0.19960321  1
  O  O529  1  0.17737280  0.01954124  0.44907137  1
  O  O530  1  0.17744635  0.01892894  0.69800830  1
  O  O531  1  0.17642428  0.01866537  0.94882368  1
  O  O532  1  0.17703116  0.35160467  0.19964377  1
  O  O533  1  0.17701211  0.35172267  0.44960621  1
  O  O534  1  0.17700111  0.35162619  0.69933919  1
  O  O535  1  0.17618595  0.35347490  0.95022663  1
  O  O536  1  0.17733547  0.68713646  0.19866676  1
  O  O537  1  0.17764026  0.68699376  0.44810302  1
  O  O538  1  0.17781566  0.68582579  0.69861904  1
  O  O539  1  0.17680818  0.68857723  0.94984917  1
  O  O540  1  0.67750593  0.02011546  0.19743476  1
  O  O541  1  0.67719340  0.01776423  0.44891389  1
  O  O542  1  0.67626117  0.02119958  0.69994021  1
  O  O543  1  0.67717201  0.02088610  0.94987920  1
  O  O544  1  0.67577178  0.35377127  0.20109575  1
  O  O545  1  0.67867648  0.35227693  0.44894914  1
  O  O546  1  0.67696563  0.35405320  0.69996275  1
  O  O547  1  0.67660272  0.35427044  0.94959964  1
  O  O548  1  0.67685246  0.68767778  0.19980586  1
  O  O549  1  0.67744785  0.68468061  0.44988287  1
  O  O550  1  0.67917987  0.68567012  0.69800958  1
  O  O551  1  0.67598859  0.68699175  0.95060329  1
  O  O552  1  0.32270293  0.31444691  0.05176255  1
  O  O553  1  0.32252396  0.31299156  0.30214003  1
  O  O554  1  0.32240127  0.31305197  0.55117061  1
  O  O555  1  0.32392769  0.31259340  0.79956103  1
  O  O556  1  0.32295834  0.64931800  0.05069967  1
  O  O557  1  0.32310049  0.64869933  0.30041317  1
  O  O558  1  0.32341933  0.64867310  0.55032636  1
  O  O559  1  0.32438083  0.64707687  0.79974351  1
  O  O560  1  0.32188403  0.98073213  0.05186333  1
  O  O561  1  0.32231802  0.98040234  0.30097960  1
  O  O562  1  0.32304666  0.98164977  0.55018280  1
  O  O563  1  0.32250362  0.98027822  0.80154896  1
  O  O564  1  0.82261847  0.31261106  0.04977747  1
  O  O565  1  0.82287953  0.31410718  0.30096544  1
  O  O566  1  0.82367857  0.31154507  0.55054471  1
  O  O567  1  0.82299249  0.31216432  0.79998245  1
  O  O568  1  0.82434799  0.64664065  0.04977057  1
  O  O569  1  0.82212353  0.64771853  0.30256664  1
  O  O570  1  0.82212780  0.64628936  0.55191716  1
  O  O571  1  0.82318693  0.64558668  0.79961707  1
  O  O572  1  0.82085306  0.98099917  0.05169152  1
  O  O573  1  0.82243431  0.98163133  0.30011401  1
  O  O574  1  0.82329813  0.97849682  0.55017408  1
  O  O575  1  0.82403418  0.97994826  0.79881176  1
  O  O576  1  0.42652595  0.14843511  0.17651207  1
  O  O577  1  0.42639015  0.14521230  0.42545881  1
  O  O578  1  0.42664127  0.14736246  0.67434024  1
  O  O579  1  0.42623352  0.14619450  0.92552810  1
  O  O580  1  0.42645178  0.48234263  0.17678368  1
  O  O581  1  0.42657699  0.47883969  0.42581925  1
  O  O582  1  0.42577440  0.48057543  0.67393347  1
  O  O583  1  0.42678767  0.48305216  0.92632288  1
  O  O584  1  0.42690787  0.81595538  0.17592543  1
  O  O585  1  0.42581128  0.81356257  0.42484584  1
  O  O586  1  0.42786501  0.81504020  0.67640460  1
  O  O587  1  0.42667280  0.81555648  0.92545550  1
  O  O588  1  0.92665624  0.14660100  0.17389384  1
  O  O589  1  0.92679167  0.14458205  0.42543688  1
  O  O590  1  0.92712293  0.14669700  0.67549017  1
  O  O591  1  0.92790177  0.14629417  0.92633291  1
  O  O592  1  0.92608535  0.47936095  0.17437598  1
  O  O593  1  0.92631704  0.47956397  0.42572755  1
  O  O594  1  0.92682419  0.47809557  0.67609717  1
  O  O595  1  0.92756185  0.47831706  0.92429769  1
  O  O596  1  0.92661615  0.81532743  0.17621333  1
  O  O597  1  0.92667168  0.81442834  0.42666020  1
  O  O598  1  0.92802986  0.81372854  0.67648523  1
  O  O599  1  0.92549570  0.81288636  0.92371654  1
  O  O600  1  0.07243354  0.18565536  0.07247788  1
  O  O601  1  0.07377939  0.18504446  0.32452654  1
  O  O602  1  0.07430209  0.18553515  0.57569233  1
  O  O603  1  0.07259497  0.18493485  0.82387160  1
  O  O604  1  0.07449380  0.52024041  0.07522453  1
  O  O605  1  0.07415630  0.51984827  0.32535088  1
  O  O606  1  0.07378274  0.51961002  0.57637989  1
  O  O607  1  0.07408265  0.52031322  0.82469242  1
  O  O608  1  0.07241197  0.85368409  0.07378590  1
  O  O609  1  0.07284966  0.85168411  0.32409379  1
  O  O610  1  0.07298611  0.85252556  0.57285764  1
  O  O611  1  0.07363581  0.85232949  0.82406208  1
  O  O612  1  0.57372927  0.18724695  0.07538267  1
  O  O613  1  0.57248581  0.18487275  0.32473041  1
  O  O614  1  0.57365817  0.18806798  0.57439513  1
  O  O615  1  0.57387492  0.18704737  0.82542414  1
  O  O616  1  0.57283215  0.51966607  0.07398883  1
  O  O617  1  0.57256175  0.51815794  0.32425449  1
  O  O618  1  0.57416555  0.52129623  0.57603613  1
  O  O619  1  0.57312105  0.52214597  0.82440417  1
  O  O620  1  0.57167481  0.85388214  0.07321298  1
  O  O621  1  0.57302971  0.85203917  0.32393204  1
  O  O622  1  0.57336573  0.85438935  0.57411337  1
  O  O623  1  0.57358253  0.85268594  0.82400456  1
  O  O624  1  0.32314092  0.18713173  0.05132211  1
  O  O625  1  0.32096803  0.18561961  0.30203187  1
  O  O626  1  0.32146145  0.18573657  0.55118614  1
  O  O627  1  0.32390875  0.18583305  0.79951840  1
  O  O628  1  0.32325604  0.52204311  0.05092495  1
  O  O629  1  0.32306455  0.52151109  0.29965784  1
  O  O630  1  0.32362199  0.52143475  0.54882075  1
  O  O631  1  0.32382639  0.52015360  0.79946051  1
  O  O632  1  0.32140002  0.85368589  0.05183677  1
  O  O633  1  0.32116954  0.85322852  0.30128249  1
  O  O634  1  0.32326954  0.85479941  0.54944976  1
  O  O635  1  0.32168549  0.85296155  0.80134722  1
  O  O636  1  0.82299106  0.18545494  0.05097055  1
  O  O637  1  0.82340776  0.18701217  0.30010786  1
  O  O638  1  0.82284637  0.18438361  0.55008042  1
  O  O639  1  0.82307257  0.18503729  0.80125832  1
  O  O640  1  0.82416086  0.51977552  0.05047236  1
  O  O641  1  0.82261242  0.52017437  0.30219037  1
  O  O642  1  0.82298646  0.51907121  0.55118399  1
  O  O643  1  0.82342523  0.51849711  0.80059271  1
  O  O644  1  0.82206784  0.85345044  0.05140704  1
  O  O645  1  0.82279420  0.85466237  0.29986367  1
  O  O646  1  0.82327782  0.85142903  0.55018599  1
  O  O647  1  0.82379052  0.85309421  0.79972710  1
  O  O648  1  0.17628761  0.14509050  0.19997330  1
  O  O649  1  0.17821913  0.14673052  0.44866181  1
  O  O650  1  0.17882912  0.14625229  0.69817565  1
  O  O651  1  0.17752840  0.14571995  0.94946997  1
  O  O652  1  0.17668351  0.47885958  0.20114771  1
  O  O653  1  0.17687654  0.47890491  0.45038872  1
  O  O654  1  0.17685292  0.47895464  0.69906906  1
  O  O655  1  0.17642885  0.48045735  0.95075155  1
  O  O656  1  0.17824822  0.81436099  0.19880090  1
  O  O657  1  0.17856769  0.81438250  0.44822994  1
  O  O658  1  0.17737634  0.81293717  0.69845920  1
  O  O659  1  0.17672879  0.81553983  0.94916628  1
  O  O660  1  0.67747189  0.14744674  0.19912315  1
  O  O661  1  0.67629042  0.14489374  0.44917886  1
  O  O662  1  0.67698756  0.14828120  0.69844650  1
  O  O663  1  0.67684951  0.14788077  0.94943707  1
  O  O664  1  0.67656051  0.48050129  0.20138296  1
  O  O665  1  0.67757301  0.47976343  0.44902377  1
  O  O666  1  0.67719487  0.48110768  0.69869004  1
  O  O667  1  0.67690490  0.48156544  0.94907571  1
  O  O668  1  0.67653996  0.81486883  0.19946712  1
  O  O669  1  0.67650639  0.81157532  0.45037449  1
  O  O670  1  0.67817726  0.81325487  0.69824280  1
  O  O671  1  0.67615542  0.81384521  0.94981179  1
