# generated using pymatgen
data_Na2MnFe(PO4)2
_symmetry_space_group_name_H-M   'P 1'
_cell_length_a   22.34340125
_cell_length_b   20.09232758
_cell_length_c   19.44898564
_cell_angle_alpha   89.98804567
_cell_angle_beta   89.98276625
_cell_angle_gamma   90.02993608
_symmetry_Int_Tables_number   1
_chemical_formula_structural   Na2MnFe(PO4)2
_chemical_formula_sum   'Na96 Mn48 Fe48 P96 O384'
_cell_volume   8731.24957507
_cell_formula_units_Z   48
loop_
 _symmetry_equiv_pos_site_id
 _symmetry_equiv_pos_as_xyz
  1  'x, y, z'
loop_
 _atom_site_type_symbol
 _atom_site_label
 _atom_site_symmetry_multiplicity
 _atom_site_fract_x
 _atom_site_fract_y
 _atom_site_fract_z
 _atom_site_occupancy
  Na  Na0  1  0.14059326  0.25046425  0.24384277  1
  Na  Na1  1  0.14011590  0.24951297  0.49471152  1
  Na  Na2  1  0.14002778  0.24955950  0.74434331  1
  Na  Na3  1  0.14068257  0.24957000  0.99343607  1
  Na  Na4  1  0.13980842  0.58396926  0.24325662  1
  Na  Na5  1  0.13986778  0.58324571  0.49321504  1
  Na  Na6  1  0.14031490  0.58319846  0.74323665  1
  Na  Na7  1  0.14020342  0.58426866  0.99392561  1
  Na  Na8  1  0.14057787  0.91742796  0.24243026  1
  Na  Na9  1  0.14061133  0.91688438  0.49418489  1
  Na  Na10  1  0.14115445  0.91704504  0.74434722  1
  Na  Na11  1  0.14082778  0.91756054  0.99436675  1
  Na  Na12  1  0.64055164  0.24908565  0.24350285  1
  Na  Na13  1  0.64005752  0.24914876  0.49291109  1
  Na  Na14  1  0.64007936  0.25046393  0.74304897  1
  Na  Na15  1  0.64048142  0.25000506  0.99438620  1
  Na  Na16  1  0.63979785  0.58277704  0.24300344  1
  Na  Na17  1  0.64041514  0.58370207  0.49287822  1
  Na  Na18  1  0.64045044  0.58468719  0.74284942  1
  Na  Na19  1  0.64047475  0.58330157  0.99368003  1
  Na  Na20  1  0.64060365  0.91612215  0.24470509  1
  Na  Na21  1  0.64063482  0.91476843  0.49367640  1
  Na  Na22  1  0.64049998  0.91592368  0.74410227  1
  Na  Na23  1  0.64012373  0.91718315  0.99388020  1
  Na  Na24  1  0.35984223  0.08295143  0.00697622  1
  Na  Na25  1  0.35990624  0.08450767  0.25529322  1
  Na  Na26  1  0.35965247  0.08306382  0.50689228  1
  Na  Na27  1  0.35984606  0.08289126  0.75755384  1
  Na  Na28  1  0.35916187  0.41769780  0.00613405  1
  Na  Na29  1  0.36000992  0.41721370  0.25622312  1
  Na  Na30  1  0.35969495  0.41518856  0.50572621  1
  Na  Na31  1  0.35935274  0.41605158  0.75596022  1
  Na  Na32  1  0.35985153  0.75159461  0.00705574  1
  Na  Na33  1  0.35980054  0.75027255  0.25484947  1
  Na  Na34  1  0.35967941  0.75029358  0.50685317  1
  Na  Na35  1  0.35941597  0.74989082  0.75669812  1
  Na  Na36  1  0.85962224  0.08421414  0.00665651  1
  Na  Na37  1  0.85976177  0.08146659  0.25683078  1
  Na  Na38  1  0.85985532  0.08160072  0.50652206  1
  Na  Na39  1  0.85919515  0.08460692  0.75613876  1
  Na  Na40  1  0.85982127  0.41690615  0.00635913  1
  Na  Na41  1  0.85989888  0.41755149  0.25673839  1
  Na  Na42  1  0.85944812  0.41767836  0.50661279  1
  Na  Na43  1  0.85939674  0.41768786  0.75597365  1
  Na  Na44  1  0.85931233  0.75032712  0.00643341  1
  Na  Na45  1  0.85909712  0.74889932  0.25773336  1
  Na  Na46  1  0.85931822  0.74860279  0.50560396  1
  Na  Na47  1  0.85974948  0.74984034  0.75400563  1
  Na  Na48  1  0.11031608  0.08314849  0.11832038  1
  Na  Na49  1  0.10952628  0.08328107  0.36898452  1
  Na  Na50  1  0.10967520  0.08473339  0.61996104  1
  Na  Na51  1  0.11008540  0.08428666  0.86836731  1
  Na  Na52  1  0.10975429  0.41687216  0.11993371  1
  Na  Na53  1  0.10925241  0.41767324  0.36881728  1
  Na  Na54  1  0.10905365  0.41731907  0.61963152  1
  Na  Na55  1  0.10931618  0.41666611  0.86846313  1
  Na  Na56  1  0.10949764  0.74866028  0.11833819  1
  Na  Na57  1  0.10955142  0.74963429  0.36847880  1
  Na  Na58  1  0.11024333  0.75001602  0.61748785  1
  Na  Na59  1  0.10991929  0.74975597  0.86853570  1
  Na  Na60  1  0.60962929  0.08260257  0.11885499  1
  Na  Na61  1  0.60992321  0.08311828  0.36958809  1
  Na  Na62  1  0.60955497  0.08372501  0.61816783  1
  Na  Na63  1  0.60965739  0.08325150  0.86951289  1
  Na  Na64  1  0.61017439  0.41698899  0.11802205  1
  Na  Na65  1  0.60950584  0.41636916  0.36752208  1
  Na  Na66  1  0.60930504  0.41642760  0.61796055  1
  Na  Na67  1  0.60955570  0.41620765  0.86866468  1
  Na  Na68  1  0.60959123  0.75040192  0.11873039  1
  Na  Na69  1  0.60996535  0.74953422  0.36857969  1
  Na  Na70  1  0.61024209  0.74959946  0.61813023  1
  Na  Na71  1  0.60998927  0.75066113  0.86893818  1
  Na  Na72  1  0.39040532  0.24989595  0.13094377  1
  Na  Na73  1  0.39059160  0.24980350  0.38113827  1
  Na  Na74  1  0.39033585  0.24933641  0.63066411  1
  Na  Na75  1  0.39042779  0.24799884  0.88136790  1
  Na  Na76  1  0.39081358  0.58432578  0.13054509  1
  Na  Na77  1  0.39055040  0.58356350  0.38055480  1
  Na  Na78  1  0.39015544  0.58339415  0.63133111  1
  Na  Na79  1  0.39026679  0.58439195  0.88116762  1
  Na  Na80  1  0.39006246  0.91680883  0.13127335  1
  Na  Na81  1  0.39027621  0.91735601  0.38085271  1
  Na  Na82  1  0.39045781  0.91541800  0.63259800  1
  Na  Na83  1  0.39022088  0.91657947  0.88340208  1
  Na  Na84  1  0.89061919  0.25047920  0.13197013  1
  Na  Na85  1  0.89077383  0.25046073  0.38105392  1
  Na  Na86  1  0.89013738  0.25083046  0.63235480  1
  Na  Na87  1  0.89001502  0.25187687  0.88085427  1
  Na  Na88  1  0.89024201  0.58139731  0.13235675  1
  Na  Na89  1  0.88968251  0.58325885  0.38152808  1
  Na  Na90  1  0.88967406  0.58279436  0.63047375  1
  Na  Na91  1  0.89017806  0.58251830  0.88016326  1
  Na  Na92  1  0.89010421  0.91600414  0.13241682  1
  Na  Na93  1  0.89038141  0.91592116  0.38168794  1
  Na  Na94  1  0.89035649  0.91702433  0.63037665  1
  Na  Na95  1  0.89000788  0.91637944  0.88098948  1
  Mn  Mn96  1  0.75000927  -0.00014307  0.87472580  1
  Mn  Mn97  1  0.24920180  0.49991748  0.62457690  1
  Mn  Mn98  1  0.74987496  -0.00077538  0.62510903  1
  Mn  Mn99  1  -0.00000993  0.00104093  0.75051561  1
  Mn  Mn100  1  0.74963508  0.66601545  0.12559182  1
  Mn  Mn101  1  0.00029367  0.16638957  0.25071404  1
  Mn  Mn102  1  0.74961742  0.33363439  0.62413279  1
  Mn  Mn103  1  0.50061972  0.00093077  0.25072152  1
  Mn  Mn104  1  0.50016769  0.66697457  0.49978582  1
  Mn  Mn105  1  -0.00001772  0.16706542  0.00048670  1
  Mn  Mn106  1  0.00044687  0.33433265  0.00064482  1
  Mn  Mn107  1  -0.00083817  0.66478794  -0.00081262  1
  Mn  Mn108  1  0.74976449  0.16812350  0.87599791  1
  Mn  Mn109  1  0.50042348  0.00014467  0.75063641  1
  Mn  Mn110  1  0.74990719  0.49968432  0.87444175  1
  Mn  Mn111  1  -0.00010139  0.83232363  0.00064885  1
  Mn  Mn112  1  0.75076514  0.16501340  0.37394613  1
  Mn  Mn113  1  0.25066184  0.49979982  0.37476062  1
  Mn  Mn114  1  0.50041830  0.83316263  0.25011322  1
  Mn  Mn115  1  -0.00003616  0.16698921  0.50027448  1
  Mn  Mn116  1  0.49941292  0.33263142  -0.00045524  1
  Mn  Mn117  1  0.50026182  0.33283403  0.24915423  1
  Mn  Mn118  1  0.00006364  0.33485662  0.50112347  1
  Mn  Mn119  1  0.74969377  0.83404738  0.12609768  1
  Mn  Mn120  1  0.75035557  0.33353217  0.37488228  1
  Mn  Mn121  1  0.75057443  0.66750769  0.87430485  1
  Mn  Mn122  1  0.49988949  0.50107846  -0.00104927  1
  Mn  Mn123  1  0.25015153  0.33311680  0.87531482  1
  Mn  Mn124  1  0.24958626  0.66725531  0.37473935  1
  Mn  Mn125  1  0.00019027  0.83344880  0.74901548  1
  Mn  Mn126  1  -0.00001731  0.83242849  0.25049955  1
  Mn  Mn127  1  0.75018362  0.16640453  0.12522175  1
  Mn  Mn128  1  0.24984245  0.33340080  0.12447981  1
  Mn  Mn129  1  0.24962110  0.16720082  0.37511785  1
  Mn  Mn130  1  0.00045186  0.83377736  0.49896504  1
  Mn  Mn131  1  0.50018866  0.49934459  0.49971619  1
  Mn  Mn132  1  0.49957412  0.33224805  0.74926848  1
  Mn  Mn133  1  0.49981788  0.00018355  0.50052877  1
  Mn  Mn134  1  0.24987597  0.83327750  0.37450540  1
  Mn  Mn135  1  -0.00026636  -0.00011915  -0.00041528  1
  Mn  Mn136  1  0.49961791  0.50048163  0.74928400  1
  Mn  Mn137  1  0.24992899  0.66752308  0.87475534  1
  Mn  Mn138  1  0.50036011  0.83241709  0.75144811  1
  Mn  Mn139  1  -0.00000362  0.66566950  0.74919276  1
  Mn  Mn140  1  0.25027755  -0.00029371  0.62594705  1
  Mn  Mn141  1  0.24973709  0.50125629  0.12535203  1
  Mn  Mn142  1  0.25029827  0.00010188  0.37493180  1
  Mn  Mn143  1  0.24952785  0.33201689  0.62629702  1
  Fe  Fe144  1  0.74902219  0.49974557  0.37514087  1
  Fe  Fe145  1  0.74990678  -0.00137308  0.37601837  1
  Fe  Fe146  1  0.50020566  0.16642201  0.74991774  1
  Fe  Fe147  1  -0.00067948  0.50042805  0.49961446  1
  Fe  Fe148  1  0.25056714  0.16687636  0.12464976  1
  Fe  Fe149  1  0.49980389  0.33274942  0.49889438  1
  Fe  Fe150  1  0.50074406  0.66693388  0.00035763  1
  Fe  Fe151  1  0.00021422  0.50013285  0.74967552  1
  Fe  Fe152  1  0.49990810  0.50004350  0.24927575  1
  Fe  Fe153  1  -0.00002493  0.49949126  0.00049320  1
  Fe  Fe154  1  0.75051044  0.33370511  0.12507346  1
  Fe  Fe155  1  0.74923960  0.50031832  0.62496530  1
  Fe  Fe156  1  0.25031401  0.00008549  0.87552530  1
  Fe  Fe157  1  0.00026434  -0.00035867  0.25016882  1
  Fe  Fe158  1  0.50025503  0.16664650  0.25009930  1
  Fe  Fe159  1  0.50053258  0.16618122  0.00030485  1
  Fe  Fe160  1  0.74991743  0.83248990  0.37503246  1
  Fe  Fe161  1  -0.00055461  0.33438291  0.75045056  1
  Fe  Fe162  1  0.75051413  0.83338462  0.87469184  1
  Fe  Fe163  1  0.50009601  0.66718617  0.75046211  1
  Fe  Fe164  1  0.74996405  0.16647989  0.62474201  1
  Fe  Fe165  1  0.25041492  0.66782242  0.12388324  1
  Fe  Fe166  1  0.74941937  0.66566649  0.37557504  1
  Fe  Fe167  1  0.24970753  0.83359359  0.87540924  1
  Fe  Fe168  1  0.00049556  0.33394796  0.25063978  1
  Fe  Fe169  1  0.49984893  0.00010639  0.00065434  1
  Fe  Fe170  1  0.74977042  0.66677743  0.62405177  1
  Fe  Fe171  1  0.25033784  0.16613100  0.87527622  1
  Fe  Fe172  1  0.75029249  -0.00053871  0.12529944  1
  Fe  Fe173  1  -0.00102592  0.16761583  0.74977431  1
  Fe  Fe174  1  0.25027045  0.00069476  0.12405045  1
  Fe  Fe175  1  -0.00011183  0.50017908  0.25064804  1
  Fe  Fe176  1  0.24993748  0.83419296  0.12457641  1
  Fe  Fe177  1  0.49956250  0.66679641  0.24956784  1
  Fe  Fe178  1  0.74963114  0.33403375  0.87466530  1
  Fe  Fe179  1  0.49960562  0.16680411  0.49987528  1
  Fe  Fe180  1  0.25012546  0.83336884  0.62556855  1
  Fe  Fe181  1  -0.00041785  0.66549678  0.24960529  1
  Fe  Fe182  1  0.25021840  0.66660924  0.62548675  1
  Fe  Fe183  1  0.24995111  0.50074118  0.87500317  1
  Fe  Fe184  1  0.75026728  0.83264477  0.62395373  1
  Fe  Fe185  1  0.50025096  0.83293679  0.00057172  1
  Fe  Fe186  1  0.49967072  0.83306434  0.50041469  1
  Fe  Fe187  1  0.25012505  0.16605864  0.62539479  1
  Fe  Fe188  1  0.25000203  0.33298312  0.37520259  1
  Fe  Fe189  1  0.75014137  0.49977588  0.12494042  1
  Fe  Fe190  1  0.00016083  0.00057760  0.50023566  1
  Fe  Fe191  1  0.00002356  0.66605854  0.49920990  1
  P  P192  1  0.04301232  0.25068993  0.10408154  1
  P  P193  1  0.04237531  0.25152564  0.35289404  1
  P  P194  1  0.04206623  0.25079845  0.60450950  1
  P  P195  1  0.04109310  0.25074025  0.85156512  1
  P  P196  1  0.04191136  0.58155314  0.10329105  1
  P  P197  1  0.04127145  0.58342273  0.35216151  1
  P  P198  1  0.04136125  0.58280011  0.60132872  1
  P  P199  1  0.04231609  0.58140727  0.85242734  1
  P  P200  1  0.04239964  0.91658793  0.10382859  1
  P  P201  1  0.04241160  0.91782757  0.35266757  1
  P  P202  1  0.04250302  0.91845437  0.60219349  1
  P  P203  1  0.04291282  0.91656011  0.85306414  1
  P  P204  1  0.54228049  0.24860681  0.10268288  1
  P  P205  1  0.54236795  0.24862724  0.35277605  1
  P  P206  1  0.54156062  0.24975369  0.60112214  1
  P  P207  1  0.54224035  0.24805756  0.85256233  1
  P  P208  1  0.54224639  0.58462365  0.10297319  1
  P  P209  1  0.54120854  0.58346213  0.35100466  1
  P  P210  1  0.54290601  0.58345829  0.60299768  1
  P  P211  1  0.54245533  0.58506482  0.85237643  1
  P  P212  1  0.54133930  0.91651820  0.10190141  1
  P  P213  1  0.54268045  0.91663108  0.35393086  1
  P  P214  1  0.54217552  0.91524955  0.60277946  1
  P  P215  1  0.54247383  0.91663572  0.85468549  1
  P  P216  1  0.45843708  0.08456892  0.14706242  1
  P  P217  1  0.45754328  0.08488045  0.39760834  1
  P  P218  1  0.45788005  0.08459745  0.64762685  1
  P  P219  1  0.45881248  0.08335913  0.89873266  1
  P  P220  1  0.45792364  0.41791300  0.14704948  1
  P  P221  1  0.45807141  0.41550435  0.39639387  1
  P  P222  1  0.45693178  0.41588340  0.64590724  1
  P  P223  1  0.45678750  0.41649569  0.89637022  1
  P  P224  1  0.45833959  0.74914329  0.14671813  1
  P  P225  1  0.45759929  0.75113959  0.39729835  1
  P  P226  1  0.45792004  0.74896893  0.64784667  1
  P  P227  1  0.45872415  0.74957794  0.89884559  1
  P  P228  1  0.95787311  0.08211257  0.14804249  1
  P  P229  1  0.95800809  0.08194604  0.39732753  1
  P  P230  1  0.95737484  0.08472504  0.64742059  1
  P  P231  1  0.95697920  0.08445275  0.89646037  1
  P  P232  1  0.95880553  0.41714614  0.14887266  1
  P  P233  1  0.95770835  0.41828518  0.39704167  1
  P  P234  1  0.95792837  0.41757837  0.64836413  1
  P  P235  1  0.95796614  0.41809567  0.89700554  1
  P  P236  1  0.95709407  0.74779106  0.14790496  1
  P  P237  1  0.95805148  0.74812489  0.39688783  1
  P  P238  1  0.95801486  0.74935271  0.64525212  1
  P  P239  1  0.95694460  0.74934215  0.89651142  1
  P  P240  1  0.20894384  0.08393316  0.22607514  1
  P  P241  1  0.20733109  0.08333976  0.47873550  1
  P  P242  1  0.20819532  0.08425366  0.72873051  1
  P  P243  1  0.20886365  0.08338887  0.97735704  1
  P  P244  1  0.20767734  0.41651264  0.22863808  1
  P  P245  1  0.20761846  0.41512312  0.47747825  1
  P  P246  1  0.20714408  0.41674308  0.72898759  1
  P  P247  1  0.20775527  0.41831494  0.97732592  1
  P  P248  1  0.20833053  0.75056088  0.22568496  1
  P  P249  1  0.20726953  0.75023796  0.47902259  1
  P  P250  1  0.20850274  0.75026555  0.72696010  1
  P  P251  1  0.20787530  0.75189771  0.97818408  1
  P  P252  1  0.70798186  0.08092378  0.22790062  1
  P  P253  1  0.70813409  0.08166791  0.47786607  1
  P  P254  1  0.70763438  0.08455864  0.72735830  1
  P  P255  1  0.70749112  0.08319348  0.97877833  1
  P  P256  1  0.70869553  0.41692707  0.22675038  1
  P  P257  1  0.70743543  0.41767788  0.47760054  1
  P  P258  1  0.70707445  0.41781460  0.72716407  1
  P  P259  1  0.70779503  0.41537198  0.97803028  1
  P  P260  1  0.70720439  0.74962150  0.22931203  1
  P  P261  1  0.70875025  0.74941263  0.47696057  1
  P  P262  1  0.70883761  0.75056752  0.72611651  1
  P  P263  1  0.70803224  0.75141522  0.97738454  1
  P  P264  1  0.29233641  0.24860512  0.02195760  1
  P  P265  1  0.29241718  0.25116735  0.27215244  1
  P  P266  1  0.29196981  0.24869809  0.52269079  1
  P  P267  1  0.29225239  0.24803505  0.77273521  1
  P  P268  1  0.29221037  0.58510989  0.02179984  1
  P  P269  1  0.29262669  0.58445519  0.27107428  1
  P  P270  1  0.29221687  0.58441636  0.52257554  1
  P  P271  1  0.29199918  0.58288311  0.77217673  1
  P  P272  1  0.29127813  0.91709719  0.02257788  1
  P  P273  1  0.29272029  0.91700030  0.27061536  1
  P  P274  1  0.29274950  0.91544441  0.52335385  1
  P  P275  1  0.29191601  0.91625527  0.77395378  1
  P  P276  1  0.79245037  0.25191592  0.02266212  1
  P  P277  1  0.79301698  0.25018347  0.27133516  1
  P  P278  1  0.79241656  0.24841676  0.52232973  1
  P  P279  1  0.79173971  0.25180841  0.77218089  1
  P  P280  1  0.79230254  0.58212682  0.02267881  1
  P  P281  1  0.79050899  0.58247444  0.27356346  1
  P  P282  1  0.79043561  0.58283311  0.52242991  1
  P  P283  1  0.79232970  0.58371015  0.77057792  1
  P  P284  1  0.79260330  0.91763709  0.02265660  1
  P  P285  1  0.79159989  0.91642962  0.27382028  1
  P  P286  1  0.79207432  0.91462983  0.52158596  1
  P  P287  1  0.79226475  0.91510709  0.77178223  1
  O  O288  1  0.03790040  0.25093128  0.18402967  1
  O  O289  1  0.03728509  0.25150573  0.43286752  1
  O  O290  1  0.03637595  0.25071535  0.68439265  1
  O  O291  1  0.03643462  0.25068912  0.93163804  1
  O  O292  1  0.03647145  0.58215967  0.18318685  1
  O  O293  1  0.03612042  0.58370250  0.43208255  1
  O  O294  1  0.03657607  0.58248224  0.68131764  1
  O  O295  1  0.03714412  0.58117320  0.93237127  1
  O  O296  1  0.03714927  0.91696005  0.18383444  1
  O  O297  1  0.03722737  0.91821374  0.43263101  1
  O  O298  1  0.03733196  0.91807402  0.68213729  1
  O  O299  1  0.03779736  0.91623265  0.93302978  1
  O  O300  1  0.53707017  0.24869050  0.18262928  1
  O  O301  1  0.53672601  0.24913970  0.43263545  1
  O  O302  1  0.53658716  0.24942832  0.68110181  1
  O  O303  1  0.53700587  0.24811428  0.93250228  1
  O  O304  1  0.53641917  0.58409972  0.18281787  1
  O  O305  1  0.53648911  0.58313930  0.43100824  1
  O  O306  1  0.53784483  0.58387118  0.68291220  1
  O  O307  1  0.53737023  0.58522908  0.93237843  1
  O  O308  1  0.53675599  0.91685828  0.18191007  1
  O  O309  1  0.53709475  0.91617796  0.43381031  1
  O  O310  1  0.53726061  0.91535726  0.68279859  1
  O  O311  1  0.53708238  0.91662344  0.93456242  1
  O  O312  1  0.46401411  0.08415616  0.06719912  1
  O  O313  1  0.46283253  0.08493554  0.31767037  1
  O  O314  1  0.46293095  0.08458946  0.56767855  1
  O  O315  1  0.46329426  0.08319199  0.81874836  1
  O  O316  1  0.46269118  0.41779117  0.06705046  1
  O  O317  1  0.46350327  0.41617901  0.31642893  1
  O  O318  1  0.46225594  0.41526576  0.56591922  1
  O  O319  1  0.46193220  0.41646268  0.81640072  1
  O  O320  1  0.46396277  0.74948067  0.06687412  1
  O  O321  1  0.46283908  0.75041098  0.31736433  1
  O  O322  1  0.46283333  0.74989473  0.56788790  1
  O  O323  1  0.46380287  0.74913976  0.81886285  1
  O  O324  1  0.96261303  0.08254883  0.06800776  1
  O  O325  1  0.96353842  0.08161384  0.31738375  1
  O  O326  1  0.96261342  0.08414078  0.56745073  1
  O  O327  1  0.96195273  0.08520218  0.81647046  1
  O  O328  1  0.96358054  0.41743392  0.06887255  1
  O  O329  1  0.96335470  0.41766506  0.31721040  1
  O  O330  1  0.96286446  0.41807862  0.56839599  1
  O  O331  1  0.96328273  0.41770689  0.81712683  1
  O  O332  1  0.96198330  0.74814643  0.06789532  1
  O  O333  1  0.96310369  0.74778575  0.31691944  1
  O  O334  1  0.96356291  0.74906015  0.56532815  1
  O  O335  1  0.96221125  0.74954437  0.81652413  1
  O  O336  1  0.21398300  0.08363715  0.05727514  1
  O  O337  1  0.21365006  0.08350472  0.30606494  1
  O  O338  1  0.21249640  0.08347950  0.55867544  1
  O  O339  1  0.21367109  0.08393999  0.80860806  1
  O  O340  1  0.21278826  0.41812433  0.05732467  1
  O  O341  1  0.21320670  0.41579022  0.30854846  1
  O  O342  1  0.21247947  0.41538337  0.55749578  1
  O  O343  1  0.21276972  0.41762246  0.80886650  1
  O  O344  1  0.21343695  0.75147036  0.05803354  1
  O  O345  1  0.21313552  0.75041737  0.30571848  1
  O  O346  1  0.21237894  0.75003625  0.55894300  1
  O  O347  1  0.21352783  0.75066139  0.80694846  1
  O  O348  1  0.71285517  0.08257249  0.05870486  1
  O  O349  1  0.71344390  0.08057677  0.30784400  1
  O  O350  1  0.71341028  0.08253773  0.55780420  1
  O  O351  1  0.71293084  0.08464149  0.80730855  1
  O  O352  1  0.71332195  0.41548445  0.05791091  1
  O  O353  1  0.71347627  0.41748097  0.30675675  1
  O  O354  1  0.71259544  0.41786814  0.55752539  1
  O  O355  1  0.71243331  0.41695746  0.80709398  1
  O  O356  1  0.71293755  0.75103164  0.05734942  1
  O  O357  1  0.71243628  0.74955590  0.30919236  1
  O  O358  1  0.71383519  0.74926417  0.55684642  1
  O  O359  1  0.71378931  0.75069476  0.80607735  1
  O  O360  1  0.28725160  0.25052260  0.19219866  1
  O  O361  1  0.28670168  0.24979267  0.44275310  1
  O  O362  1  0.28692174  0.24773200  0.69280695  1
  O  O363  1  0.28691543  0.24840750  0.94205041  1
  O  O364  1  0.28746023  0.58517330  0.19110705  1
  O  O365  1  0.28714909  0.58417027  0.44256733  1
  O  O366  1  0.28665646  0.58347102  0.69224058  1
  O  O367  1  0.28677412  0.58426913  0.94185311  1
  O  O368  1  0.28757870  0.91710690  0.19069541  1
  O  O369  1  0.28792874  0.91580462  0.44336482  1
  O  O370  1  0.28686643  0.91602411  0.69398110  1
  O  O371  1  0.28628377  0.91710305  0.94269695  1
  O  O372  1  0.78773980  0.25087356  0.19141933  1
  O  O373  1  0.78760825  0.24851466  0.44233635  1
  O  O374  1  0.78653533  0.25098006  0.69225189  1
  O  O375  1  0.78705140  0.25231002  0.94270512  1
  O  O376  1  0.78593471  0.58227551  0.19358223  1
  O  O377  1  0.78522461  0.58259709  0.44253638  1
  O  O378  1  0.78679509  0.58361487  0.69071526  1
  O  O379  1  0.78743117  0.58240688  0.94271713  1
  O  O380  1  0.78654589  0.91726517  0.19382695  1
  O  O381  1  0.78639898  0.91500515  0.44173897  1
  O  O382  1  0.78685201  0.91503100  0.69185368  1
  O  O383  1  0.78763660  0.91698734  0.94269551  1
  O  O384  1  0.22809585  0.24846108  0.05778429  1
  O  O385  1  0.22809505  0.25182377  0.30790518  1
  O  O386  1  0.22774248  0.24785168  0.55859798  1
  O  O387  1  0.22802519  0.24835224  0.80855469  1
  O  O388  1  0.22800782  0.58555521  0.05771290  1
  O  O389  1  0.22828605  0.58351693  0.30640068  1
  O  O390  1  0.22785069  0.58509679  0.55804433  1
  O  O391  1  0.22779272  0.58272354  0.80802551  1
  O  O392  1  0.22732070  0.91661507  0.05901115  1
  O  O393  1  0.22840165  0.91701392  0.30624333  1
  O  O394  1  0.22833519  0.91548237  0.55866646  1
  O  O395  1  0.22774500  0.91627777  0.80996563  1
  O  O396  1  0.72825125  0.25152587  0.05854767  1
  O  O397  1  0.72873347  0.24962710  0.30678497  1
  O  O398  1  0.72797110  0.24856915  0.55755732  1
  O  O399  1  0.72750928  0.25219240  0.80809332  1
  O  O400  1  0.72790235  0.58176945  0.05805418  1
  O  O401  1  0.72625875  0.58242127  0.30926654  1
  O  O402  1  0.72650801  0.58245614  0.55894092  1
  O  O403  1  0.72825215  0.58388472  0.80669314  1
  O  O404  1  0.72816062  0.91828346  0.05814951  1
  O  O405  1  0.72744390  0.91598136  0.30986347  1
  O  O406  1  0.72800038  0.91435819  0.55794220  1
  O  O407  1  0.72809426  0.91496476  0.80787301  1
  O  O408  1  0.27313252  0.08441391  0.19026229  1
  O  O409  1  0.27167259  0.08362887  0.44338576  1
  O  O410  1  0.27228289  0.08450163  0.69237002  1
  O  O411  1  0.27294842  0.08339498  0.94107687  1
  O  O412  1  0.27184122  0.41693454  0.19286439  1
  O  O413  1  0.27202541  0.41470910  0.44208764  1
  O  O414  1  0.27130122  0.41662627  0.69322083  1
  O  O415  1  0.27210435  0.41789464  0.94197459  1
  O  O416  1  0.27258556  0.75094745  0.18994058  1
  O  O417  1  0.27159996  0.75026985  0.44352457  1
  O  O418  1  0.27266014  0.74974474  0.69090198  1
  O  O419  1  0.27201933  0.75207377  0.94199086  1
  O  O420  1  0.77219934  0.08121619  0.19197677  1
  O  O421  1  0.77235836  0.08096074  0.44200174  1
  O  O422  1  0.77188471  0.08435930  0.69163507  1
  O  O423  1  0.77171388  0.08360857  0.94318355  1
  O  O424  1  0.77294122  0.41699845  0.19092454  1
  O  O425  1  0.77179530  0.41826272  0.44209941  1
  O  O426  1  0.77130358  0.41821504  0.69128027  1
  O  O427  1  0.77192979  0.41517085  0.94175795  1
  O  O428  1  0.77142909  0.74977695  0.19358909  1
  O  O429  1  0.77267025  0.74958709  0.44043232  1
  O  O430  1  0.77288568  0.75077919  0.68987825  1
  O  O431  1  0.77238821  0.75172739  0.94185313  1
  O  O432  1  0.02235208  0.08227659  0.18307347  1
  O  O433  1  0.02220648  0.08225811  0.43321635  1
  O  O434  1  0.02160852  0.08535872  0.68310119  1
  O  O435  1  0.02145940  0.08395822  0.93147926  1
  O  O436  1  0.02293506  0.41773683  0.18478843  1
  O  O437  1  0.02181312  0.41892836  0.43329296  1
  O  O438  1  0.02211761  0.41709870  0.68433779  1
  O  O439  1  0.02215859  0.41862480  0.93315461  1
  O  O440  1  0.02154208  0.74775755  0.18308456  1
  O  O441  1  0.02225502  0.74836376  0.43258139  1
  O  O442  1  0.02217219  0.74936451  0.68104816  1
  O  O443  1  0.02133346  0.74893207  0.93169492  1
  O  O444  1  0.52253102  0.08521223  0.18342734  1
  O  O445  1  0.52178896  0.08468117  0.43336467  1
  O  O446  1  0.52222071  0.08459678  0.68323832  1
  O  O447  1  0.52302087  0.08350978  0.93439218  1
  O  O448  1  0.52227368  0.41771247  0.18232771  1
  O  O449  1  0.52223065  0.41509293  0.43234753  1
  O  O450  1  0.52121497  0.41623677  0.68132370  1
  O  O451  1  0.52118927  0.41644542  0.93144590  1
  O  O452  1  0.52235869  0.74855601  0.18309504  1
  O  O453  1  0.52191596  0.75178487  0.43300574  1
  O  O454  1  0.52234519  0.74833552  0.68318291  1
  O  O455  1  0.52292873  0.74996424  0.93480972  1
  O  O456  1  0.47802358  0.24823513  0.06694974  1
  O  O457  1  0.47828080  0.24843055  0.31644534  1
  O  O458  1  0.47735935  0.25008721  0.56516177  1
  O  O459  1  0.47793189  0.24780092  0.81688466  1
  O  O460  1  0.47818887  0.58532277  0.06656823  1
  O  O461  1  0.47703715  0.58385971  0.31523786  1
  O  O462  1  0.47853499  0.58328621  0.56778627  1
  O  O463  1  0.47810275  0.58523026  0.81680656  1
  O  O464  1  0.47717232  0.91571897  0.06620426  1
  O  O465  1  0.47853265  0.91694769  0.31819524  1
  O  O466  1  0.47781034  0.91526186  0.56741735  1
  O  O467  1  0.47828581  0.91656707  0.81891404  1
  O  O468  1  0.97863163  0.25067405  0.06884661  1
  O  O469  1  0.97812030  0.25102232  0.31742129  1
  O  O470  1  0.97797348  0.25076417  0.56850166  1
  O  O471  1  0.97685419  0.25123447  0.81589454  1
  O  O472  1  0.97768257  0.58067984  0.06729437  1
  O  O473  1  0.97711646  0.58314792  0.31596491  1
  O  O474  1  0.97709594  0.58268599  0.56552533  1
  O  O475  1  0.97801704  0.58145560  0.81677647  1
  O  O476  1  0.97806232  0.91642661  0.06851703  1
  O  O477  1  0.97810194  0.91737251  0.31712754  1
  O  O478  1  0.97822358  0.91834101  0.56657378  1
  O  O479  1  0.97846198  0.91669732  0.81807504  1
  O  O480  1  0.07420829  0.31394605  0.07544886  1
  O  O481  1  0.07262551  0.31532687  0.32427613  1
  O  O482  1  0.07330199  0.31432949  0.57638255  1
  O  O483  1  0.07224587  0.31432773  0.82365565  1
  O  O484  1  0.07251626  0.64532256  0.07470620  1
  O  O485  1  0.07210812  0.64696724  0.32328870  1
  O  O486  1  0.07187896  0.64674383  0.57316269  1
  O  O487  1  0.07319336  0.64537708  0.82475829  1
  O  O488  1  0.07371097  0.97976549  0.07523569  1
  O  O489  1  0.07318000  0.98115444  0.32357146  1
  O  O490  1  0.07305883  0.98229950  0.57417734  1
  O  O491  1  0.07391720  0.98023075  0.82529358  1
  O  O492  1  0.57283615  0.31266656  0.07488039  1
  O  O493  1  0.57370111  0.31206447  0.32442496  1
  O  O494  1  0.57235666  0.31352158  0.57290706  1
  O  O495  1  0.57300534  0.31192842  0.82459515  1
  O  O496  1  0.57367292  0.64791479  0.07461284  1
  O  O497  1  0.57224244  0.64716405  0.32330841  1
  O  O498  1  0.57411111  0.64668132  0.57427683  1
  O  O499  1  0.57343237  0.64842075  0.82367104  1
  O  O500  1  0.57136168  0.98066609  0.07352960  1
  O  O501  1  0.57382412  0.98031019  0.32611210  1
  O  O502  1  0.57324980  0.97901804  0.57524692  1
  O  O503  1  0.57371420  0.97992470  0.82597741  1
  O  O504  1  0.42761693  0.02072913  0.17509296  1
  O  O505  1  0.42635773  0.02115093  0.42532703  1
  O  O506  1  0.42700841  0.02073273  0.67551840  1
  O  O507  1  0.42844591  0.01939826  0.92747705  1
  O  O508  1  0.42661426  0.35433010  0.17470744  1
  O  O509  1  0.42733817  0.35177577  0.42460724  1
  O  O510  1  0.42571449  0.35266384  0.67455884  1
  O  O511  1  0.42572318  0.35297845  0.92443998  1
  O  O512  1  0.42705244  0.68588914  0.17536042  1
  O  O513  1  0.42661972  0.68750800  0.42545129  1
  O  O514  1  0.42709947  0.68534737  0.67615734  1
  O  O515  1  0.42786995  0.68606515  0.92729697  1
  O  O516  1  0.92741376  0.01837407  0.17652737  1
  O  O517  1  0.92718170  0.01863529  0.42630053  1
  O  O518  1  0.92623366  0.02115592  0.67544813  1
  O  O519  1  0.92593143  0.02066870  0.92410272  1
  O  O520  1  0.92890884  0.35282274  0.17714474  1
  O  O521  1  0.92665041  0.35478606  0.42554278  1
  O  O522  1  0.92700177  0.35382366  0.67634702  1
  O  O523  1  0.92719673  0.35437640  0.92547089  1
  O  O524  1  0.92637755  0.68414306  0.17621319  1
  O  O525  1  0.92709609  0.68486171  0.42581888  1
  O  O526  1  0.92657648  0.68614667  0.67356287  1
  O  O527  1  0.92572824  0.68575064  0.92425964  1
  O  O528  1  0.17862573  0.02010036  0.19741651  1
  O  O529  1  0.17674181  0.01957378  0.45038672  1
  O  O530  1  0.17706341  0.02054048  0.70086530  1
  O  O531  1  0.17808119  0.01962509  0.94901730  1
  O  O532  1  0.17636191  0.35342825  0.19990267  1
  O  O533  1  0.17673071  0.35163803  0.44918608  1
  O  O534  1  0.17623465  0.35279005  0.70169678  1
  O  O535  1  0.17634739  0.35468463  0.94989204  1
  O  O536  1  0.17786417  0.68662448  0.19760895  1
  O  O537  1  0.17602156  0.68697845  0.45019652  1
  O  O538  1  0.17753812  0.68647673  0.69912577  1
  O  O539  1  0.17662503  0.68841675  0.94986794  1
  O  O540  1  0.67701501  0.01764584  0.19913684  1
  O  O541  1  0.67709791  0.01790996  0.45021681  1
  O  O542  1  0.67637341  0.02078987  0.70010399  1
  O  O543  1  0.67626356  0.02008171  0.94999439  1
  O  O544  1  0.67811726  0.35287873  0.19899131  1
  O  O545  1  0.67716067  0.35347778  0.44976655  1
  O  O546  1  0.67580522  0.35446279  0.69882699  1
  O  O547  1  0.67668055  0.35211305  0.94913300  1
  O  O548  1  0.67612865  0.68630795  0.20057571  1
  O  O549  1  0.67802672  0.68559281  0.44844294  1
  O  O550  1  0.67855269  0.68651500  0.69771432  1
  O  O551  1  0.67726159  0.68761610  0.94947248  1
  O  O552  1  0.32324051  0.31259543  0.04934628  1
  O  O553  1  0.32331798  0.31466008  0.30057151  1
  O  O554  1  0.32295603  0.31215966  0.55115307  1
  O  O555  1  0.32340897  0.31188956  0.80008172  1
  O  O556  1  0.32291027  0.64896062  0.04970370  1
  O  O557  1  0.32347204  0.64783007  0.29974057  1
  O  O558  1  0.32333285  0.64768221  0.55110548  1
  O  O559  1  0.32329905  0.64632692  0.80028316  1
  O  O560  1  0.32162611  0.98114669  0.05101256  1
  O  O561  1  0.32386989  0.98037158  0.29930068  1
  O  O562  1  0.32392482  0.97895125  0.55142729  1
  O  O563  1  0.32243033  0.98025527  0.80208676  1
  O  O564  1  0.82343414  0.31515642  0.05154310  1
  O  O565  1  0.82401302  0.31343234  0.30020549  1
  O  O566  1  0.82354732  0.31215867  0.54989463  1
  O  O567  1  0.82241549  0.31564950  0.80014530  1
  O  O568  1  0.82311437  0.64585040  0.05067358  1
  O  O569  1  0.82086853  0.64645728  0.30202446  1
  O  O570  1  0.82090271  0.64693031  0.55053142  1
  O  O571  1  0.82377877  0.64705614  0.79876627  1
  O  O572  1  0.82353937  0.98115134  0.05105164  1
  O  O573  1  0.82258870  0.97972571  0.30262649  1
  O  O574  1  0.82317891  0.97813970  0.54990775  1
  O  O575  1  0.82313533  0.97909429  0.79925616  1
  O  O576  1  0.42720659  0.14780021  0.17560725  1
  O  O577  1  0.42669875  0.14818841  0.42641655  1
  O  O578  1  0.42715259  0.14793684  0.67649596  1
  O  O579  1  0.42771584  0.14672047  0.92709927  1
  O  O580  1  0.42747661  0.48159255  0.17563181  1
  O  O581  1  0.42676213  0.47893478  0.42440122  1
  O  O582  1  0.42584833  0.47954217  0.67366574  1
  O  O583  1  0.42590290  0.48010012  0.92436763  1
  O  O584  1  0.42733726  0.81282866  0.17467118  1
  O  O585  1  0.42679705  0.81469616  0.42571926  1
  O  O586  1  0.42705340  0.81236423  0.67664345  1
  O  O587  1  0.42791051  0.81344516  0.92667722  1
  O  O588  1  0.92669348  0.14562427  0.17598295  1
  O  O589  1  0.92684019  0.14581294  0.42456181  1
  O  O590  1  0.92650389  0.14830476  0.67575070  1
  O  O591  1  0.92603495  0.14766631  0.92544246  1
  O  O592  1  0.92711812  0.48010603  0.17738193  1
  O  O593  1  0.92658024  0.48168952  0.42545560  1
  O  O594  1  0.92726581  0.48119110  0.67683448  1
  O  O595  1  0.92677005  0.48125858  0.92580706  1
  O  O596  1  0.92609957  0.81135095  0.17600721  1
  O  O597  1  0.92709097  0.81204255  0.42424907  1
  O  O598  1  0.92706363  0.81311515  0.67297847  1
  O  O599  1  0.92612000  0.81275635  0.92506164  1
  O  O600  1  0.07386713  0.18709412  0.07577984  1
  O  O601  1  0.07389528  0.18800269  0.32546460  1
  O  O602  1  0.07345827  0.18761088  0.57595412  1
  O  O603  1  0.07141131  0.18678243  0.82340379  1
  O  O604  1  0.07332593  0.51839904  0.07484847  1
  O  O605  1  0.07241167  0.51986974  0.32404212  1
  O  O606  1  0.07237599  0.51939701  0.57280630  1
  O  O607  1  0.07331825  0.51836192  0.82331710  1
  O  O608  1  0.07324568  0.85276952  0.07608342  1
  O  O609  1  0.07353137  0.85396570  0.32532556  1
  O  O610  1  0.07366088  0.85494091  0.57425941  1
  O  O611  1  0.07387864  0.85319918  0.82455569  1
  O  O612  1  0.57358487  0.18546377  0.07421952  1
  O  O613  1  0.57335840  0.18512759  0.32443398  1
  O  O614  1  0.57235506  0.18611668  0.57279754  1
  O  O615  1  0.57318073  0.18479457  0.82371511  1
  O  O616  1  0.57310434  0.52098361  0.07461737  1
  O  O617  1  0.57155808  0.51951345  0.32267012  1
  O  O618  1  0.57379352  0.51987619  0.57476936  1
  O  O619  1  0.57316900  0.52111784  0.82475553  1
  O  O620  1  0.57280257  0.85311678  0.07417455  1
  O  O621  1  0.57398669  0.85351130  0.32536847  1
  O  O622  1  0.57270060  0.85168508  0.57414116  1
  O  O623  1  0.57375592  0.85328892  0.82628223  1
  O  O624  1  0.32340731  0.18547497  0.05084888  1
  O  O625  1  0.32321139  0.18751027  0.30035856  1
  O  O626  1  0.32286509  0.18503512  0.55065481  1
  O  O627  1  0.32316341  0.18481344  0.80164756  1
  O  O628  1  0.32349590  0.52177407  0.05000962  1
  O  O629  1  0.32396794  0.52095749  0.29892180  1
  O  O630  1  0.32283002  0.52037779  0.55004360  1
  O  O631  1  0.32267839  0.51919194  0.80047564  1
  O  O632  1  0.32275837  0.85392871  0.05110557  1
  O  O633  1  0.32376775  0.85355501  0.29910792  1
  O  O634  1  0.32320867  0.85185395  0.55204523  1
  O  O635  1  0.32300442  0.85281844  0.80227564  1
  O  O636  1  0.82361809  0.18809807  0.05007193  1
  O  O637  1  0.82423822  0.18649125  0.29881746  1
  O  O638  1  0.82281484  0.18480086  0.55104884  1
  O  O639  1  0.82292214  0.18849950  0.80065039  1
  O  O640  1  0.82299670  0.51860056  0.05124035  1
  O  O641  1  0.82166396  0.51920901  0.30214265  1
  O  O642  1  0.82190399  0.51969606  0.55109145  1
  O  O643  1  0.82343197  0.52032355  0.79908524  1
  O  O644  1  0.82331878  0.85406092  0.05127899  1
  O  O645  1  0.82235858  0.85236759  0.30123588  1
  O  O646  1  0.82322516  0.85119852  0.54979254  1
  O  O647  1  0.82326520  0.85184538  0.80052290  1
  O  O648  1  0.17784852  0.14759922  0.19842043  1
  O  O649  1  0.17578869  0.14639594  0.45024717  1
  O  O650  1  0.17714394  0.14754152  0.70004071  1
  O  O651  1  0.17769852  0.14681645  0.94880110  1
  O  O652  1  0.17653730  0.48024903  0.20117147  1
  O  O653  1  0.17704947  0.47908321  0.44968893  1
  O  O654  1  0.17564449  0.47964102  0.70006813  1
  O  O655  1  0.17751368  0.48211637  0.94889791  1
  O  O656  1  0.17729598  0.81418206  0.19787195  1
  O  O657  1  0.17624711  0.81364251  0.45030733  1
  O  O658  1  0.17791851  0.81404185  0.69864589  1
  O  O659  1  0.17685624  0.81526646  0.94961612  1
  O  O660  1  0.67696418  0.14482895  0.20055702  1
  O  O661  1  0.67723008  0.14510151  0.44931397  1
  O  O662  1  0.67714718  0.14811232  0.69858024  1
  O  O663  1  0.67639983  0.14693952  0.95121612  1
  O  O664  1  0.67771766  0.48027918  0.19794013  1
  O  O665  1  0.67589767  0.48055636  0.44875784  1
  O  O666  1  0.67634501  0.48158365  0.69925451  1
  O  O667  1  0.67663833  0.47900871  0.95001158  1
  O  O668  1  0.67597460  0.81305718  0.20098628  1
  O  O669  1  0.67748359  0.81277860  0.44866670  1
  O  O670  1  0.67744309  0.81381862  0.69782349  1
  O  O671  1  0.67739591  0.81496625  0.94892367  1
