# generated using pymatgen
data_Na2MnFe(PO4)2
_symmetry_space_group_name_H-M   'P 1'
_cell_length_a   22.34729687
_cell_length_b   20.09643329
_cell_length_c   19.44696896
_cell_angle_alpha   90.03127287
_cell_angle_beta   90.02749814
_cell_angle_gamma   89.94494036
_symmetry_Int_Tables_number   1
_chemical_formula_structural   Na2MnFe(PO4)2
_chemical_formula_sum   'Na96 Mn48 Fe48 P96 O384'
_cell_volume   8733.64611226
_cell_formula_units_Z   48
loop_
 _symmetry_equiv_pos_site_id
 _symmetry_equiv_pos_as_xyz
  1  'x, y, z'
loop_
 _atom_site_type_symbol
 _atom_site_label
 _atom_site_symmetry_multiplicity
 _atom_site_fract_x
 _atom_site_fract_y
 _atom_site_fract_z
 _atom_site_occupancy
  Na  Na0  1  0.13904724  0.24948947  0.24260338  1
  Na  Na1  1  0.13973887  0.25104779  0.49323032  1
  Na  Na2  1  0.14000835  0.25041452  0.74452887  1
  Na  Na3  1  0.13948254  0.25011324  0.99327112  1
  Na  Na4  1  0.13977032  0.58558081  0.24393251  1
  Na  Na5  1  0.13955410  0.58444603  0.49284104  1
  Na  Na6  1  0.13999271  0.58292273  0.74396445  1
  Na  Na7  1  0.13955620  0.58529623  0.99421665  1
  Na  Na8  1  0.14018247  0.91502218  0.24291324  1
  Na  Na9  1  0.13998374  0.91593003  0.49418331  1
  Na  Na10  1  0.13951954  0.91738541  0.74468112  1
  Na  Na11  1  0.13944958  0.91677525  0.99417979  1
  Na  Na12  1  0.64041483  0.24870663  0.24369774  1
  Na  Na13  1  0.64048605  0.24975747  0.49355317  1
  Na  Na14  1  0.64071706  0.24975739  0.74308376  1
  Na  Na15  1  0.64058395  0.24788163  0.99308312  1
  Na  Na16  1  0.64046455  0.58335550  0.24337815  1
  Na  Na17  1  0.64058691  0.58390916  0.49372251  1
  Na  Na18  1  0.64100679  0.58307369  0.74254780  1
  Na  Na19  1  0.64019701  0.58357870  0.99249765  1
  Na  Na20  1  0.64111025  0.91617984  0.24428473  1
  Na  Na21  1  0.64108054  0.91691033  0.49500403  1
  Na  Na22  1  0.64080796  0.91599761  0.74471705  1
  Na  Na23  1  0.64090018  0.91637444  0.99396101  1
  Na  Na24  1  0.35961641  0.08275493  0.00624223  1
  Na  Na25  1  0.35971296  0.08213096  0.25534650  1
  Na  Na26  1  0.35945392  0.08380842  0.50586737  1
  Na  Na27  1  0.35978999  0.08436921  0.75616664  1
  Na  Na28  1  0.35959905  0.41868901  0.00497961  1
  Na  Na29  1  0.35926130  0.41721100  0.25508330  1
  Na  Na30  1  0.35974469  0.41684539  0.50557812  1
  Na  Na31  1  0.35989227  0.41714083  0.75529353  1
  Na  Na32  1  0.36007948  0.75068938  0.00736948  1
  Na  Na33  1  0.36016866  0.74949440  0.25520845  1
  Na  Na34  1  0.35981104  0.74971205  0.50450646  1
  Na  Na35  1  0.35970908  0.75021040  0.75670712  1
  Na  Na36  1  0.86017578  0.08270798  0.00743603  1
  Na  Na37  1  0.85958105  0.08375946  0.25633165  1
  Na  Na38  1  0.85960071  0.08230913  0.50655897  1
  Na  Na39  1  0.85959644  0.08195019  0.75766738  1
  Na  Na40  1  0.85941987  0.41545374  0.00698783  1
  Na  Na41  1  0.85954893  0.41619239  0.25650123  1
  Na  Na42  1  0.85963451  0.41681840  0.50738746  1
  Na  Na43  1  0.85973157  0.41637628  0.75511967  1
  Na  Na44  1  0.86029862  0.75113301  0.00745622  1
  Na  Na45  1  0.86021007  0.75024098  0.25722696  1
  Na  Na46  1  0.85970629  0.74989651  0.50806479  1
  Na  Na47  1  0.86011088  0.75047073  0.75729989  1
  Na  Na48  1  0.10879113  0.08312432  0.11744889  1
  Na  Na49  1  0.10873904  0.08326348  0.36789799  1
  Na  Na50  1  0.10882241  0.08337799  0.61972987  1
  Na  Na51  1  0.10942754  0.08224451  0.86967766  1
  Na  Na52  1  0.10841018  0.41658679  0.11820410  1
  Na  Na53  1  0.10846457  0.41702302  0.36904857  1
  Na  Na54  1  0.10935228  0.41738016  0.61765758  1
  Na  Na55  1  0.10903608  0.41753614  0.86892955  1
  Na  Na56  1  0.10939029  0.75092335  0.11918549  1
  Na  Na57  1  0.10969637  0.74965237  0.36802729  1
  Na  Na58  1  0.10934400  0.74953301  0.61928637  1
  Na  Na59  1  0.10903890  0.75123558  0.87017183  1
  Na  Na60  1  0.61036472  0.08242963  0.11868134  1
  Na  Na61  1  0.60997927  0.08196578  0.36905300  1
  Na  Na62  1  0.60983924  0.08413167  0.61904335  1
  Na  Na63  1  0.61013346  0.08281466  0.86947443  1
  Na  Na64  1  0.60938613  0.41600414  0.11783488  1
  Na  Na65  1  0.60986611  0.41513449  0.36886891  1
  Na  Na66  1  0.61041130  0.41792622  0.61775368  1
  Na  Na67  1  0.61016193  0.41599897  0.86768761  1
  Na  Na68  1  0.61006574  0.74803706  0.11780978  1
  Na  Na69  1  0.61051331  0.74966772  0.36962243  1
  Na  Na70  1  0.61026643  0.75117096  0.61832661  1
  Na  Na71  1  0.61018319  0.74972217  0.86894632  1
  Na  Na72  1  0.39061563  0.24932227  0.12979657  1
  Na  Na73  1  0.39043469  0.24859641  0.38059853  1
  Na  Na74  1  0.39056384  0.25217055  0.63074847  1
  Na  Na75  1  0.39101018  0.25072560  0.88048868  1
  Na  Na76  1  0.39042379  0.58351585  0.13004356  1
  Na  Na77  1  0.39057292  0.58332594  0.38021917  1
  Na  Na78  1  0.39056905  0.58414375  0.63005853  1
  Na  Na79  1  0.39094520  0.58351703  0.88146493  1
  Na  Na80  1  0.39030638  0.91556482  0.13130377  1
  Na  Na81  1  0.39021532  0.91547221  0.38042077  1
  Na  Na82  1  0.39057954  0.91826938  0.63068496  1
  Na  Na83  1  0.39042698  0.91713894  0.88264276  1
  Na  Na84  1  0.89028880  0.24963696  0.13125112  1
  Na  Na85  1  0.89008541  0.25113973  0.38110458  1
  Na  Na86  1  0.89034578  0.25021212  0.63120838  1
  Na  Na87  1  0.89023254  0.24943354  0.88213375  1
  Na  Na88  1  0.89014162  0.58447988  0.13188066  1
  Na  Na89  1  0.89074347  0.58319308  0.38229601  1
  Na  Na90  1  0.89015613  0.58414193  0.63166392  1
  Na  Na91  1  0.89051036  0.58422279  0.88118636  1
  Na  Na92  1  0.89020784  0.91717337  0.13232091  1
  Na  Na93  1  0.88989471  0.91519933  0.38225526  1
  Na  Na94  1  0.89018289  0.91588412  0.63355998  1
  Na  Na95  1  0.89027775  0.91665633  0.88271149  1
  Mn  Mn96  1  0.00037141  0.83212033  0.50136799  1
  Mn  Mn97  1  0.50059966  -0.00043524  0.24967032  1
  Mn  Mn98  1  0.49992575  0.66645841  0.75007342  1
  Mn  Mn99  1  0.24988961  0.83461254  0.87601022  1
  Mn  Mn100  1  0.25020240  0.83354121  0.62504466  1
  Mn  Mn101  1  0.24952723  0.66674212  0.87546854  1
  Mn  Mn102  1  0.75087479  0.49933015  0.87433212  1
  Mn  Mn103  1  0.49990873  0.49989564  0.24950889  1
  Mn  Mn104  1  0.24932636  0.16657777  0.37451719  1
  Mn  Mn105  1  0.49969157  0.33178973  0.24844925  1
  Mn  Mn106  1  -0.00008884  0.33361249  0.75004097  1
  Mn  Mn107  1  0.24902027  0.50127627  0.37489121  1
  Mn  Mn108  1  0.24914482  0.16773596  0.62549490  1
  Mn  Mn109  1  0.24965991  0.33368230  0.37428769  1
  Mn  Mn110  1  0.50076610  0.33440023  0.75022871  1
  Mn  Mn111  1  0.75086357  0.66727166  0.37565040  1
  Mn  Mn112  1  0.24870285  0.50193260  0.12562498  1
  Mn  Mn113  1  0.75028795  0.49944052  0.37498114  1
  Mn  Mn114  1  0.50008646  0.16680620  0.49998780  1
  Mn  Mn115  1  0.75045261  0.83348646  0.12573383  1
  Mn  Mn116  1  -0.00026285  -0.00074387  0.49982762  1
  Mn  Mn117  1  -0.00058590  0.50059367  0.00049883  1
  Mn  Mn118  1  -0.00060595  0.50027839  0.25013332  1
  Mn  Mn119  1  0.49990329  -0.00001496  0.00048864  1
  Mn  Mn120  1  0.74992858  0.16626075  0.37573429  1
  Mn  Mn121  1  0.50036227  0.50041842  0.49876809  1
  Mn  Mn122  1  0.24999233  0.33461155  0.87447539  1
  Mn  Mn123  1  0.25034368  0.49967164  0.62388023  1
  Mn  Mn124  1  0.75032148  0.16562146  0.87460655  1
  Mn  Mn125  1  0.24986902  0.00029161  0.62433829  1
  Mn  Mn126  1  0.50099058  0.83150626  0.25060965  1
  Mn  Mn127  1  -0.00030139  -0.00015238  0.24980634  1
  Mn  Mn128  1  0.24970590  0.66685158  0.62495315  1
  Mn  Mn129  1  0.74910455  0.33209390  0.12514857  1
  Mn  Mn130  1  0.24936683  0.33406933  0.12408120  1
  Mn  Mn131  1  0.50062272  0.33279604  -0.00085733  1
  Mn  Mn132  1  0.74929508  0.50022200  0.12500138  1
  Mn  Mn133  1  -0.00101529  0.16731186  0.49950169  1
  Mn  Mn134  1  0.50003216  0.83346306  0.49973157  1
  Mn  Mn135  1  0.25025233  0.16638281  0.87449531  1
  Mn  Mn136  1  0.24997311  0.16570012  0.12396779  1
  Mn  Mn137  1  0.00023627  0.16599227  0.75091391  1
  Mn  Mn138  1  0.49990853  0.83379206  0.74966028  1
  Mn  Mn139  1  0.75055165  0.16594589  0.62527749  1
  Mn  Mn140  1  0.75080942  0.66744215  0.87409290  1
  Mn  Mn141  1  0.50037765  0.00147670  0.75135437  1
  Mn  Mn142  1  0.24932565  -0.00108996  0.37487188  1
  Mn  Mn143  1  -0.00057236  0.50107910  0.74989558  1
  Fe  Fe144  1  0.75046003  0.66714301  0.12499202  1
  Fe  Fe145  1  0.50026633  0.16751896  0.74928973  1
  Fe  Fe146  1  -0.00051022  0.83338020  0.00037495  1
  Fe  Fe147  1  0.50040403  0.66673610  0.50007699  1
  Fe  Fe148  1  -0.00026838  0.50071861  0.49970929  1
  Fe  Fe149  1  0.75027581  -0.00105465  0.62591378  1
  Fe  Fe150  1  -0.00042664  0.16722974  0.24912439  1
  Fe  Fe151  1  -0.00019964  0.83306289  0.75140859  1
  Fe  Fe152  1  -0.00034444  -0.00036089  0.00027884  1
  Fe  Fe153  1  0.75050307  -0.00037072  0.37581833  1
  Fe  Fe154  1  0.75027630  -0.00072956  0.87581060  1
  Fe  Fe155  1  0.25024653  0.83356025  0.12501981  1
  Fe  Fe156  1  -0.00017431  0.16665658  0.00029067  1
  Fe  Fe157  1  0.50048625  0.66579276  -0.00082444  1
  Fe  Fe158  1  -0.00005958  0.33355641  0.49969620  1
  Fe  Fe159  1  0.50022721  0.16573247  0.25023977  1
  Fe  Fe160  1  0.75083840  0.83383099  0.62594303  1
  Fe  Fe161  1  0.50042005  0.16641456  -0.00034334  1
  Fe  Fe162  1  0.25003422  -0.00006364  0.87533488  1
  Fe  Fe163  1  0.25018844  0.83292803  0.37373867  1
  Fe  Fe164  1  -0.00070775  0.33364063  0.24975519  1
  Fe  Fe165  1  0.50046743  0.49977820  -0.00058278  1
  Fe  Fe166  1  0.75059551  -0.00032599  0.12553735  1
  Fe  Fe167  1  0.00041064  0.66706817  0.75079531  1
  Fe  Fe168  1  0.24940678  0.33380919  0.62497245  1
  Fe  Fe169  1  0.74987994  0.66723192  0.62502886  1
  Fe  Fe170  1  0.25030796  0.66767069  0.37404033  1
  Fe  Fe171  1  -0.00058107  0.33313346  0.00020681  1
  Fe  Fe172  1  0.50085674  0.66575037  0.24888535  1
  Fe  Fe173  1  0.75017914  0.16569709  0.12495979  1
  Fe  Fe174  1  0.25034811  0.66762113  0.12461244  1
  Fe  Fe175  1  0.49978612  0.00046596  0.50005277  1
  Fe  Fe176  1  0.75014318  0.83324845  0.87522507  1
  Fe  Fe177  1  0.24955699  0.50074466  0.87486313  1
  Fe  Fe178  1  -0.00064142  0.66682076  0.50039254  1
  Fe  Fe179  1  0.75016915  0.49939254  0.62474802  1
  Fe  Fe180  1  0.74988738  0.33306224  0.37511889  1
  Fe  Fe181  1  -0.00016721  0.66709376  0.25062818  1
  Fe  Fe182  1  0.24948149  -0.00076563  0.12538490  1
  Fe  Fe183  1  0.50028202  0.33353880  0.49973198  1
  Fe  Fe184  1  -0.00043672  0.66764111  0.00095693  1
  Fe  Fe185  1  0.50051929  0.83240436  0.00066011  1
  Fe  Fe186  1  -0.00075239  -0.00037128  0.75105615  1
  Fe  Fe187  1  0.75007594  0.33284033  0.87444503  1
  Fe  Fe188  1  0.75023671  0.33281138  0.62469797  1
  Fe  Fe189  1  -0.00032193  0.83316416  0.25006286  1
  Fe  Fe190  1  0.75014539  0.83392192  0.37629061  1
  Fe  Fe191  1  0.50061939  0.50067286  0.74916230  1
  P  P192  1  0.04106842  0.24999613  0.10211364  1
  P  P193  1  0.04066386  0.25061370  0.35118887  1
  P  P194  1  0.04199454  0.25114002  0.60217074  1
  P  P195  1  0.04221060  0.25002244  0.85435757  1
  P  P196  1  0.04147758  0.58531346  0.10330838  1
  P  P197  1  0.04150949  0.58461322  0.35320245  1
  P  P198  1  0.04104591  0.58414321  0.60191180  1
  P  P199  1  0.04193829  0.58529864  0.85340251  1
  P  P200  1  0.04051084  0.91623095  0.10205734  1
  P  P201  1  0.04204486  0.91494642  0.35222536  1
  P  P202  1  0.04224735  0.91650071  0.60462590  1
  P  P203  1  0.04060020  0.91669104  0.85305616  1
  P  P204  1  0.54272796  0.24780184  0.10228625  1
  P  P205  1  0.54240213  0.24837989  0.35242240  1
  P  P206  1  0.54258776  0.25176202  0.60251906  1
  P  P207  1  0.54282362  0.24850773  0.85236263  1
  P  P208  1  0.54176070  0.58283252  0.10115176  1
  P  P209  1  0.54276216  0.58440593  0.35227739  1
  P  P210  1  0.54278474  0.58446631  0.60227962  1
  P  P211  1  0.54288377  0.58190245  0.85265770  1
  P  P212  1  0.54260852  0.91485554  0.10257714  1
  P  P213  1  0.54286414  0.91636754  0.35367533  1
  P  P214  1  0.54223709  0.91864909  0.60254009  1
  P  P215  1  0.54250533  0.91612159  0.85420679  1
  P  P216  1  0.45822988  0.08432340  0.14713802  1
  P  P217  1  0.45765849  0.08208415  0.39713127  1
  P  P218  1  0.45792270  0.08497505  0.64724589  1
  P  P219  1  0.45787553  0.08502626  0.89733713  1
  P  P220  1  0.45729320  0.41663305  0.14550849  1
  P  P221  1  0.45770431  0.41500644  0.39677706  1
  P  P222  1  0.45835642  0.41848795  0.64672215  1
  P  P223  1  0.45856197  0.41822296  0.89665906  1
  P  P224  1  0.45872359  0.74807427  0.14642042  1
  P  P225  1  0.45847226  0.74786086  0.39696870  1
  P  P226  1  0.45736372  0.74999737  0.64640835  1
  P  P227  1  0.45878330  0.74987985  0.89864642  1
  P  P228  1  0.95816484  0.08463694  0.14672184  1
  P  P229  1  0.95691140  0.08334272  0.39623578  1
  P  P230  1  0.95718710  0.08198605  0.64829210  1
  P  P231  1  0.95860657  0.08286562  0.89877905  1
  P  P232  1  0.95727793  0.41544932  0.14716972  1
  P  P233  1  0.95822771  0.41667093  0.39826730  1
  P  P234  1  0.95760431  0.41729781  0.64583762  1
  P  P235  1  0.95738560  0.41607293  0.89799953  1
  P  P236  1  0.95857079  0.75012589  0.14828340  1
  P  P237  1  0.95766915  0.74874096  0.39767397  1
  P  P238  1  0.95869261  0.74963210  0.64928398  1
  P  P239  1  0.95838383  0.75025461  0.89849980  1
  P  P240  1  0.20695119  0.08150473  0.22693944  1
  P  P241  1  0.20625624  0.08340340  0.47779637  1
  P  P242  1  0.20691062  0.08305262  0.72865170  1
  P  P243  1  0.20778662  0.08165917  0.97776192  1
  P  P244  1  0.20611628  0.41742272  0.22781402  1
  P  P245  1  0.20670325  0.41688716  0.47812221  1
  P  P246  1  0.20723482  0.41639326  0.72737191  1
  P  P247  1  0.20700600  0.41907540  0.97720385  1
  P  P248  1  0.20902507  0.75023070  0.22673008  1
  P  P249  1  0.20823998  0.75055462  0.47579147  1
  P  P250  1  0.20702165  0.75039898  0.72844601  1
  P  P251  1  0.20749390  0.75086359  0.97938246  1
  P  P252  1  0.70902071  0.08256038  0.22722998  1
  P  P253  1  0.70815268  0.08127027  0.47831997  1
  P  P254  1  0.70819364  0.08116921  0.72800788  1
  P  P255  1  0.70857463  0.08152976  0.97831278  1
  P  P256  1  0.70674614  0.41609342  0.22832140  1
  P  P257  1  0.70832396  0.41522668  0.47818956  1
  P  P258  1  0.70900012  0.41572504  0.72641712  1
  P  P259  1  0.70791427  0.41505894  0.97679526  1
  P  P260  1  0.70819630  0.74913183  0.22796260  1
  P  P261  1  0.70863743  0.75174434  0.47897631  1
  P  P262  1  0.70900932  0.75082029  0.72698236  1
  P  P263  1  0.70856164  0.75110132  0.97765989  1
  P  P264  1  0.29264751  0.25021631  0.02109609  1
  P  P265  1  0.29247044  0.24961301  0.27104966  1
  P  P266  1  0.29195787  0.25158590  0.52243218  1
  P  P267  1  0.29290017  0.25090228  0.77128036  1
  P  P268  1  0.29183012  0.58485549  0.02213909  1
  P  P269  1  0.29205368  0.58544986  0.27179328  1
  P  P270  1  0.29252146  0.58439288  0.52077653  1
  P  P271  1  0.29236366  0.58225584  0.77255905  1
  P  P272  1  0.29145494  0.91725652  0.02346137  1
  P  P273  1  0.29211241  0.91493183  0.27117620  1
  P  P274  1  0.29297437  0.91603376  0.52091888  1
  P  P275  1  0.29276382  0.91814636  0.77288571  1
  P  P276  1  0.79196172  0.24790034  0.02238205  1
  P  P277  1  0.79188550  0.25036861  0.27265402  1
  P  P278  1  0.79223605  0.25066189  0.52232841  1
  P  P279  1  0.79237262  0.25086081  0.77211936  1
  P  P280  1  0.79214404  0.58462741  0.02255152  1
  P  P281  1  0.79299487  0.58368357  0.27188961  1
  P  P282  1  0.79113033  0.58331126  0.52386986  1
  P  P283  1  0.79273698  0.58317939  0.77055150  1
  P  P284  1  0.79237498  0.91772662  0.02273714  1
  P  P285  1  0.79161244  0.91670462  0.27399796  1
  P  P286  1  0.79231091  0.91646438  0.52374897  1
  P  P287  1  0.79154913  0.91625063  0.77362019  1
  O  O288  1  0.03580329  0.25015552  0.18204287  1
  O  O289  1  0.03560550  0.25080152  0.43115408  1
  O  O290  1  0.03718540  0.25067307  0.68215581  1
  O  O291  1  0.03666872  0.25004361  0.93425931  1
  O  O292  1  0.03614869  0.58509450  0.18324674  1
  O  O293  1  0.03608533  0.58438164  0.43306995  1
  O  O294  1  0.03628092  0.58424133  0.68191596  1
  O  O295  1  0.03637100  0.58521919  0.93331753  1
  O  O296  1  0.03583399  0.91610636  0.18199973  1
  O  O297  1  0.03737339  0.91508081  0.43221784  1
  O  O298  1  0.03683622  0.91690255  0.68452585  1
  O  O299  1  0.03557448  0.91648422  0.93295544  1
  O  O300  1  0.53726279  0.24757083  0.18222106  1
  O  O301  1  0.53710762  0.24932904  0.43236514  1
  O  O302  1  0.53749924  0.25139986  0.68247590  1
  O  O303  1  0.53754853  0.24838771  0.93231918  1
  O  O304  1  0.53704895  0.58349176  0.18115001  1
  O  O305  1  0.53750517  0.58459496  0.43224130  1
  O  O306  1  0.53743708  0.58350648  0.68221050  1
  O  O307  1  0.53760375  0.58184786  0.93257458  1
  O  O308  1  0.53777790  0.91503667  0.18256916  1
  O  O309  1  0.53729061  0.91724179  0.43355757  1
  O  O310  1  0.53703054  0.91854543  0.68253176  1
  O  O311  1  0.53706895  0.91533891  0.93414322  1
  O  O312  1  0.46359866  0.08439588  0.06719533  1
  O  O313  1  0.46302171  0.08272493  0.31719169  1
  O  O314  1  0.46311656  0.08391309  0.56727372  1
  O  O315  1  0.46325839  0.08530955  0.81739838  1
  O  O316  1  0.46281651  0.41709540  0.06557287  1
  O  O317  1  0.46274311  0.41504096  0.31678137  1
  O  O318  1  0.46362486  0.41753998  0.56676883  1
  O  O319  1  0.46402504  0.41849901  0.81670878  1
  O  O320  1  0.46410758  0.74880137  0.06653530  1
  O  O321  1  0.46412329  0.74734715  0.31706497  1
  O  O322  1  0.46266954  0.74955223  0.56649135  1
  O  O323  1  0.46303748  0.74985827  0.81859444  1
  O  O324  1  0.96363611  0.08455142  0.06686046  1
  O  O325  1  0.96221244  0.08372331  0.31628921  1
  O  O326  1  0.96212720  0.08221813  0.56830174  1
  O  O327  1  0.96344335  0.08210049  0.81879736  1
  O  O328  1  0.96271197  0.41523629  0.06724422  1
  O  O329  1  0.96294283  0.41666857  0.31822529  1
  O  O330  1  0.96296495  0.41726822  0.56594695  1
  O  O331  1  0.96251299  0.41664418  0.81799455  1
  O  O332  1  0.96370244  0.75020004  0.06838800  1
  O  O333  1  0.96274047  0.74909791  0.31778877  1
  O  O334  1  0.96335472  0.74947463  0.56930743  1
  O  O335  1  0.96359271  0.75035306  0.81864137  1
  O  O336  1  0.21311823  0.08135656  0.05772210  1
  O  O337  1  0.21177040  0.08181243  0.30694722  1
  O  O338  1  0.21136582  0.08383584  0.55779215  1
  O  O339  1  0.21236100  0.08261050  0.80862326  1
  O  O340  1  0.21193818  0.41886478  0.05718971  1
  O  O341  1  0.21126189  0.41738803  0.30778476  1
  O  O342  1  0.21195736  0.41628254  0.55810093  1
  O  O343  1  0.21238029  0.41746703  0.80735362  1
  O  O344  1  0.21301223  0.75094152  0.05927019  1
  O  O345  1  0.21434098  0.75021507  0.30664339  1
  O  O346  1  0.21297031  0.75030783  0.55581966  1
  O  O347  1  0.21195898  0.75047156  0.80840854  1
  O  O348  1  0.71393828  0.08206985  0.05819781  1
  O  O349  1  0.71404043  0.08258488  0.30720157  1
  O  O350  1  0.71341817  0.08117856  0.55824116  1
  O  O351  1  0.71352839  0.08132836  0.80797066  1
  O  O352  1  0.71259100  0.41541461  0.05679508  1
  O  O353  1  0.71198602  0.41583109  0.30828644  1
  O  O354  1  0.71391170  0.41536258  0.55808189  1
  O  O355  1  0.71399290  0.41563845  0.80640089  1
  O  O356  1  0.71359246  0.75033787  0.05761936  1
  O  O357  1  0.71309569  0.74961792  0.30789943  1
  O  O358  1  0.71419069  0.75159184  0.55885437  1
  O  O359  1  0.71376644  0.75094250  0.80698485  1
  O  O360  1  0.28741065  0.24946227  0.19105273  1
  O  O361  1  0.28691831  0.25096382  0.44240531  1
  O  O362  1  0.28748388  0.25137532  0.69132037  1
  O  O363  1  0.28760086  0.25021991  0.94109995  1
  O  O364  1  0.28679923  0.58583082  0.19183739  1
  O  O365  1  0.28725561  0.58505317  0.44082809  1
  O  O366  1  0.28747047  0.58240227  0.69253687  1
  O  O367  1  0.28651798  0.58380940  0.94221670  1
  O  O368  1  0.28663205  0.91515420  0.19123991  1
  O  O369  1  0.28773251  0.91539245  0.44093287  1
  O  O370  1  0.28792469  0.91762591  0.69287428  1
  O  O371  1  0.28663297  0.91779935  0.94345558  1
  O  O372  1  0.78656644  0.24946635  0.19273139  1
  O  O373  1  0.78672330  0.25066229  0.44240902  1
  O  O374  1  0.78705882  0.25079459  0.69215602  1
  O  O375  1  0.78705243  0.24828993  0.94243087  1
  O  O376  1  0.78768227  0.58417355  0.19193465  1
  O  O377  1  0.78672518  0.58341249  0.44383125  1
  O  O378  1  0.78713650  0.58313293  0.69070876  1
  O  O379  1  0.78739887  0.58440329  0.94251519  1
  O  O380  1  0.78654019  0.91692595  0.19403854  1
  O  O381  1  0.78705297  0.91634278  0.44384273  1
  O  O382  1  0.78648130  0.91624172  0.69370618  1
  O  O383  1  0.78728721  0.91730613  0.94287773  1
  O  O384  1  0.22817346  0.24992010  0.05595097  1
  O  O385  1  0.22792685  0.24987248  0.30582154  1
  O  O386  1  0.22755680  0.25218330  0.55781548  1
  O  O387  1  0.22858969  0.25064293  0.80660081  1
  O  O388  1  0.22756354  0.58618212  0.05779499  1
  O  O389  1  0.22776084  0.58568103  0.30738762  1
  O  O390  1  0.22819925  0.58365904  0.55609331  1
  O  O391  1  0.22787604  0.58234201  0.80768139  1
  O  O392  1  0.22721160  0.91697557  0.05920248  1
  O  O393  1  0.22796477  0.91438554  0.30728310  1
  O  O394  1  0.22856705  0.91639935  0.55612361  1
  O  O395  1  0.22824137  0.91859584  0.80799897  1
  O  O396  1  0.72765770  0.24739456  0.05790396  1
  O  O397  1  0.72773476  0.25077366  0.30864517  1
  O  O398  1  0.72808267  0.25037933  0.55828400  1
  O  O399  1  0.72815460  0.25064074  0.80789858  1
  O  O400  1  0.72775405  0.58498865  0.05777137  1
  O  O401  1  0.72874231  0.58357299  0.30733484  1
  O  O402  1  0.72697809  0.58326542  0.55940031  1
  O  O403  1  0.72866914  0.58327141  0.80656254  1
  O  O404  1  0.72823931  0.91796011  0.05877718  1
  O  O405  1  0.72756746  0.91637675  0.31021515  1
  O  O406  1  0.72819614  0.91628618  0.56005452  1
  O  O407  1  0.72752126  0.91624789  0.80997891  1
  O  O408  1  0.27143145  0.08112264  0.19185288  1
  O  O409  1  0.27074270  0.08300387  0.44290412  1
  O  O410  1  0.27118944  0.08366438  0.69321572  1
  O  O411  1  0.27201396  0.08155385  0.94194703  1
  O  O412  1  0.27058376  0.41767433  0.19294009  1
  O  O413  1  0.27104144  0.41741204  0.44285800  1
  O  O414  1  0.27158085  0.41539680  0.69176610  1
  O  O415  1  0.27144144  0.41933826  0.94196455  1
  O  O416  1  0.27300949  0.75024374  0.19026987  1
  O  O417  1  0.27252848  0.75094117  0.44017434  1
  O  O418  1  0.27154551  0.75009917  0.69363566  1
  O  O419  1  0.27165332  0.75059366  0.94360036  1
  O  O420  1  0.77312094  0.08251117  0.19110313  1
  O  O421  1  0.77233107  0.08169809  0.44246803  1
  O  O422  1  0.77241828  0.08113807  0.69223648  1
  O  O423  1  0.77265619  0.08130693  0.94209518  1
  O  O424  1  0.77103769  0.41618299  0.19301975  1
  O  O425  1  0.77240021  0.41485629  0.44188516  1
  O  O426  1  0.77305466  0.41552505  0.69036228  1
  O  O427  1  0.77236710  0.41445895  0.94164454  1
  O  O428  1  0.77256313  0.74892927  0.19250819  1
  O  O429  1  0.77266646  0.75222452  0.44261916  1
  O  O430  1  0.77321730  0.75075584  0.69131998  1
  O  O431  1  0.77283361  0.75161794  0.94203111  1
  O  O432  1  0.02215382  0.08428303  0.18308190  1
  O  O433  1  0.02117111  0.08339101  0.43175747  1
  O  O434  1  0.02152762  0.08136717  0.68382034  1
  O  O435  1  0.02267941  0.08341277  0.93479462  1
  O  O436  1  0.02141131  0.41567243  0.18319300  1
  O  O437  1  0.02233656  0.41635612  0.43425222  1
  O  O438  1  0.02171779  0.41746474  0.68189014  1
  O  O439  1  0.02164059  0.41620953  0.93354402  1
  O  O440  1  0.02258389  0.75030945  0.18477376  1
  O  O441  1  0.02196217  0.74791851  0.43348547  1
  O  O442  1  0.02284558  0.74939445  0.68520809  1
  O  O443  1  0.02235208  0.74997030  0.93507818  1
  O  O444  1  0.52248554  0.08446093  0.18300969  1
  O  O445  1  0.52190835  0.08176875  0.43300314  1
  O  O446  1  0.52222647  0.08534945  0.68302928  1
  O  O447  1  0.52212778  0.08434596  0.93316244  1
  O  O448  1  0.52151642  0.41628561  0.18114582  1
  O  O449  1  0.52202948  0.41509868  0.43235446  1
  O  O450  1  0.52262338  0.41894177  0.68260256  1
  O  O451  1  0.52276020  0.41787768  0.93257779  1
  O  O452  1  0.52289254  0.74747914  0.18261055  1
  O  O453  1  0.52254410  0.74830132  0.43324560  1
  O  O454  1  0.52173558  0.74999922  0.68173333  1
  O  O455  1  0.52313424  0.75021089  0.93390051  1
  O  O456  1  0.47852843  0.24825830  0.06634532  1
  O  O457  1  0.47816088  0.24756304  0.31647347  1
  O  O458  1  0.47832521  0.25188603  0.56676432  1
  O  O459  1  0.47860805  0.24906945  0.81651280  1
  O  O460  1  0.47759640  0.58225276  0.06531893  1
  O  O461  1  0.47850299  0.58481415  0.31640748  1
  O  O462  1  0.47856508  0.58478772  0.56634638  1
  O  O463  1  0.47860270  0.58154090  0.81672886  1
  O  O464  1  0.47821317  0.91495697  0.06730599  1
  O  O465  1  0.47873796  0.91598129  0.31783934  1
  O  O466  1  0.47801460  0.91858737  0.56673591  1
  O  O467  1  0.47826265  0.91690012  0.81864436  1
  O  O468  1  0.97706827  0.24969404  0.06561816  1
  O  O469  1  0.97654644  0.25070659  0.31508133  1
  O  O470  1  0.97758190  0.25185896  0.56680798  1
  O  O471  1  0.97808181  0.24978280  0.81840212  1
  O  O472  1  0.97731245  0.58527721  0.06734111  1
  O  O473  1  0.97743193  0.58486762  0.31692652  1
  O  O474  1  0.97688023  0.58459437  0.56591878  1
  O  O475  1  0.97776951  0.58566265  0.81733660  1
  O  O476  1  0.97639352  0.91614751  0.06620266  1
  O  O477  1  0.97759735  0.91516257  0.31705326  1
  O  O478  1  0.97804196  0.91607150  0.56876277  1
  O  O479  1  0.97660473  0.91691900  0.81663761  1
  O  O480  1  0.07168676  0.31376348  0.07366211  1
  O  O481  1  0.07176567  0.31406272  0.32299617  1
  O  O482  1  0.07292328  0.31446773  0.57372690  1
  O  O483  1  0.07332497  0.31340056  0.82597610  1
  O  O484  1  0.07235449  0.64867928  0.07486785  1
  O  O485  1  0.07254783  0.64792070  0.32449548  1
  O  O486  1  0.07245853  0.64736454  0.57369736  1
  O  O487  1  0.07317339  0.64845774  0.82493600  1
  O  O488  1  0.07087851  0.98017342  0.07369143  1
  O  O489  1  0.07316235  0.97840291  0.32423748  1
  O  O490  1  0.07328823  0.97965537  0.57559311  1
  O  O491  1  0.07175617  0.98009426  0.82477561  1
  O  O492  1  0.57388752  0.31153549  0.07478108  1
  O  O493  1  0.57323991  0.31177909  0.32386824  1
  O  O494  1  0.57305792  0.31536318  0.57388161  1
  O  O495  1  0.57405325  0.31221383  0.82495113  1
  O  O496  1  0.57211028  0.64648860  0.07210041  1
  O  O497  1  0.57417842  0.64729570  0.32350936  1
  O  O498  1  0.57341477  0.64832034  0.57454058  1
  O  O499  1  0.57357599  0.64587189  0.82487010  1
  O  O500  1  0.57356374  0.97856948  0.07496285  1
  O  O501  1  0.57419181  0.97936357  0.32488665  1
  O  O502  1  0.57288516  0.98217840  0.57420473  1
  O  O503  1  0.57380970  0.97974566  0.82685593  1
  O  O504  1  0.42749746  0.02028029  0.17450836  1
  O  O505  1  0.42690387  0.01845915  0.42529388  1
  O  O506  1  0.42667637  0.02182888  0.67584293  1
  O  O507  1  0.42661403  0.02140660  0.92499011  1
  O  O508  1  0.42613236  0.35301454  0.17309904  1
  O  O509  1  0.42711111  0.35157049  0.42544332  1
  O  O510  1  0.42731814  0.35519821  0.67532194  1
  O  O511  1  0.42751564  0.35433028  0.92387616  1
  O  O512  1  0.42767714  0.68466147  0.17469171  1
  O  O513  1  0.42762384  0.68468491  0.42588894  1
  O  O514  1  0.42610825  0.68691205  0.67514992  1
  O  O515  1  0.42871837  0.68570627  0.92678089  1
  O  O516  1  0.92658649  0.02126489  0.17450243  1
  O  O517  1  0.92613427  0.01962815  0.42421966  1
  O  O518  1  0.92611043  0.01881719  0.67696253  1
  O  O519  1  0.92808116  0.01923731  0.92763130  1
  O  O520  1  0.92640915  0.35218612  0.17595979  1
  O  O521  1  0.92698776  0.35339532  0.42652728  1
  O  O522  1  0.92646191  0.35392744  0.67422399  1
  O  O523  1  0.92691447  0.35231953  0.92614977  1
  O  O524  1  0.92773067  0.68659257  0.17671930  1
  O  O525  1  0.92633078  0.68567717  0.42653729  1
  O  O526  1  0.92744442  0.68637338  0.67753358  1
  O  O527  1  0.92712376  0.68689003  0.92681799  1
  O  O528  1  0.17617143  0.01790853  0.19867696  1
  O  O529  1  0.17511361  0.01992395  0.44989991  1
  O  O530  1  0.17593702  0.01976014  0.70007973  1
  O  O531  1  0.17679791  0.01835531  0.94910507  1
  O  O532  1  0.17541690  0.35390189  0.19932579  1
  O  O533  1  0.17561350  0.35370105  0.44945823  1
  O  O534  1  0.17631644  0.35273534  0.69941664  1
  O  O535  1  0.17623519  0.35530340  0.94938273  1
  O  O536  1  0.17802551  0.68669242  0.19839034  1
  O  O537  1  0.17788751  0.68668894  0.44736586  1
  O  O538  1  0.17603053  0.68694466  0.70013690  1
  O  O539  1  0.17600253  0.68773520  0.95099303  1
  O  O540  1  0.67797799  0.01904189  0.19901493  1
  O  O541  1  0.67757778  0.01792071  0.44924337  1
  O  O542  1  0.67716602  0.01787602  0.69955047  1
  O  O543  1  0.67759084  0.01807165  0.94982731  1
  O  O544  1  0.67538376  0.35294109  0.19988583  1
  O  O545  1  0.67729765  0.35192797  0.44940607  1
  O  O546  1  0.67763145  0.35245942  0.69816596  1
  O  O547  1  0.67702669  0.35158230  0.94843347  1
  O  O548  1  0.67782384  0.68548838  0.19902955  1
  O  O549  1  0.67771066  0.68802430  0.45097024  1
  O  O550  1  0.67858040  0.68686381  0.69861495  1
  O  O551  1  0.67751543  0.68777943  0.94905143  1
  O  O552  1  0.32334044  0.31395048  0.04903787  1
  O  O553  1  0.32360667  0.31308722  0.29902377  1
  O  O554  1  0.32280345  0.31511191  0.55064665  1
  O  O555  1  0.32419722  0.31410156  0.79973234  1
  O  O556  1  0.32307257  0.64831137  0.05011026  1
  O  O557  1  0.32323669  0.64849568  0.30070968  1
  O  O558  1  0.32334225  0.64766566  0.54970543  1
  O  O559  1  0.32339441  0.64586409  0.80053412  1
  O  O560  1  0.32243443  0.98056761  0.05219278  1
  O  O561  1  0.32292628  0.97867807  0.29923675  1
  O  O562  1  0.32384473  0.97976581  0.54882373  1
  O  O563  1  0.32353572  0.98161164  0.80131988  1
  O  O564  1  0.82286878  0.31144954  0.05061791  1
  O  O565  1  0.82250140  0.31418761  0.30071810  1
  O  O566  1  0.82312787  0.31393752  0.55101811  1
  O  O567  1  0.82304276  0.31425662  0.80099013  1
  O  O568  1  0.82289917  0.64815377  0.05107381  1
  O  O569  1  0.82436295  0.64667453  0.30068975  1
  O  O570  1  0.82170829  0.64714986  0.55204812  1
  O  O571  1  0.82398785  0.64654910  0.79891192  1
  O  O572  1  0.82328534  0.98104974  0.05164284  1
  O  O573  1  0.82235492  0.98038017  0.30228818  1
  O  O574  1  0.82296722  0.98018379  0.55220148  1
  O  O575  1  0.82250477  0.97974814  0.80214374  1
  O  O576  1  0.42702942  0.14742259  0.17593532  1
  O  O577  1  0.42643387  0.14553049  0.42538260  1
  O  O578  1  0.42750885  0.14907572  0.67502479  1
  O  O579  1  0.42721974  0.14851551  0.92598724  1
  O  O580  1  0.42609309  0.47986854  0.17423883  1
  O  O581  1  0.42670642  0.47892250  0.42412846  1
  O  O582  1  0.42748555  0.48223837  0.67460441  1
  O  O583  1  0.42756240  0.48141347  0.92558050  1
  O  O584  1  0.42777941  0.81162936  0.17502120  1
  O  O585  1  0.42721104  0.81179478  0.42397717  1
  O  O586  1  0.42644126  0.81376911  0.67432873  1
  O  O587  1  0.42757249  0.81322802  0.92707834  1
  O  O588  1  0.92752284  0.14824987  0.17551698  1
  O  O589  1  0.92552239  0.14656127  0.42468924  1
  O  O590  1  0.92665132  0.14600129  0.67612643  1
  O  O591  1  0.92740704  0.14656673  0.92640464  1
  O  O592  1  0.92613163  0.47925129  0.17471040  1
  O  O593  1  0.92805099  0.48085625  0.42657379  1
  O  O594  1  0.92632742  0.48067830  0.67433047  1
  O  O595  1  0.92601894  0.47958561  0.92585320  1
  O  O596  1  0.92757411  0.81381724  0.17669067  1
  O  O597  1  0.92708029  0.81248389  0.42628140  1
  O  O598  1  0.92844210  0.81366732  0.67782583  1
  O  O599  1  0.92769757  0.81402648  0.92714883  1
  O  O600  1  0.07240874  0.18652439  0.07387699  1
  O  O601  1  0.07121821  0.18665384  0.32287754  1
  O  O602  1  0.07245671  0.18717880  0.57412079  1
  O  O603  1  0.07359428  0.18660268  0.82612965  1
  O  O604  1  0.07251792  0.52153341  0.07553647  1
  O  O605  1  0.07265413  0.52101529  0.32508713  1
  O  O606  1  0.07113067  0.52007704  0.57327873  1
  O  O607  1  0.07265128  0.52141423  0.82539798  1
  O  O608  1  0.07177724  0.85291562  0.07361884  1
  O  O609  1  0.07245321  0.85126739  0.32352448  1
  O  O610  1  0.07362144  0.85296716  0.57656908  1
  O  O611  1  0.07123508  0.85282972  0.82451315  1
  O  O612  1  0.57358168  0.18445068  0.07350788  1
  O  O613  1  0.57343230  0.18460074  0.32473045  1
  O  O614  1  0.57389013  0.18823553  0.57460630  1
  O  O615  1  0.57351471  0.18509100  0.82349535  1
  O  O616  1  0.57304601  0.51920862  0.07342316  1
  O  O617  1  0.57320724  0.52013432  0.32475292  1
  O  O618  1  0.57409369  0.52126118  0.57367542  1
  O  O619  1  0.57416709  0.51890573  0.82348022  1
  O  O620  1  0.57331734  0.85125769  0.07420181  1
  O  O621  1  0.57399558  0.85254049  0.32628464  1
  O  O622  1  0.57332353  0.85486137  0.57506377  1
  O  O623  1  0.57353310  0.85291259  0.82521382  1
  O  O624  1  0.32386587  0.18678300  0.04909663  1
  O  O625  1  0.32322797  0.18601366  0.29944131  1
  O  O626  1  0.32275091  0.18781000  0.55038231  1
  O  O627  1  0.32398096  0.18728312  0.79918207  1
  O  O628  1  0.32252281  0.52127774  0.05065992  1
  O  O629  1  0.32279092  0.52139543  0.29927429  1
  O  O630  1  0.32396132  0.52084319  0.54837554  1
  O  O631  1  0.32284724  0.51863943  0.80117321  1
  O  O632  1  0.32226600  0.85333595  0.05122756  1
  O  O633  1  0.32344079  0.85168753  0.29969606  1
  O  O634  1  0.32412481  0.85285442  0.54968480  1
  O  O635  1  0.32351968  0.85445144  0.80121314  1
  O  O636  1  0.82272960  0.18437657  0.05106350  1
  O  O637  1  0.82319720  0.18706055  0.30093760  1
  O  O638  1  0.82344462  0.18687608  0.54987231  1
  O  O639  1  0.82359243  0.18712824  0.79969063  1
  O  O640  1  0.82292026  0.52076900  0.05031203  1
  O  O641  1  0.82393490  0.51988575  0.29976364  1
  O  O642  1  0.82192823  0.51948506  0.55172506  1
  O  O643  1  0.82403062  0.51983771  0.79905597  1
  O  O644  1  0.82347107  0.85422294  0.05121178  1
  O  O645  1  0.82251044  0.85296359  0.30204307  1
  O  O646  1  0.82353297  0.85310613  0.55246195  1
  O  O647  1  0.82238906  0.85255041  0.80203711  1
  O  O648  1  0.17616507  0.14517687  0.19880754  1
  O  O649  1  0.17540235  0.14692641  0.44932703  1
  O  O650  1  0.17552415  0.14664300  0.70097337  1
  O  O651  1  0.17688458  0.14556154  0.95026513  1
  O  O652  1  0.17485034  0.48097163  0.20013974  1
  O  O653  1  0.17555130  0.48058739  0.45044784  1
  O  O654  1  0.17639384  0.47992418  0.69881376  1
  O  O655  1  0.17626669  0.48265665  0.94882067  1
  O  O656  1  0.17796414  0.81380614  0.19838890  1
  O  O657  1  0.17717254  0.81407135  0.44763555  1
  O  O658  1  0.17629763  0.81398990  0.70015868  1
  O  O659  1  0.17639419  0.81438327  0.95106009  1
  O  O660  1  0.67847056  0.14643295  0.19889244  1
  O  O661  1  0.67680054  0.14493530  0.45074049  1
  O  O662  1  0.67732914  0.14501831  0.70014426  1
  O  O663  1  0.67732412  0.14486712  0.94972129  1
  O  O664  1  0.67580613  0.47977593  0.20016387  1
  O  O665  1  0.67725450  0.47901793  0.45041503  1
  O  O666  1  0.67869821  0.47984968  0.69815583  1
  O  O667  1  0.67745939  0.47896841  0.94871171  1
  O  O668  1  0.67695567  0.81257089  0.19980283  1
  O  O669  1  0.67742614  0.81499834  0.45028723  1
  O  O670  1  0.67774551  0.81415036  0.69867810  1
  O  O671  1  0.67778906  0.81480420  0.94948934  1
