# generated using pymatgen
data_Na2MnFe(PO4)2
_symmetry_space_group_name_H-M   'P 1'
_cell_length_a   22.34853004
_cell_length_b   20.09382327
_cell_length_c   19.44451489
_cell_angle_alpha   89.99932953
_cell_angle_beta   89.97081068
_cell_angle_gamma   90.02575123
_symmetry_Int_Tables_number   1
_chemical_formula_structural   Na2MnFe(PO4)2
_chemical_formula_sum   'Na96 Mn48 Fe48 P96 O384'
_cell_volume   8731.89598519
_cell_formula_units_Z   48
loop_
 _symmetry_equiv_pos_site_id
 _symmetry_equiv_pos_as_xyz
  1  'x, y, z'
loop_
 _atom_site_type_symbol
 _atom_site_label
 _atom_site_symmetry_multiplicity
 _atom_site_fract_x
 _atom_site_fract_y
 _atom_site_fract_z
 _atom_site_occupancy
  Na  Na0  1  0.14010599  0.24946866  0.24320833  1
  Na  Na1  1  0.14070884  0.24916962  0.49353122  1
  Na  Na2  1  0.14074395  0.24910301  0.74396626  1
  Na  Na3  1  0.14048451  0.24846648  0.99368863  1
  Na  Na4  1  0.14030338  0.58425047  0.24410556  1
  Na  Na5  1  0.13961165  0.58332099  0.49492963  1
  Na  Na6  1  0.14021177  0.58287624  0.74297437  1
  Na  Na7  1  0.14053933  0.58398289  0.99366518  1
  Na  Na8  1  0.14052114  0.91641050  0.24337485  1
  Na  Na9  1  0.14033249  0.91784390  0.49401698  1
  Na  Na10  1  0.14048003  0.91497746  0.74427097  1
  Na  Na11  1  0.14028221  0.91534837  0.99349625  1
  Na  Na12  1  0.64052886  0.24961669  0.24414939  1
  Na  Na13  1  0.64062174  0.24994166  0.49338003  1
  Na  Na14  1  0.64037662  0.25110763  0.74351721  1
  Na  Na15  1  0.64032074  0.25135189  0.99323275  1
  Na  Na16  1  0.64037908  0.58369416  0.24439511  1
  Na  Na17  1  0.64007033  0.58403787  0.49369193  1
  Na  Na18  1  0.64057210  0.58443809  0.74324013  1
  Na  Na19  1  0.64079374  0.58318124  0.99479828  1
  Na  Na20  1  0.64078466  0.91685534  0.24293143  1
  Na  Na21  1  0.64107626  0.91675023  0.49390917  1
  Na  Na22  1  0.64052567  0.91675515  0.74281840  1
  Na  Na23  1  0.64001963  0.91719814  0.99346544  1
  Na  Na24  1  0.35996400  0.08110294  0.00662284  1
  Na  Na25  1  0.36001479  0.08339538  0.25603001  1
  Na  Na26  1  0.35969160  0.08296542  0.50430401  1
  Na  Na27  1  0.35952284  0.08110223  0.75626221  1
  Na  Na28  1  0.35953843  0.41671988  0.00642447  1
  Na  Na29  1  0.35900629  0.41624192  0.25523407  1
  Na  Na30  1  0.35933446  0.41651807  0.50660203  1
  Na  Na31  1  0.36002791  0.41625701  0.75630630  1
  Na  Na32  1  0.35952299  0.74940404  0.00677996  1
  Na  Na33  1  0.35982621  0.74976194  0.25543715  1
  Na  Na34  1  0.35968909  0.74949645  0.50687085  1
  Na  Na35  1  0.35956690  0.74959631  0.75689153  1
  Na  Na36  1  0.85926191  0.08534337  0.00620349  1
  Na  Na37  1  0.85965125  0.08350799  0.25682370  1
  Na  Na38  1  0.85976207  0.08243749  0.50649203  1
  Na  Na39  1  0.85936151  0.08503564  0.75584630  1
  Na  Na40  1  0.85963936  0.41735247  0.00572231  1
  Na  Na41  1  0.85913219  0.41657135  0.25671774  1
  Na  Na42  1  0.85929646  0.41777801  0.50708113  1
  Na  Na43  1  0.85933311  0.41756613  0.75578928  1
  Na  Na44  1  0.86005422  0.75121823  0.00679987  1
  Na  Na45  1  0.85934490  0.75036881  0.25675626  1
  Na  Na46  1  0.85928109  0.74942552  0.50766137  1
  Na  Na47  1  0.86004339  0.75090037  0.75551418  1
  Na  Na48  1  0.10975242  0.08321478  0.11892711  1
  Na  Na49  1  0.11011896  0.08185306  0.36780828  1
  Na  Na50  1  0.11002962  0.08314983  0.61888861  1
  Na  Na51  1  0.10960666  0.08216672  0.86894734  1
  Na  Na52  1  0.10923325  0.41629216  0.11824675  1
  Na  Na53  1  0.10904489  0.41663936  0.36936142  1
  Na  Na54  1  0.10973076  0.41842974  0.61889794  1
  Na  Na55  1  0.10962625  0.41711819  0.86822533  1
  Na  Na56  1  0.11002550  0.75054398  0.11897121  1
  Na  Na57  1  0.10950385  0.74920150  0.36988911  1
  Na  Na58  1  0.10966726  0.74967201  0.61922796  1
  Na  Na59  1  0.10946050  0.74983092  0.86844167  1
  Na  Na60  1  0.60953483  0.08346472  0.11886082  1
  Na  Na61  1  0.61056634  0.08322493  0.36817228  1
  Na  Na62  1  0.61033920  0.08424066  0.61790963  1
  Na  Na63  1  0.60960201  0.08347478  0.86772031  1
  Na  Na64  1  0.60972503  0.41606917  0.11890830  1
  Na  Na65  1  0.60943533  0.41654915  0.36909453  1
  Na  Na66  1  0.60965961  0.41788053  0.61869112  1
  Na  Na67  1  0.60997889  0.41676373  0.86953474  1
  Na  Na68  1  0.61026058  0.74947451  0.11854971  1
  Na  Na69  1  0.61000066  0.74947860  0.36871099  1
  Na  Na70  1  0.61004156  0.75051935  0.61820791  1
  Na  Na71  1  0.61004195  0.75046935  0.86977220  1
  Na  Na72  1  0.39043504  0.24875873  0.13097310  1
  Na  Na73  1  0.39024029  0.24870679  0.38003715  1
  Na  Na74  1  0.39063299  0.25029426  0.63002057  1
  Na  Na75  1  0.39092573  0.25022807  0.88168264  1
  Na  Na76  1  0.39009374  0.58253886  0.13077737  1
  Na  Na77  1  0.38997390  0.58282018  0.38118864  1
  Na  Na78  1  0.39002033  0.58376956  0.63232281  1
  Na  Na79  1  0.39019172  0.58261806  0.88177395  1
  Na  Na80  1  0.39073025  0.91574795  0.13100887  1
  Na  Na81  1  0.39057789  0.91680466  0.38064174  1
  Na  Na82  1  0.39015977  0.91688708  0.63138615  1
  Na  Na83  1  0.39025655  0.91594670  0.88159191  1
  Na  Na84  1  0.88996443  0.24997491  0.13071871  1
  Na  Na85  1  0.89050216  0.24866765  0.38154948  1
  Na  Na86  1  0.89029544  0.25055422  0.63156723  1
  Na  Na87  1  0.88971996  0.25033220  0.88084417  1
  Na  Na88  1  0.89003730  0.58475553  0.13231282  1
  Na  Na89  1  0.88945392  0.58335451  0.38273264  1
  Na  Na90  1  0.88978531  0.58450160  0.63185602  1
  Na  Na91  1  0.89034379  0.58502759  0.88015744  1
  Na  Na92  1  0.89013700  0.91715496  0.13145294  1
  Na  Na93  1  0.89036057  0.91591999  0.38169954  1
  Na  Na94  1  0.89012033  0.91757896  0.63190579  1
  Na  Na95  1  0.89009919  0.91748829  0.88069239  1
  Mn  Mn96  1  0.00020024  0.66755758  0.25072701  1
  Mn  Mn97  1  0.75051120  0.00152959  0.87408379  1
  Mn  Mn98  1  -0.00012955  -0.00078161  0.24945260  1
  Mn  Mn99  1  0.74990531  0.33374446  0.62458010  1
  Mn  Mn100  1  0.74995859  0.50037609  0.12548883  1
  Mn  Mn101  1  0.25044078  0.33316048  0.62467190  1
  Mn  Mn102  1  0.00088645  0.16576838  0.50030220  1
  Mn  Mn103  1  -0.00045715  0.33254767  -0.00108101  1
  Mn  Mn104  1  0.50029468  0.49966051  0.75017934  1
  Mn  Mn105  1  0.00050405  0.33382816  0.50080462  1
  Mn  Mn106  1  0.75029451  0.33338810  0.37599535  1
  Mn  Mn107  1  0.50048285  0.66788317  0.75130933  1
  Mn  Mn108  1  0.74978442  0.83393610  0.87447673  1
  Mn  Mn109  1  0.24948230  0.83414766  0.37576242  1
  Mn  Mn110  1  -0.00020455  0.00060248  0.75097706  1
  Mn  Mn111  1  0.49904657  0.49992828  0.25008444  1
  Mn  Mn112  1  -0.00015743  0.50074946  -0.00035308  1
  Mn  Mn113  1  0.25039465  0.66685751  0.37503147  1
  Mn  Mn114  1  0.24913279  0.33288568  0.37462595  1
  Mn  Mn115  1  0.75011938  0.83340995  0.37547152  1
  Mn  Mn116  1  0.75074080  0.50040559  0.87523797  1
  Mn  Mn117  1  0.50002805  0.16623760  -0.00032825  1
  Mn  Mn118  1  0.00010420  0.83318947  0.50077110  1
  Mn  Mn119  1  0.25003432  0.66565116  0.87555505  1
  Mn  Mn120  1  0.49983906  0.16734324  0.49945368  1
  Mn  Mn121  1  0.25061693  0.83303673  0.62539254  1
  Mn  Mn122  1  0.50043700  0.83278308  0.49939828  1
  Mn  Mn123  1  0.49982556  0.16777901  0.74944723  1
  Mn  Mn124  1  0.74930145  0.00056904  0.12476702  1
  Mn  Mn125  1  0.24969792  0.33271771  0.12476393  1
  Mn  Mn126  1  0.00023134  0.33361760  0.74980455  1
  Mn  Mn127  1  -0.00029936  0.00018458  0.00018731  1
  Mn  Mn128  1  0.49923591  0.33245757  0.24924058  1
  Mn  Mn129  1  0.24981767  0.50029523  0.37502486  1
  Mn  Mn130  1  0.25064317  0.16456424  0.87412246  1
  Mn  Mn131  1  0.50009642  -0.00071560  0.74967541  1
  Mn  Mn132  1  -0.00068469  0.33231419  0.24978293  1
  Mn  Mn133  1  0.25025562  0.33333814  0.87469965  1
  Mn  Mn134  1  0.50014750  0.66624216  -0.00026738  1
  Mn  Mn135  1  0.25005421  -0.00058372  0.12482586  1
  Mn  Mn136  1  0.50037235  0.83255424  0.24996623  1
  Mn  Mn137  1  0.49955238  0.50020475  0.49991461  1
  Mn  Mn138  1  0.25058574  0.16488202  0.62443589  1
  Mn  Mn139  1  -0.00028928  0.50012099  0.25025810  1
  Mn  Mn140  1  0.74985829  0.66763170  0.87495397  1
  Mn  Mn141  1  0.50052801  0.00001401  0.49973169  1
  Mn  Mn142  1  0.00000238  0.66811188  0.00002646  1
  Mn  Mn143  1  0.74943844  0.16811779  0.12526586  1
  Fe  Fe144  1  0.74987437  0.66668201  0.37567601  1
  Fe  Fe145  1  0.00016157  0.16678189  0.74982813  1
  Fe  Fe146  1  0.50049633  -0.00043646  0.24951335  1
  Fe  Fe147  1  0.24982148  0.66587346  0.62611486  1
  Fe  Fe148  1  0.00008699  -0.00043294  0.50018595  1
  Fe  Fe149  1  0.49997447  0.33394915  0.75030114  1
  Fe  Fe150  1  0.24988075  0.16617871  0.37447348  1
  Fe  Fe151  1  0.50016798  0.83319628  0.00046580  1
  Fe  Fe152  1  0.24936902  0.50003286  0.12504852  1
  Fe  Fe153  1  0.50011821  0.33330613  0.49924121  1
  Fe  Fe154  1  0.24988418  -0.00074301  0.62468665  1
  Fe  Fe155  1  0.24988867  0.49970153  0.62539056  1
  Fe  Fe156  1  0.00005461  0.16593059  0.25029735  1
  Fe  Fe157  1  0.74967340  0.50060005  0.37548257  1
  Fe  Fe158  1  -0.00046717  0.50095651  0.74934389  1
  Fe  Fe159  1  0.75054757  0.66688601  0.12575203  1
  Fe  Fe160  1  0.50007881  0.33319062  0.00031807  1
  Fe  Fe161  1  0.25007104  0.66678871  0.12453900  1
  Fe  Fe162  1  0.25034879  0.00025280  0.37403419  1
  Fe  Fe163  1  0.75049849  0.16689644  0.62472914  1
  Fe  Fe164  1  -0.00013813  0.66726483  0.74978729  1
  Fe  Fe165  1  0.50075733  0.16609298  0.24938178  1
  Fe  Fe166  1  -0.00103700  0.50065373  0.50028084  1
  Fe  Fe167  1  0.75033788  0.16644364  0.37500998  1
  Fe  Fe168  1  0.74936623  0.16779519  0.87463712  1
  Fe  Fe169  1  -0.00012170  0.83307082  0.25084342  1
  Fe  Fe170  1  0.50042088  0.83337572  0.75021365  1
  Fe  Fe171  1  0.75055742  0.00008239  0.37539260  1
  Fe  Fe172  1  0.74972415  0.66675378  0.62464471  1
  Fe  Fe173  1  0.24997998  0.83221385  0.87513975  1
  Fe  Fe174  1  0.74963322  0.33402935  0.87465757  1
  Fe  Fe175  1  0.24988228  0.49987863  0.87530052  1
  Fe  Fe176  1  0.50017719  -0.00053525  -0.00025685  1
  Fe  Fe177  1  0.74951434  0.50067515  0.62510506  1
  Fe  Fe178  1  0.74993303  0.00078279  0.62462600  1
  Fe  Fe179  1  0.24993738  0.16576760  0.12462660  1
  Fe  Fe180  1  -0.00038769  0.83368532  -0.00013564  1
  Fe  Fe181  1  0.75026365  0.83349253  0.62426874  1
  Fe  Fe182  1  0.50047260  0.49949977  0.00012554  1
  Fe  Fe183  1  0.49921015  0.66687133  0.50049719  1
  Fe  Fe184  1  0.24994492  -0.00172411  0.87579550  1
  Fe  Fe185  1  0.75024292  0.33370838  0.12547618  1
  Fe  Fe186  1  -0.00068117  0.66684272  0.50067474  1
  Fe  Fe187  1  -0.00010102  0.16659071  -0.00007613  1
  Fe  Fe188  1  0.75027175  0.83383613  0.12544581  1
  Fe  Fe189  1  0.25041007  0.83325299  0.12484826  1
  Fe  Fe190  1  0.50016154  0.66594962  0.24944590  1
  Fe  Fe191  1  0.00019715  0.83382910  0.74985256  1
  P  P192  1  0.04199236  0.24840163  0.10249530  1
  P  P193  1  0.04238107  0.24827780  0.35255063  1
  P  P194  1  0.04330240  0.24988466  0.60379227  1
  P  P195  1  0.04220158  0.24827216  0.85253877  1
  P  P196  1  0.04265319  0.58422122  0.10311230  1
  P  P197  1  0.04209693  0.58344426  0.35441046  1
  P  P198  1  0.04052591  0.58383597  0.60254074  1
  P  P199  1  0.04128765  0.58397848  0.85104107  1
  P  P200  1  0.04195723  0.91530181  0.10273361  1
  P  P201  1  0.04246275  0.91520959  0.35282618  1
  P  P202  1  0.04214033  0.91779333  0.60323376  1
  P  P203  1  0.04193562  0.91533172  0.85301054  1
  P  P204  1  0.54219105  0.25025470  0.10238791  1
  P  P205  1  0.54232403  0.24889442  0.35218107  1
  P  P206  1  0.54249966  0.25219686  0.60234504  1
  P  P207  1  0.54209740  0.25172691  0.85278544  1
  P  P208  1  0.54218227  0.58198041  0.10276904  1
  P  P209  1  0.54166826  0.58450180  0.35292953  1
  P  P210  1  0.54191584  0.58496255  0.60264707  1
  P  P211  1  0.54309806  0.58292928  0.85382836  1
  P  P212  1  0.54160119  0.91690435  0.10199230  1
  P  P213  1  0.54279927  0.91726700  0.35182399  1
  P  P214  1  0.54301039  0.91612779  0.60324693  1
  P  P215  1  0.54251392  0.91512329  0.85315478  1
  P  P216  1  0.45891121  0.08250616  0.14768767  1
  P  P217  1  0.45823015  0.08310913  0.39543589  1
  P  P218  1  0.45740389  0.08361115  0.64668499  1
  P  P219  1  0.45785075  0.08174643  0.89740520  1
  P  P220  1  0.45708438  0.41633907  0.14573198  1
  P  P221  1  0.45694554  0.41525090  0.39738789  1
  P  P222  1  0.45793776  0.41542680  0.64705735  1
  P  P223  1  0.45870211  0.41630757  0.89833075  1
  P  P224  1  0.45838566  0.74857863  0.14697616  1
  P  P225  1  0.45758926  0.74810324  0.39706431  1
  P  P226  1  0.45773382  0.75122713  0.64778075  1
  P  P227  1  0.45787230  0.75165642  0.89778634  1
  P  P228  1  0.95758720  0.08469347  0.14731936  1
  P  P229  1  0.95818839  0.08146711  0.39733240  1
  P  P230  1  0.95789235  0.08430920  0.64751568  1
  P  P231  1  0.95749875  0.08490155  0.89731425  1
  P  P232  1  0.95670778  0.41653674  0.14672011  1
  P  P233  1  0.95728447  0.41741981  0.39811668  1
  P  P234  1  0.95784447  0.41875187  0.64706048  1
  P  P235  1  0.95723003  0.41742250  0.89583295  1
  P  P236  1  0.95756993  0.75211634  0.14774358  1
  P  P237  1  0.95726833  0.74917813  0.39817549  1
  P  P238  1  0.95883655  0.75044416  0.64821115  1
  P  P239  1  0.95770409  0.75198470  0.89657057  1
  P  P240  1  0.20814556  0.08424829  0.22778022  1
  P  P241  1  0.20847473  0.08256066  0.47624934  1
  P  P242  1  0.20800120  0.08034223  0.72770537  1
  P  P243  1  0.20778640  0.08123198  0.97764838  1
  P  P244  1  0.20706604  0.41749805  0.22712508  1
  P  P245  1  0.20713196  0.41701762  0.47863179  1
  P  P246  1  0.20800749  0.41755470  0.72784927  1
  P  P247  1  0.20763097  0.41779489  0.97785548  1
  P  P248  1  0.20884360  0.75018975  0.22642264  1
  P  P249  1  0.20742578  0.74962782  0.47918500  1
  P  P250  1  0.20813380  0.74851164  0.72815130  1
  P  P251  1  0.20811086  0.75052880  0.97817003  1
  P  P252  1  0.70752180  0.08375714  0.22897396  1
  P  P253  1  0.70913714  0.08329001  0.47735774  1
  P  P254  1  0.70839700  0.08439823  0.72645371  1
  P  P255  1  0.70749410  0.08547961  0.97691382  1
  P  P256  1  0.70767524  0.41585126  0.22820335  1
  P  P257  1  0.70776825  0.41862458  0.47806324  1
  P  P258  1  0.70784377  0.41795487  0.72761018  1
  P  P259  1  0.70829988  0.41584096  0.97796146  1
  P  P260  1  0.70880533  0.74989496  0.22723026  1
  P  P261  1  0.70810230  0.74885724  0.47827662  1
  P  P262  1  0.70866453  0.75036696  0.72596362  1
  P  P263  1  0.70772417  0.75080128  0.97928654  1
  P  P264  1  0.29229907  0.24794085  0.02232807  1
  P  P265  1  0.29164959  0.24837004  0.27170562  1
  P  P266  1  0.29260590  0.24897893  0.52089703  1
  P  P267  1  0.29341388  0.24914095  0.77163372  1
  P  P268  1  0.29126716  0.58290935  0.02317839  1
  P  P269  1  0.29253055  0.58350707  0.27074819  1
  P  P270  1  0.29143106  0.58319972  0.52404151  1
  P  P271  1  0.29219249  0.58154214  0.77227530  1
  P  P272  1  0.29210418  0.91474772  0.02186654  1
  P  P273  1  0.29233680  0.91734066  0.27202154  1
  P  P274  1  0.29243841  0.91798248  0.52221498  1
  P  P275  1  0.29134192  0.91591324  0.77346168  1
  P  P276  1  0.79180211  0.25223401  0.02171670  1
  P  P277  1  0.79228269  0.24942088  0.27287537  1
  P  P278  1  0.79251938  0.24857814  0.52220098  1
  P  P279  1  0.79102461  0.25047053  0.77278706  1
  P  P280  1  0.79282232  0.58499857  0.02307414  1
  P  P281  1  0.79126496  0.58383728  0.27364550  1
  P  P282  1  0.79091601  0.58354219  0.52287176  1
  P  P283  1  0.79229705  0.58415787  0.77089336  1
  P  P284  1  0.79202264  0.91640695  0.02263151  1
  P  P285  1  0.79199016  0.91760118  0.27260227  1
  P  P286  1  0.79151660  0.91743092  0.52311481  1
  P  P287  1  0.79247806  0.91750628  0.77036915  1
  O  O288  1  0.03677308  0.24830449  0.18250074  1
  O  O289  1  0.03766602  0.24874007  0.43256915  1
  O  O290  1  0.03805435  0.24950447  0.68376001  1
  O  O291  1  0.03667547  0.24817861  0.93251423  1
  O  O292  1  0.03774221  0.58421158  0.18309883  1
  O  O293  1  0.03649302  0.58339648  0.43434874  1
  O  O294  1  0.03544530  0.58350239  0.68249091  1
  O  O295  1  0.03676475  0.58441965  0.93108440  1
  O  O296  1  0.03668132  0.91518379  0.18271530  1
  O  O297  1  0.03733159  0.91606580  0.43279467  1
  O  O298  1  0.03685675  0.91738209  0.68317822  1
  O  O299  1  0.03647906  0.91535979  0.93294869  1
  O  O300  1  0.53687498  0.24920164  0.18232054  1
  O  O301  1  0.53717016  0.24983431  0.43215735  1
  O  O302  1  0.53709407  0.25231225  0.68232046  1
  O  O303  1  0.53667136  0.25141200  0.93274004  1
  O  O304  1  0.53666465  0.58267310  0.18272571  1
  O  O305  1  0.53616856  0.58465956  0.43290815  1
  O  O306  1  0.53720865  0.58460512  0.68266356  1
  O  O307  1  0.53789384  0.58223159  0.93378579  1
  O  O308  1  0.53640048  0.91735267  0.18198356  1
  O  O309  1  0.53801854  0.91680187  0.43181624  1
  O  O310  1  0.53796747  0.91561312  0.68324102  1
  O  O311  1  0.53700527  0.91539074  0.93309783  1
  O  O312  1  0.46402357  0.08204841  0.06764510  1
  O  O313  1  0.46381165  0.08291314  0.31551151  1
  O  O314  1  0.46260451  0.08366060  0.56672034  1
  O  O315  1  0.46279645  0.08211287  0.81744252  1
  O  O316  1  0.46269792  0.41644640  0.06581701  1
  O  O317  1  0.46179214  0.41566880  0.31738050  1
  O  O318  1  0.46320189  0.41549711  0.56709100  1
  O  O319  1  0.46379378  0.41593352  0.81828470  1
  O  O320  1  0.46363697  0.74957306  0.06705010  1
  O  O321  1  0.46292420  0.74774928  0.31709216  1
  O  O322  1  0.46264876  0.75033591  0.56776467  1
  O  O323  1  0.46309380  0.75210962  0.81782246  1
  O  O324  1  0.96271857  0.08475028  0.06732500  1
  O  O325  1  0.96322015  0.08200915  0.31734481  1
  O  O326  1  0.96341957  0.08324765  0.56760459  1
  O  O327  1  0.96273477  0.08497359  0.81734342  1
  O  O328  1  0.96187614  0.41653842  0.06671174  1
  O  O329  1  0.96204926  0.41694468  0.31808027  1
  O  O330  1  0.96319656  0.41896220  0.56708058  1
  O  O331  1  0.96266579  0.41792111  0.81585522  1
  O  O332  1  0.96258307  0.75217434  0.06773571  1
  O  O333  1  0.96250215  0.75002787  0.31822909  1
  O  O334  1  0.96363546  0.74956262  0.56824163  1
  O  O335  1  0.96323233  0.75161971  0.81668561  1
  O  O336  1  0.21290458  0.08208813  0.05761245  1
  O  O337  1  0.21352857  0.08418523  0.30768043  1
  O  O338  1  0.21345129  0.08199438  0.55625342  1
  O  O339  1  0.21326168  0.07995444  0.80764189  1
  O  O340  1  0.21305512  0.41784702  0.05782567  1
  O  O341  1  0.21200766  0.41710499  0.30715526  1
  O  O342  1  0.21263874  0.41723648  0.55859433  1
  O  O343  1  0.21322299  0.41765592  0.80784120  1
  O  O344  1  0.21337039  0.75038754  0.05805969  1
  O  O345  1  0.21388262  0.75040612  0.30643327  1
  O  O346  1  0.21280115  0.74905147  0.55912817  1
  O  O347  1  0.21323871  0.74875902  0.80810262  1
  O  O348  1  0.71234223  0.08526720  0.05690375  1
  O  O349  1  0.71303970  0.08343430  0.30887485  1
  O  O350  1  0.71445131  0.08354480  0.55730938  1
  O  O351  1  0.71348457  0.08487912  0.80645356  1
  O  O352  1  0.71347603  0.41559079  0.05792370  1
  O  O353  1  0.71305843  0.41647323  0.30814495  1
  O  O354  1  0.71308907  0.41871758  0.55802317  1
  O  O355  1  0.71333698  0.41718798  0.80755553  1
  O  O356  1  0.71316898  0.75087386  0.05919329  1
  O  O357  1  0.71369560  0.74972089  0.30726849  1
  O  O358  1  0.71346652  0.74915421  0.55815183  1
  O  O359  1  0.71325107  0.75086007  0.80599868  1
  O  O360  1  0.28646025  0.24825221  0.19171193  1
  O  O361  1  0.28686416  0.24872368  0.44095788  1
  O  O362  1  0.28831558  0.24932744  0.69164250  1
  O  O363  1  0.28725424  0.24825882  0.94235203  1
  O  O364  1  0.28714317  0.58339326  0.19083841  1
  O  O365  1  0.28689869  0.58362806  0.44398012  1
  O  O366  1  0.28680871  0.58198784  0.69237281  1
  O  O367  1  0.28615977  0.58222322  0.94316963  1
  O  O368  1  0.28709484  0.91653090  0.19207387  1
  O  O369  1  0.28722676  0.91820717  0.44226289  1
  O  O370  1  0.28660785  0.91617474  0.69346893  1
  O  O371  1  0.28689682  0.91482309  0.94198422  1
  O  O372  1  0.78699849  0.25049049  0.19292701  1
  O  O373  1  0.78722392  0.24846153  0.44226835  1
  O  O374  1  0.78616972  0.24993533  0.69276776  1
  O  O375  1  0.78616656  0.25191928  0.94182943  1
  O  O376  1  0.78612739  0.58427901  0.19364661  1
  O  O377  1  0.78566616  0.58355047  0.44291250  1
  O  O378  1  0.78660886  0.58397449  0.69098808  1
  O  O379  1  0.78773680  0.58464280  0.94308394  1
  O  O380  1  0.78647115  0.91688391  0.19267967  1
  O  O381  1  0.78671174  0.91744370  0.44309700  1
  O  O382  1  0.78704192  0.91748582  0.69047155  1
  O  O383  1  0.78726272  0.91663914  0.94260052  1
  O  O384  1  0.22796397  0.24777885  0.05784227  1
  O  O385  1  0.22742907  0.24834307  0.30750684  1
  O  O386  1  0.22851883  0.24897343  0.55685503  1
  O  O387  1  0.22899086  0.24897590  0.80669539  1
  O  O388  1  0.22720254  0.58389399  0.05932233  1
  O  O389  1  0.22828466  0.58366125  0.30650619  1
  O  O390  1  0.22711030  0.58277998  0.55949323  1
  O  O391  1  0.22796195  0.58123955  0.80825506  1
  O  O392  1  0.22794177  0.91481171  0.05792112  1
  O  O393  1  0.22810042  0.91823571  0.30792944  1
  O  O394  1  0.22817957  0.91743630  0.55800192  1
  O  O395  1  0.22720110  0.91626322  0.80947244  1
  O  O396  1  0.72770518  0.25284002  0.05812429  1
  O  O397  1  0.72811495  0.24918276  0.30877161  1
  O  O398  1  0.72827583  0.24871849  0.55796086  1
  O  O399  1  0.72690745  0.25061052  0.80886787  1
  O  O400  1  0.72849555  0.58531055  0.05863670  1
  O  O401  1  0.72714495  0.58368507  0.30980342  1
  O  O402  1  0.72687507  0.58381306  0.55930647  1
  O  O403  1  0.72822631  0.58379224  0.80697966  1
  O  O404  1  0.72766328  0.91596608  0.05794382  1
  O  O405  1  0.72791592  0.91830960  0.30878579  1
  O  O406  1  0.72741393  0.91775034  0.55904684  1
  O  O407  1  0.72833647  0.91791367  0.80632556  1
  O  O408  1  0.27226550  0.08424346  0.19156363  1
  O  O409  1  0.27261114  0.08258896  0.44012160  1
  O  O410  1  0.27228118  0.08035827  0.69193086  1
  O  O411  1  0.27212001  0.08039145  0.94206259  1
  O  O412  1  0.27141116  0.41729771  0.19175273  1
  O  O413  1  0.27136108  0.41642802  0.44304890  1
  O  O414  1  0.27225804  0.41776097  0.69207593  1
  O  O415  1  0.27187498  0.41810076  0.94191908  1
  O  O416  1  0.27290916  0.74944795  0.19023449  1
  O  O417  1  0.27169023  0.75042008  0.44366844  1
  O  O418  1  0.27234630  0.74831583  0.69238984  1
  O  O419  1  0.27224434  0.75027339  0.94208021  1
  O  O420  1  0.77158281  0.08397259  0.19290745  1
  O  O421  1  0.77309792  0.08285042  0.44074194  1
  O  O422  1  0.77257269  0.08398326  0.69039738  1
  O  O423  1  0.77188306  0.08603962  0.94156663  1
  O  O424  1  0.77187358  0.41557559  0.19216474  1
  O  O425  1  0.77197378  0.41866183  0.44222804  1
  O  O426  1  0.77197301  0.41844302  0.69156177  1
  O  O427  1  0.77244907  0.41566177  0.94197155  1
  O  O428  1  0.77291790  0.74976434  0.19114690  1
  O  O429  1  0.77222238  0.74872756  0.44215886  1
  O  O430  1  0.77286714  0.74948575  0.69031648  1
  O  O431  1  0.77189249  0.75080485  0.94336737  1
  O  O432  1  0.02185838  0.08443268  0.18298188  1
  O  O433  1  0.02250390  0.08092794  0.43290111  1
  O  O434  1  0.02206499  0.08485290  0.68350429  1
  O  O435  1  0.02173603  0.08450558  0.93307674  1
  O  O436  1  0.02111040  0.41632299  0.18177198  1
  O  O437  1  0.02168519  0.41796349  0.43323710  1
  O  O438  1  0.02198912  0.41851459  0.68291453  1
  O  O439  1  0.02147517  0.41693178  0.93135023  1
  O  O440  1  0.02195748  0.75216250  0.18321743  1
  O  O441  1  0.02154360  0.74856712  0.43380899  1
  O  O442  1  0.02292066  0.75096148  0.68417842  1
  O  O443  1  0.02185696  0.75239351  0.93277909  1
  O  O444  1  0.52300427  0.08283984  0.18377523  1
  O  O445  1  0.52232750  0.08361788  0.43142899  1
  O  O446  1  0.52177062  0.08364584  0.68176635  1
  O  O447  1  0.52217952  0.08179869  0.93278661  1
  O  O448  1  0.52117068  0.41644754  0.18166096  1
  O  O449  1  0.52136866  0.41553586  0.43265708  1
  O  O450  1  0.52218020  0.41518599  0.68288218  1
  O  O451  1  0.52283014  0.41643964  0.93434690  1
  O  O452  1  0.52255252  0.74824456  0.18290328  1
  O  O453  1  0.52187414  0.74782074  0.43277359  1
  O  O454  1  0.52216379  0.75194380  0.68317691  1
  O  O455  1  0.52213436  0.75128919  0.93336055  1
  O  O456  1  0.47798465  0.25042848  0.06661877  1
  O  O457  1  0.47811770  0.24773504  0.31642282  1
  O  O458  1  0.47824292  0.25223692  0.56655536  1
  O  O459  1  0.47788767  0.25207297  0.81691016  1
  O  O460  1  0.47807439  0.58141395  0.06674033  1
  O  O461  1  0.47749426  0.58485022  0.31698074  1
  O  O462  1  0.47752406  0.58471522  0.56735552  1
  O  O463  1  0.47876797  0.58334551  0.81858531  1
  O  O464  1  0.47752551  0.91686398  0.06584119  1
  O  O465  1  0.47842709  0.91704600  0.31663328  1
  O  O466  1  0.47867589  0.91620127  0.56802607  1
  O  O467  1  0.47833051  0.91460428  0.81701685  1
  O  O468  1  0.97771393  0.24838691  0.06681994  1
  O  O469  1  0.97792820  0.24794411  0.31740817  1
  O  O470  1  0.97899278  0.24976895  0.56850051  1
  O  O471  1  0.97802443  0.24863387  0.81659936  1
  O  O472  1  0.97820045  0.58444477  0.06820882  1
  O  O473  1  0.97791292  0.58380448  0.31863738  1
  O  O474  1  0.97647471  0.58430883  0.56621173  1
  O  O475  1  0.97700965  0.58389414  0.81566876  1
  O  O476  1  0.97772388  0.91550428  0.06693925  1
  O  O477  1  0.97812271  0.91482990  0.31723958  1
  O  O478  1  0.97792503  0.91796416  0.56739599  1
  O  O479  1  0.97781078  0.91528127  0.81702571  1
  O  O480  1  0.07292691  0.31222475  0.07461971  1
  O  O481  1  0.07320690  0.31200112  0.32450224  1
  O  O482  1  0.07405582  0.31373344  0.57593287  1
  O  O483  1  0.07353076  0.31201797  0.82513441  1
  O  O484  1  0.07365598  0.64771052  0.07487251  1
  O  O485  1  0.07362538  0.64677890  0.32618747  1
  O  O486  1  0.07174060  0.64743877  0.57448711  1
  O  O487  1  0.07186116  0.64777883  0.82253959  1
  O  O488  1  0.07288165  0.97927759  0.07523071  1
  O  O489  1  0.07359300  0.97842187  0.32403053  1
  O  O490  1  0.07271892  0.98139598  0.57454386  1
  O  O491  1  0.07285457  0.97929494  0.82559957  1
  O  O492  1  0.57267807  0.31422798  0.07447864  1
  O  O493  1  0.57301092  0.31266375  0.32399426  1
  O  O494  1  0.57355959  0.31533500  0.57334724  1
  O  O495  1  0.57334317  0.31490019  0.82427923  1
  O  O496  1  0.57332933  0.64548259  0.07470861  1
  O  O497  1  0.57303008  0.64749217  0.32398417  1
  O  O498  1  0.57226719  0.64870716  0.57420057  1
  O  O499  1  0.57413964  0.64677647  0.82629199  1
  O  O500  1  0.57273914  0.98027032  0.07337906  1
  O  O501  1  0.57332726  0.98085889  0.32330033  1
  O  O502  1  0.57392587  0.97990994  0.57544661  1
  O  O503  1  0.57339856  0.97892713  0.82507466  1
  O  O504  1  0.42792366  0.01898417  0.17608974  1
  O  O505  1  0.42725850  0.01955826  0.42388079  1
  O  O506  1  0.42632510  0.02009955  0.67474892  1
  O  O507  1  0.42729214  0.01811878  0.92593806  1
  O  O508  1  0.42587377  0.35280322  0.17387592  1
  O  O509  1  0.42662031  0.35142012  0.42561557  1
  O  O510  1  0.42670308  0.35234968  0.67587149  1
  O  O511  1  0.42762478  0.35286409  0.92677873  1
  O  O512  1  0.42762965  0.68480996  0.17484212  1
  O  O513  1  0.42624911  0.68524914  0.42641554  1
  O  O514  1  0.42695469  0.68770852  0.67649296  1
  O  O515  1  0.42671654  0.68765583  0.92488237  1
  O  O516  1  0.92650318  0.02083088  0.17484334  1
  O  O517  1  0.92751031  0.01780595  0.42581083  1
  O  O518  1  0.92667972  0.02101034  0.67596911  1
  O  O519  1  0.92638834  0.02107125  0.92489010  1
  O  O520  1  0.92562092  0.35309176  0.17494624  1
  O  O521  1  0.92656337  0.35363429  0.42619829  1
  O  O522  1  0.92665037  0.35491621  0.67447900  1
  O  O523  1  0.92611305  0.35371817  0.92352691  1
  O  O524  1  0.92679998  0.68823439  0.17564236  1
  O  O525  1  0.92627919  0.68569922  0.42647298  1
  O  O526  1  0.92818054  0.68688279  0.67711566  1
  O  O527  1  0.92681828  0.68821084  0.92478454  1
  O  O528  1  0.17689363  0.02058785  0.19997681  1
  O  O529  1  0.17752736  0.01916812  0.44752677  1
  O  O530  1  0.17696471  0.01721850  0.69862279  1
  O  O531  1  0.17677775  0.01759160  0.94972834  1
  O  O532  1  0.17582020  0.35396571  0.19923812  1
  O  O533  1  0.17568363  0.35361130  0.45066918  1
  O  O534  1  0.17710089  0.35365891  0.70029933  1
  O  O535  1  0.17696218  0.35371872  0.95025928  1
  O  O536  1  0.17740525  0.68682093  0.19855420  1
  O  O537  1  0.17650631  0.68634455  0.45036567  1
  O  O538  1  0.17744443  0.68483506  0.69973059  1
  O  O539  1  0.17661404  0.68711752  0.95005545  1
  O  O540  1  0.67628147  0.02046087  0.20029121  1
  O  O541  1  0.67787046  0.01976571  0.44923558  1
  O  O542  1  0.67745924  0.02062358  0.69857306  1
  O  O543  1  0.67697348  0.02154952  0.94902312  1
  O  O544  1  0.67692318  0.35221263  0.19997560  1
  O  O545  1  0.67687388  0.35466704  0.45062267  1
  O  O546  1  0.67680108  0.35447496  0.69930584  1
  O  O547  1  0.67706471  0.35288347  0.94878262  1
  O  O548  1  0.67759273  0.68652102  0.19891281  1
  O  O549  1  0.67706282  0.68556096  0.44949248  1
  O  O550  1  0.67710366  0.68696271  0.69836272  1
  O  O551  1  0.67650931  0.68733336  0.95091680  1
  O  O552  1  0.32323099  0.31166824  0.05012391  1
  O  O553  1  0.32257711  0.31233596  0.29915067  1
  O  O554  1  0.32369174  0.31261440  0.54872621  1
  O  O555  1  0.32424865  0.31265888  0.80002785  1
  O  O556  1  0.32258054  0.64666485  0.05049792  1
  O  O557  1  0.32375376  0.64682852  0.29934200  1
  O  O558  1  0.32180793  0.64700609  0.55269814  1
  O  O559  1  0.32326644  0.64511011  0.80063557  1
  O  O560  1  0.32338392  0.97823435  0.04999661  1
  O  O561  1  0.32335066  0.98096589  0.29992512  1
  O  O562  1  0.32306076  0.98141051  0.55110496  1
  O  O563  1  0.32277604  0.97905015  0.80200478  1
  O  O564  1  0.82321013  0.31529847  0.05050365  1
  O  O565  1  0.82377077  0.31258989  0.30127679  1
  O  O566  1  0.82339800  0.31252059  0.54983260  1
  O  O567  1  0.82175904  0.31444755  0.80046377  1
  O  O568  1  0.82371611  0.64844618  0.05145098  1
  O  O569  1  0.82232483  0.64726793  0.30211883  1
  O  O570  1  0.82215751  0.64701824  0.55118164  1
  O  O571  1  0.82328868  0.64777584  0.79903527  1
  O  O572  1  0.82281356  0.98036674  0.05018837  1
  O  O573  1  0.82322766  0.98104032  0.30066024  1
  O  O574  1  0.82295832  0.98057579  0.55147377  1
  O  O575  1  0.82391677  0.98081449  0.79877782  1
  O  O576  1  0.42831879  0.14649344  0.17551321  1
  O  O577  1  0.42664112  0.14629480  0.42368429  1
  O  O578  1  0.42640342  0.14712938  0.67471060  1
  O  O579  1  0.42665929  0.14531934  0.92520144  1
  O  O580  1  0.42569054  0.47950054  0.17430839  1
  O  O581  1  0.42578930  0.47877953  0.42537609  1
  O  O582  1  0.42731983  0.47943518  0.67490271  1
  O  O583  1  0.42807701  0.48029267  0.92614757  1
  O  O584  1  0.42727252  0.81197790  0.17541147  1
  O  O585  1  0.42699788  0.81232930  0.42434865  1
  O  O586  1  0.42684850  0.81478696  0.67598529  1
  O  O587  1  0.42704097  0.81472604  0.92713594  1
  O  O588  1  0.92681970  0.14793961  0.17637900  1
  O  O589  1  0.92720249  0.14496996  0.42557364  1
  O  O590  1  0.92709413  0.14810879  0.67529850  1
  O  O591  1  0.92672735  0.14822453  0.92609830  1
  O  O592  1  0.92579838  0.48010308  0.17484905  1
  O  O593  1  0.92638288  0.48093282  0.42647128  1
  O  O594  1  0.92691695  0.48207220  0.67567688  1
  O  O595  1  0.92610265  0.48071554  0.92434411  1
  O  O596  1  0.92666032  0.81528866  0.17676154  1
  O  O597  1  0.92628439  0.81268399  0.42654784  1
  O  O598  1  0.92790408  0.81434430  0.67561596  1
  O  O599  1  0.92651992  0.81517362  0.92535965  1
  O  O600  1  0.07296824  0.18513104  0.07370739  1
  O  O601  1  0.07291219  0.18460674  0.32418878  1
  O  O602  1  0.07482199  0.18683037  0.57525440  1
  O  O603  1  0.07302726  0.18485250  0.82396902  1
  O  O604  1  0.07347492  0.52069068  0.07484997  1
  O  O605  1  0.07317499  0.52006083  0.32585081  1
  O  O606  1  0.07107115  0.52013263  0.57382563  1
  O  O607  1  0.07210069  0.52028448  0.82301385  1
  O  O608  1  0.07291390  0.85214099  0.07386518  1
  O  O609  1  0.07309659  0.85135179  0.32489163  1
  O  O610  1  0.07341066  0.85430529  0.57534960  1
  O  O611  1  0.07309158  0.85224619  0.82413290  1
  O  O612  1  0.57368296  0.18710780  0.07397868  1
  O  O613  1  0.57351699  0.18548240  0.32404696  1
  O  O614  1  0.57332592  0.18823942  0.57475077  1
  O  O615  1  0.57269495  0.18771640  0.82496029  1
  O  O616  1  0.57317095  0.51839639  0.07467913  1
  O  O617  1  0.57233134  0.52038947  0.32554211  1
  O  O618  1  0.57304393  0.52143615  0.57468518  1
  O  O619  1  0.57426195  0.51987778  0.82487391  1
  O  O620  1  0.57220928  0.85279463  0.07448423  1
  O  O621  1  0.57392299  0.85362790  0.32393193  1
  O  O622  1  0.57425832  0.85306671  0.57440204  1
  O  O623  1  0.57374279  0.85193659  0.82436343  1
  O  O624  1  0.32303424  0.18433122  0.05055265  1
  O  O625  1  0.32265067  0.18517138  0.30056990  1
  O  O626  1  0.32403555  0.18572268  0.54902516  1
  O  O627  1  0.32448470  0.18559138  0.79943946  1
  O  O628  1  0.32164239  0.51918164  0.05181372  1
  O  O629  1  0.32356053  0.52009223  0.29939502  1
  O  O630  1  0.32244022  0.51951951  0.55181608  1
  O  O631  1  0.32329101  0.51828544  0.80099939  1
  O  O632  1  0.32286607  0.85136148  0.05089161  1
  O  O633  1  0.32312697  0.85378835  0.30041211  1
  O  O634  1  0.32369815  0.85437126  0.55000013  1
  O  O635  1  0.32140839  0.85166596  0.80156279  1
  O  O636  1  0.82255297  0.18841719  0.04987248  1
  O  O637  1  0.82281428  0.18549621  0.30079634  1
  O  O638  1  0.82359300  0.18542756  0.55098834  1
  O  O639  1  0.82190083  0.18702406  0.80147183  1
  O  O640  1  0.82359318  0.52123041  0.05095148  1
  O  O641  1  0.82193004  0.51986218  0.30141388  1
  O  O642  1  0.82162683  0.51984847  0.55128400  1
  O  O643  1  0.82384450  0.52104182  0.79934300  1
  O  O644  1  0.82284639  0.85312096  0.05151932  1
  O  O645  1  0.82289917  0.85401608  0.30084785  1
  O  O646  1  0.82165000  0.85314169  0.55117783  1
  O  O647  1  0.82343981  0.85403613  0.79878218  1
  O  O648  1  0.17725970  0.14752927  0.19879650  1
  O  O649  1  0.17783208  0.14654657  0.44851704  1
  O  O650  1  0.17727157  0.14434320  0.70014802  1
  O  O651  1  0.17696457  0.14468637  0.94907994  1
  O  O652  1  0.17661088  0.48125575  0.19887798  1
  O  O653  1  0.17621723  0.48050757  0.45038812  1
  O  O654  1  0.17696295  0.48080576  0.69907826  1
  O  O655  1  0.17640170  0.48094047  0.94923927  1
  O  O656  1  0.17867413  0.81434292  0.19848192  1
  O  O657  1  0.17608168  0.81316555  0.45142150  1
  O  O658  1  0.17692303  0.81194007  0.70017986  1
  O  O659  1  0.17751954  0.81398668  0.94911225  1
  O  O660  1  0.67618788  0.14712504  0.20082849  1
  O  O661  1  0.67856934  0.14712913  0.44893713  1
  O  O662  1  0.67761291  0.14797456  0.69796869  1
  O  O663  1  0.67650352  0.14881119  0.94841030  1
  O  O664  1  0.67651927  0.47937477  0.20014048  1
  O  O665  1  0.67672577  0.48178510  0.44922557  1
  O  O666  1  0.67684075  0.48154244  0.69957702  1
  O  O667  1  0.67756918  0.47992804  0.95062745  1
  O  O668  1  0.67854866  0.81404791  0.19920818  1
  O  O669  1  0.67703037  0.81247889  0.45012786  1
  O  O670  1  0.67875330  0.81444817  0.69738032  1
  O  O671  1  0.67647357  0.81400317  0.95050807  1
