# generated using pymatgen
data_Na2MnFe(PO4)2
_symmetry_space_group_name_H-M   'P 1'
_cell_length_a   22.34654317
_cell_length_b   20.09719881
_cell_length_c   19.44845887
_cell_angle_alpha   90.02488911
_cell_angle_beta   89.95821177
_cell_angle_gamma   89.95924360
_symmetry_Int_Tables_number   1
_chemical_formula_structural   Na2MnFe(PO4)2
_chemical_formula_sum   'Na96 Mn48 Fe48 P96 O384'
_cell_volume   8734.35432125
_cell_formula_units_Z   48
loop_
 _symmetry_equiv_pos_site_id
 _symmetry_equiv_pos_as_xyz
  1  'x, y, z'
loop_
 _atom_site_type_symbol
 _atom_site_label
 _atom_site_symmetry_multiplicity
 _atom_site_fract_x
 _atom_site_fract_y
 _atom_site_fract_z
 _atom_site_occupancy
  Na  Na0  1  0.13976887  0.24987903  0.24441822  1
  Na  Na1  1  0.13986049  0.25012414  0.49327168  1
  Na  Na2  1  0.14010344  0.24933002  0.74253957  1
  Na  Na3  1  0.14010339  0.24993081  0.99383578  1
  Na  Na4  1  0.13953735  0.58399151  0.24274821  1
  Na  Na5  1  0.13986014  0.58373415  0.49200986  1
  Na  Na6  1  0.14058800  0.58354072  0.74206809  1
  Na  Na7  1  0.13978696  0.58382557  0.99268076  1
  Na  Na8  1  0.14028910  0.91653479  0.24390151  1
  Na  Na9  1  0.14086970  0.91673339  0.49404690  1
  Na  Na10  1  0.14062897  0.91580929  0.74350107  1
  Na  Na11  1  0.14050936  0.91495156  0.99308638  1
  Na  Na12  1  0.64084236  0.24878164  0.24362470  1
  Na  Na13  1  0.64046487  0.24956064  0.49361462  1
  Na  Na14  1  0.64065938  0.25047707  0.74295794  1
  Na  Na15  1  0.64097958  0.24927368  0.99514206  1
  Na  Na16  1  0.64084136  0.58172523  0.24428077  1
  Na  Na17  1  0.64081375  0.58489991  0.49418034  1
  Na  Na18  1  0.64105302  0.58353872  0.74449380  1
  Na  Na19  1  0.64050988  0.58304879  0.99431975  1
  Na  Na20  1  0.64072483  0.91609143  0.24385103  1
  Na  Na21  1  0.64129876  0.91770292  0.49307139  1
  Na  Na22  1  0.64110517  0.91778634  0.74403704  1
  Na  Na23  1  0.64092769  0.91660817  0.99428305  1
  Na  Na24  1  0.35892325  0.08259124  0.00559234  1
  Na  Na25  1  0.35877327  0.08357072  0.25699459  1
  Na  Na26  1  0.35942895  0.08365813  0.50666542  1
  Na  Na27  1  0.35961111  0.08163815  0.75614983  1
  Na  Na28  1  0.35939729  0.41698889  0.00622087  1
  Na  Na29  1  0.35893949  0.41598532  0.25622583  1
  Na  Na30  1  0.35844534  0.41676251  0.50641132  1
  Na  Na31  1  0.35925847  0.41722863  0.75514765  1
  Na  Na32  1  0.35915273  0.75006399  0.00497586  1
  Na  Na33  1  0.35931577  0.75047460  0.25649197  1
  Na  Na34  1  0.35896087  0.74958022  0.50613265  1
  Na  Na35  1  0.35869576  0.75059530  0.75541640  1
  Na  Na36  1  0.85954333  0.08355775  0.00709623  1
  Na  Na37  1  0.85994265  0.08235461  0.25758152  1
  Na  Na38  1  0.85982549  0.08491365  0.50593840  1
  Na  Na39  1  0.86016051  0.08449025  0.75638648  1
  Na  Na40  1  0.86030424  0.41664633  0.00824776  1
  Na  Na41  1  0.85998234  0.41562307  0.25689047  1
  Na  Na42  1  0.85966836  0.41747351  0.50739512  1
  Na  Na43  1  0.85994249  0.41709708  0.75599264  1
  Na  Na44  1  0.86033552  0.75034843  0.00735027  1
  Na  Na45  1  0.85989085  0.74878739  0.25632135  1
  Na  Na46  1  0.85998698  0.75039537  0.50535038  1
  Na  Na47  1  0.86005384  0.75041508  0.75667697  1
  Na  Na48  1  0.10904043  0.08323930  0.11949782  1
  Na  Na49  1  0.10950507  0.08422279  0.36881989  1
  Na  Na50  1  0.10958640  0.08348787  0.61919216  1
  Na  Na51  1  0.10948863  0.08288419  0.86827089  1
  Na  Na52  1  0.10923738  0.41746315  0.11850957  1
  Na  Na53  1  0.10910653  0.41627615  0.36872384  1
  Na  Na54  1  0.10945475  0.41627021  0.61590331  1
  Na  Na55  1  0.10914778  0.41603853  0.86879296  1
  Na  Na56  1  0.10960038  0.74955743  0.11791072  1
  Na  Na57  1  0.11007992  0.74939712  0.36746926  1
  Na  Na58  1  0.11034913  0.74928638  0.61689500  1
  Na  Na59  1  0.11013444  0.75031231  0.86776609  1
  Na  Na60  1  0.61040307  0.08310242  0.11970479  1
  Na  Na61  1  0.61009918  0.08387969  0.36785605  1
  Na  Na62  1  0.60999490  0.08343854  0.61880673  1
  Na  Na63  1  0.61027870  0.08414500  0.86889362  1
  Na  Na64  1  0.60960345  0.41554714  0.11997506  1
  Na  Na65  1  0.60990934  0.41663768  0.36962930  1
  Na  Na66  1  0.60986814  0.41579673  0.61859935  1
  Na  Na67  1  0.60986416  0.41712320  0.86982643  1
  Na  Na68  1  0.60979779  0.74929078  0.11920536  1
  Na  Na69  1  0.60981506  0.74977495  0.36905262  1
  Na  Na70  1  0.61027266  0.75003286  0.61936524  1
  Na  Na71  1  0.61019220  0.75028596  0.86906709  1
  Na  Na72  1  0.38951225  0.25041478  0.13181536  1
  Na  Na73  1  0.38958097  0.25052868  0.38126326  1
  Na  Na74  1  0.39007903  0.24917362  0.63077405  1
  Na  Na75  1  0.39034659  0.25123204  0.88037273  1
  Na  Na76  1  0.39027281  0.58296154  0.13086168  1
  Na  Na77  1  0.38978629  0.58376535  0.38138562  1
  Na  Na78  1  0.38948152  0.58356656  0.63103325  1
  Na  Na79  1  0.38974612  0.58361517  0.87981826  1
  Na  Na80  1  0.38982691  0.91603097  0.13093448  1
  Na  Na81  1  0.39016472  0.91556189  0.38172446  1
  Na  Na82  1  0.38988893  0.91657757  0.63136730  1
  Na  Na83  1  0.38953958  0.91738077  0.88063956  1
  Na  Na84  1  0.89042917  0.25055917  0.13315218  1
  Na  Na85  1  0.89019674  0.24976835  0.38243457  1
  Na  Na86  1  0.88990342  0.24962956  0.63126283  1
  Na  Na87  1  0.89076222  0.25033003  0.88117102  1
  Na  Na88  1  0.89062521  0.58370013  0.13109607  1
  Na  Na89  1  0.89070855  0.58228131  0.38146693  1
  Na  Na90  1  0.89041454  0.58360739  0.63087055  1
  Na  Na91  1  0.89091486  0.58396025  0.88281496  1
  Na  Na92  1  0.89059862  0.91644788  0.13203481  1
  Na  Na93  1  0.89017907  0.91715989  0.38136223  1
  Na  Na94  1  0.89072963  0.91768089  0.63135379  1
  Na  Na95  1  0.89056015  0.91733966  0.88177852  1
  Mn  Mn96  1  0.50008038  0.49925305  0.25106541  1
  Mn  Mn97  1  0.75041809  0.50116865  0.62614942  1
  Mn  Mn98  1  0.24996601  0.49984417  0.12449116  1
  Mn  Mn99  1  -0.00057040  0.83368376  0.74950421  1
  Mn  Mn100  1  0.75028971  0.50045438  0.87607625  1
  Mn  Mn101  1  0.25044668  0.16561468  0.87439008  1
  Mn  Mn102  1  -0.00015636  0.33411178  0.25056723  1
  Mn  Mn103  1  0.24909189  0.16698343  0.12523883  1
  Mn  Mn104  1  0.24957506  0.33356406  0.87408236  1
  Mn  Mn105  1  0.75062385  0.33295186  0.87565088  1
  Mn  Mn106  1  0.75025688  0.33295422  0.37574155  1
  Mn  Mn107  1  0.49931852  0.33247193  0.49972348  1
  Mn  Mn108  1  0.00024031  0.49963311  0.74975154  1
  Mn  Mn109  1  0.00034248  0.00103242  0.50053062  1
  Mn  Mn110  1  0.75122034  0.00149042  0.62372257  1
  Mn  Mn111  1  0.24992999  -0.00026779  0.37542141  1
  Mn  Mn112  1  0.50058555  0.00022075  0.49959069  1
  Mn  Mn113  1  0.00058546  0.66660935  0.75012002  1
  Mn  Mn114  1  0.50005623  0.16660981  0.75015855  1
  Mn  Mn115  1  0.50035741  0.83371174  -0.00027232  1
  Mn  Mn116  1  0.75111349  0.83370374  0.62524821  1
  Mn  Mn117  1  0.75028653  0.83301650  0.12489696  1
  Mn  Mn118  1  -0.00053921  0.16725966  0.00022480  1
  Mn  Mn119  1  0.49930935  -0.00064046  0.24987323  1
  Mn  Mn120  1  -0.00031232  0.33285652  0.74933888  1
  Mn  Mn121  1  0.49914343  0.16725059  0.24953306  1
  Mn  Mn122  1  0.75053795  0.83362374  0.87548341  1
  Mn  Mn123  1  0.50005292  0.33416349  0.00023503  1
  Mn  Mn124  1  0.49945021  0.66610543  -0.00004759  1
  Mn  Mn125  1  0.50082740  0.83253983  0.50080935  1
  Mn  Mn126  1  0.75105522  0.16625667  0.87532725  1
  Mn  Mn127  1  0.49952846  0.50022286  0.49995821  1
  Mn  Mn128  1  0.49993339  0.00034881  0.00032037  1
  Mn  Mn129  1  0.00078951  0.83293506  0.49976620  1
  Mn  Mn130  1  0.24989406  0.16632621  0.62516840  1
  Mn  Mn131  1  0.24945823  -0.00114286  0.12588213  1
  Mn  Mn132  1  0.75028310  0.49950477  0.12545956  1
  Mn  Mn133  1  0.24936999  0.50013205  0.37454602  1
  Mn  Mn134  1  0.24980423  0.66777335  0.12390078  1
  Mn  Mn135  1  -0.00040085  -0.00025525  0.00015401  1
  Mn  Mn136  1  0.50057476  0.66653348  0.24991391  1
  Mn  Mn137  1  0.49973262  0.16724056  -0.00048934  1
  Mn  Mn138  1  0.49985926  0.83442919  0.74925157  1
  Mn  Mn139  1  -0.00020979  0.83286321  0.25011387  1
  Mn  Mn140  1  0.24902837  0.50068307  0.87414074  1
  Mn  Mn141  1  0.75034179  0.66664654  0.37521617  1
  Mn  Mn142  1  0.50080164  0.49952325  0.74987547  1
  Mn  Mn143  1  0.50023708  0.66674909  0.75043032  1
  Fe  Fe144  1  0.75043987  0.16646163  0.37439807  1
  Fe  Fe145  1  -0.00047810  0.50055804  0.24965887  1
  Fe  Fe146  1  0.00035674  0.33348969  0.00038508  1
  Fe  Fe147  1  0.24936616  0.66711647  0.62391718  1
  Fe  Fe148  1  0.00047464  0.16696990  0.75009179  1
  Fe  Fe149  1  -0.00040190  0.33285367  0.49978035  1
  Fe  Fe150  1  0.50027166  0.00048719  0.74968047  1
  Fe  Fe151  1  0.49982298  0.33335612  0.25006193  1
  Fe  Fe152  1  0.24989579  0.33328396  0.62421330  1
  Fe  Fe153  1  -0.00030432  0.66598892  0.49876074  1
  Fe  Fe154  1  0.24983236  0.83315992  0.37525530  1
  Fe  Fe155  1  0.00063416  0.83336303  0.00032530  1
  Fe  Fe156  1  0.25010059  0.66700485  0.87342137  1
  Fe  Fe157  1  0.24979842  0.83303397  0.12438876  1
  Fe  Fe158  1  0.00000157  0.66610188  0.24895849  1
  Fe  Fe159  1  0.24975226  0.66681798  0.37475797  1
  Fe  Fe160  1  -0.00034515  0.16719485  0.25066482  1
  Fe  Fe161  1  0.75040756  0.66749548  0.62509470  1
  Fe  Fe162  1  0.24937790  -0.00124655  0.87531575  1
  Fe  Fe163  1  0.75062981  0.66692127  0.87552587  1
  Fe  Fe164  1  0.75002720  0.83331444  0.37489135  1
  Fe  Fe165  1  0.74995086  0.33388924  0.62474095  1
  Fe  Fe166  1  0.75016320  0.49965299  0.37552408  1
  Fe  Fe167  1  0.49998622  0.16644062  0.49994931  1
  Fe  Fe168  1  -0.00054715  0.16637779  0.50027406  1
  Fe  Fe169  1  0.24981483  -0.00055885  0.62507708  1
  Fe  Fe170  1  0.50004147  0.33327426  0.74977105  1
  Fe  Fe171  1  0.75050249  0.16574393  0.12545904  1
  Fe  Fe172  1  0.00027547  0.00002799  0.25029349  1
  Fe  Fe173  1  0.24936269  0.33300710  0.12530088  1
  Fe  Fe174  1  0.74975886  0.16713577  0.62487439  1
  Fe  Fe175  1  0.49992436  0.66655323  0.50010076  1
  Fe  Fe176  1  0.00054417  0.66676925  0.00005137  1
  Fe  Fe177  1  0.75055593  -0.00028107  0.12556694  1
  Fe  Fe178  1  0.24920093  0.50026477  0.62394495  1
  Fe  Fe179  1  0.75015354  0.00044837  0.87514762  1
  Fe  Fe180  1  0.75045778  0.00024177  0.37478108  1
  Fe  Fe181  1  0.24984263  0.83316886  0.62495861  1
  Fe  Fe182  1  0.49967946  0.49966472  0.00025647  1
  Fe  Fe183  1  0.75002272  0.33256211  0.12635824  1
  Fe  Fe184  1  0.24945329  0.16709062  0.37580723  1
  Fe  Fe185  1  0.75003495  0.66629216  0.12581093  1
  Fe  Fe186  1  0.24899407  0.33328773  0.37530114  1
  Fe  Fe187  1  0.50000079  0.83278781  0.25041550  1
  Fe  Fe188  1  0.24961362  0.83300953  0.87369427  1
  Fe  Fe189  1  0.00017986  0.00041081  0.75043979  1
  Fe  Fe190  1  0.00021386  0.50021508  0.00025701  1
  Fe  Fe191  1  -0.00005513  0.50006487  0.49904305  1
  P  P192  1  0.04178368  0.25123882  0.10315522  1
  P  P193  1  0.04138979  0.24923048  0.35339699  1
  P  P194  1  0.04109800  0.24922195  0.60159091  1
  P  P195  1  0.04245227  0.24937657  0.85257475  1
  P  P196  1  0.04151079  0.58351767  0.10182795  1
  P  P197  1  0.04106862  0.58323406  0.35158246  1
  P  P198  1  0.04140179  0.58328133  0.60049338  1
  P  P199  1  0.04284368  0.58294476  0.85367732  1
  P  P200  1  0.04223303  0.91565723  0.10292898  1
  P  P201  1  0.04215482  0.91779054  0.35243424  1
  P  P202  1  0.04274077  0.91726997  0.60352650  1
  P  P203  1  0.04191688  0.91741788  0.85262608  1
  P  P204  1  0.54254182  0.25026085  0.10351277  1
  P  P205  1  0.54214956  0.25105460  0.35244441  1
  P  P206  1  0.54221098  0.24844741  0.60249112  1
  P  P207  1  0.54270512  0.25172896  0.85221709  1
  P  P208  1  0.54227577  0.58152260  0.10271669  1
  P  P209  1  0.54302763  0.58363802  0.35390305  1
  P  P210  1  0.54237997  0.58430457  0.60248224  1
  P  P211  1  0.54313688  0.58279478  0.85387589  1
  P  P212  1  0.54302699  0.91629106  0.10389175  1
  P  P213  1  0.54229200  0.91523957  0.35246115  1
  P  P214  1  0.54354570  0.91729163  0.60335617  1
  P  P215  1  0.54260654  0.91852540  0.85213761  1
  P  P216  1  0.45618015  0.08321063  0.14685755  1
  P  P217  1  0.45749375  0.08461031  0.39745861  1
  P  P218  1  0.45769607  0.08238029  0.64703055  1
  P  P219  1  0.45705352  0.08344779  0.89613617  1
  P  P220  1  0.45729846  0.41581578  0.14767866  1
  P  P221  1  0.45649351  0.41630233  0.39673992  1
  P  P222  1  0.45770956  0.41520039  0.64744135  1
  P  P223  1  0.45736016  0.41794072  0.89714322  1
  P  P224  1  0.45757688  0.75086871  0.14772995  1
  P  P225  1  0.45787163  0.74895220  0.39757399  1
  P  P226  1  0.45720837  0.74957332  0.64646762  1
  P  P227  1  0.45718203  0.75037355  0.89661110  1
  P  P228  1  0.95855231  0.08340963  0.14918885  1
  P  P229  1  0.95802040  0.08460065  0.39695841  1
  P  P230  1  0.95874202  0.08411456  0.64852491  1
  P  P231  1  0.95747927  0.08359837  0.89648079  1
  P  P232  1  0.95799739  0.41852096  0.14713231  1
  P  P233  1  0.95832427  0.41643964  0.39840685  1
  P  P234  1  0.95762409  0.41652992  0.64561875  1
  P  P235  1  0.95844572  0.41650791  0.89886679  1
  P  P236  1  0.95820220  0.74865279  0.14666338  1
  P  P237  1  0.95833398  0.74843101  0.39664795  1
  P  P238  1  0.95769134  0.74917361  0.64611732  1
  P  P239  1  0.95907035  0.75041278  0.89881591  1
  P  P240  1  0.20694734  0.08362552  0.22912573  1
  P  P241  1  0.20777868  0.08410917  0.47808381  1
  P  P242  1  0.20791328  0.08104839  0.72786580  1
  P  P243  1  0.20723213  0.08156620  0.97736373  1
  P  P244  1  0.20745514  0.41531821  0.22765046  1
  P  P245  1  0.20735331  0.41587775  0.47777842  1
  P  P246  1  0.20797505  0.41664591  0.72537210  1
  P  P247  1  0.20690305  0.41659044  0.97797379  1
  P  P248  1  0.20755777  0.75157895  0.22768044  1
  P  P249  1  0.20839664  0.75002321  0.47685127  1
  P  P250  1  0.20826835  0.74978025  0.72620231  1
  P  P251  1  0.20852442  0.74991575  0.97547964  1
  P  P252  1  0.70931222  0.08266830  0.22757174  1
  P  P253  1  0.70895314  0.08427971  0.47622883  1
  P  P254  1  0.70824561  0.08467185  0.72735876  1
  P  P255  1  0.70826788  0.08193748  0.97850156  1
  P  P256  1  0.70809511  0.41510090  0.22859615  1
  P  P257  1  0.70817696  0.41784930  0.47843511  1
  P  P258  1  0.70802251  0.41598672  0.72765479  1
  P  P259  1  0.70790141  0.41603450  0.97950234  1
  P  P260  1  0.70818000  0.74882037  0.22808790  1
  P  P261  1  0.70804802  0.75146430  0.47783031  1
  P  P262  1  0.70853132  0.74915322  0.72821048  1
  P  P263  1  0.70823230  0.74870967  0.97811781  1
  P  P264  1  0.29203189  0.25102726  0.02263539  1
  P  P265  1  0.29060126  0.25023914  0.27361192  1
  P  P266  1  0.29144828  0.25094498  0.52173282  1
  P  P267  1  0.29250822  0.24993352  0.77087151  1
  P  P268  1  0.29248611  0.58389905  0.02082059  1
  P  P269  1  0.29168779  0.58473256  0.27231380  1
  P  P270  1  0.29063568  0.58389172  0.52247999  1
  P  P271  1  0.29145899  0.58472907  0.77049752  1
  P  P272  1  0.29176157  0.91512519  0.02174353  1
  P  P273  1  0.29200175  0.91496492  0.27270885  1
  P  P274  1  0.29126540  0.91623844  0.52329042  1
  P  P275  1  0.29095643  0.91660369  0.77250647  1
  P  P276  1  0.79195422  0.24967050  0.02458504  1
  P  P277  1  0.79242011  0.24845205  0.27223525  1
  P  P278  1  0.79117892  0.24995698  0.52318267  1
  P  P279  1  0.79282645  0.25018340  0.77114239  1
  P  P280  1  0.79224794  0.58484998  0.02286865  1
  P  P281  1  0.79238773  0.58157899  0.27279159  1
  P  P282  1  0.79228226  0.58496890  0.52262289  1
  P  P283  1  0.79295529  0.58498783  0.77304750  1
  P  P284  1  0.79269250  0.91809104  0.02265401  1
  P  P285  1  0.79135885  0.91635318  0.27319086  1
  P  P286  1  0.79345424  0.91694681  0.52071274  1
  P  P287  1  0.79289483  0.91853849  0.77278028  1
  O  O288  1  0.03634836  0.25082360  0.18307172  1
  O  O289  1  0.03584294  0.24925345  0.43323468  1
  O  O290  1  0.03652844  0.24925523  0.68160862  1
  O  O291  1  0.03709196  0.25033686  0.93250048  1
  O  O292  1  0.03661519  0.58396548  0.18173684  1
  O  O293  1  0.03582666  0.58334476  0.43148782  1
  O  O294  1  0.03730912  0.58307161  0.68054131  1
  O  O295  1  0.03766195  0.58273022  0.93357151  1
  O  O296  1  0.03679919  0.91617919  0.18285841  1
  O  O297  1  0.03725867  0.91766702  0.43240522  1
  O  O298  1  0.03712650  0.91769868  0.68343912  1
  O  O299  1  0.03679839  0.91657066  0.93260691  1
  O  O300  1  0.53736196  0.25064897  0.18345068  1
  O  O301  1  0.53698302  0.25000294  0.43238491  1
  O  O302  1  0.53728003  0.24913457  0.68242882  1
  O  O303  1  0.53756919  0.25152866  0.93218856  1
  O  O304  1  0.53722724  0.58194845  0.18272637  1
  O  O305  1  0.53770687  0.58427752  0.43383814  1
  O  O306  1  0.53757101  0.58378673  0.68249028  1
  O  O307  1  0.53763852  0.58220068  0.93382530  1
  O  O308  1  0.53761554  0.91543279  0.18385123  1
  O  O309  1  0.53751047  0.91563738  0.43245865  1
  O  O310  1  0.53844920  0.91800300  0.68331177  1
  O  O311  1  0.53757009  0.91817809  0.93214611  1
  O  O312  1  0.46115267  0.08332736  0.06685700  1
  O  O313  1  0.46208493  0.08430420  0.31746440  1
  O  O314  1  0.46305321  0.08309105  0.56708207  1
  O  O315  1  0.46228675  0.08290497  0.81614403  1
  O  O316  1  0.46259008  0.41681830  0.06771778  1
  O  O317  1  0.46155382  0.41588897  0.31679568  1
  O  O318  1  0.46258091  0.41549043  0.56748237  1
  O  O319  1  0.46268394  0.41705194  0.81720647  1
  O  O320  1  0.46262715  0.75058374  0.06774875  1
  O  O321  1  0.46314672  0.74978716  0.31760831  1
  O  O322  1  0.46241039  0.74898622  0.56650876  1
  O  O323  1  0.46225855  0.75049827  0.81666347  1
  O  O324  1  0.96335784  0.08333955  0.06918944  1
  O  O325  1  0.96351369  0.08436305  0.31710100  1
  O  O326  1  0.96373881  0.08433350  0.56851723  1
  O  O327  1  0.96296545  0.08362097  0.81660838  1
  O  O328  1  0.96349404  0.41828123  0.06730075  1
  O  O329  1  0.96270586  0.41665020  0.31843249  1
  O  O330  1  0.96258924  0.41657617  0.56573506  1
  O  O331  1  0.96348611  0.41637941  0.81880307  1
  O  O332  1  0.96369099  0.74933891  0.06680631  1
  O  O333  1  0.96350699  0.74821602  0.31667463  1
  O  O334  1  0.96300180  0.74871151  0.56616736  1
  O  O335  1  0.96356279  0.75012074  0.81876079  1
  O  O336  1  0.21219628  0.08209730  0.05738581  1
  O  O337  1  0.21245181  0.08431368  0.30905907  1
  O  O338  1  0.21313656  0.08342136  0.55800141  1
  O  O339  1  0.21330369  0.08091175  0.80778520  1
  O  O340  1  0.21211022  0.41617142  0.05792691  1
  O  O341  1  0.21272796  0.41536230  0.30762076  1
  O  O342  1  0.21282326  0.41609211  0.55762550  1
  O  O343  1  0.21259486  0.41720940  0.80539739  1
  O  O344  1  0.21325272  0.75071165  0.05544299  1
  O  O345  1  0.21282856  0.75129745  0.30754617  1
  O  O346  1  0.21338571  0.74936254  0.55672481  1
  O  O347  1  0.21321755  0.74972669  0.80605257  1
  O  O348  1  0.71352073  0.08184302  0.05838753  1
  O  O349  1  0.71422969  0.08323580  0.30747127  1
  O  O350  1  0.71391847  0.08466113  0.55616537  1
  O  O351  1  0.71338323  0.08402433  0.80728480  1
  O  O352  1  0.71316070  0.41543867  0.05946165  1
  O  O353  1  0.71339762  0.41591922  0.30854453  1
  O  O354  1  0.71354684  0.41744538  0.55835389  1
  O  O355  1  0.71279967  0.41610009  0.80764464  1
  O  O356  1  0.71324332  0.74868242  0.05810254  1
  O  O357  1  0.71362947  0.74967780  0.30799747  1
  O  O358  1  0.71344997  0.75101815  0.55774654  1
  O  O359  1  0.71392802  0.74906865  0.80817647  1
  O  O360  1  0.28550607  0.25052330  0.19363587  1
  O  O361  1  0.28564933  0.25080000  0.44187519  1
  O  O362  1  0.28721319  0.25020635  0.69092519  1
  O  O363  1  0.28720917  0.25053954  0.94264079  1
  O  O364  1  0.28687101  0.58463254  0.19234490  1
  O  O365  1  0.28585985  0.58379652  0.44247795  1
  O  O366  1  0.28578116  0.58450279  0.69062628  1
  O  O367  1  0.28735180  0.58397243  0.94085129  1
  O  O368  1  0.28663255  0.91473695  0.19279570  1
  O  O369  1  0.28627532  0.91576204  0.44334283  1
  O  O370  1  0.28609672  0.91686487  0.69261726  1
  O  O371  1  0.28636938  0.91561816  0.94189112  1
  O  O372  1  0.78697594  0.24888073  0.19240925  1
  O  O373  1  0.78644967  0.24964904  0.44320529  1
  O  O374  1  0.78731918  0.25035345  0.69127482  1
  O  O375  1  0.78743363  0.24937770  0.94454618  1
  O  O376  1  0.78709789  0.58204126  0.19288805  1
  O  O377  1  0.78702664  0.58381209  0.44273318  1
  O  O378  1  0.78776744  0.58509902  0.69305881  1
  O  O379  1  0.78709243  0.58503155  0.94291458  1
  O  O380  1  0.78638691  0.91693008  0.19322067  1
  O  O381  1  0.78800478  0.91655024  0.44083529  1
  O  O382  1  0.78805792  0.91822866  0.69277609  1
  O  O383  1  0.78739475  0.91809767  0.94271900  1
  O  O384  1  0.22756079  0.25155398  0.05796928  1
  O  O385  1  0.22648757  0.24992734  0.30975551  1
  O  O386  1  0.22743817  0.25105765  0.55820829  1
  O  O387  1  0.22819266  0.24938002  0.80626937  1
  O  O388  1  0.22814502  0.58371529  0.05624441  1
  O  O389  1  0.22730861  0.58454874  0.30762947  1
  O  O390  1  0.22645699  0.58441300  0.55831059  1
  O  O391  1  0.22743296  0.58541211  0.80701427  1
  O  O392  1  0.22759381  0.91474974  0.05802066  1
  O  O393  1  0.22778773  0.91525017  0.30863578  1
  O  O394  1  0.22717294  0.91686431  0.55940854  1
  O  O395  1  0.22686372  0.91671407  0.80877046  1
  O  O396  1  0.72769494  0.24984686  0.06015860  1
  O  O397  1  0.72828151  0.24843340  0.30843839  1
  O  O398  1  0.72706024  0.24950619  0.55920337  1
  O  O399  1  0.72869445  0.24979326  0.80713187  1
  O  O400  1  0.72805517  0.58454946  0.05879372  1
  O  O401  1  0.72818964  0.58151467  0.30869329  1
  O  O402  1  0.72813802  0.58538218  0.55869039  1
  O  O403  1  0.72861150  0.58480917  0.80862706  1
  O  O404  1  0.72846593  0.91810020  0.05853161  1
  O  O405  1  0.72733271  0.91599391  0.30941670  1
  O  O406  1  0.72931460  0.91725720  0.55662643  1
  O  O407  1  0.72857266  0.91828611  0.80833886  1
  O  O408  1  0.27110942  0.08330358  0.19335815  1
  O  O409  1  0.27193041  0.08426939  0.44210918  1
  O  O410  1  0.27206617  0.08129213  0.69181333  1
  O  O411  1  0.27158714  0.08102276  0.94186816  1
  O  O412  1  0.27165210  0.41503024  0.19168156  1
  O  O413  1  0.27137648  0.41574516  0.44140443  1
  O  O414  1  0.27224593  0.41616935  0.68984106  1
  O  O415  1  0.27119424  0.41707877  0.94247896  1
  O  O416  1  0.27174256  0.75190186  0.19149161  1
  O  O417  1  0.27246214  0.75025316  0.44055269  1
  O  O418  1  0.27234850  0.74921444  0.68997240  1
  O  O419  1  0.27261556  0.74936795  0.93935083  1
  O  O420  1  0.77337710  0.08220435  0.19128886  1
  O  O421  1  0.77314007  0.08446988  0.44029327  1
  O  O422  1  0.77253270  0.08580938  0.69157078  1
  O  O423  1  0.77248090  0.08161952  0.94237309  1
  O  O424  1  0.77229416  0.41480108  0.19270988  1
  O  O425  1  0.77236581  0.41794778  0.44243725  1
  O  O426  1  0.77238680  0.41631723  0.69238583  1
  O  O427  1  0.77223605  0.41660602  0.94406923  1
  O  O428  1  0.77236374  0.74842731  0.19207985  1
  O  O429  1  0.77220613  0.75182574  0.44175457  1
  O  O430  1  0.77275745  0.74885385  0.69228492  1
  O  O431  1  0.77257644  0.74904742  0.94252728  1
  O  O432  1  0.02271340  0.08343872  0.18492123  1
  O  O433  1  0.02211614  0.08541462  0.43315491  1
  O  O434  1  0.02282921  0.08412550  0.68464339  1
  O  O435  1  0.02161236  0.08362216  0.93229406  1
  O  O436  1  0.02202576  0.41860976  0.18345749  1
  O  O437  1  0.02252286  0.41607423  0.43394894  1
  O  O438  1  0.02192136  0.41622907  0.68112726  1
  O  O439  1  0.02261306  0.41635113  0.93471189  1
  O  O440  1  0.02226251  0.74863769  0.18284875  1
  O  O441  1  0.02255161  0.74808461  0.43240724  1
  O  O442  1  0.02201246  0.75003170  0.68143948  1
  O  O443  1  0.02335398  0.75100402  0.93425147  1
  O  O444  1  0.52069496  0.08319334  0.18158528  1
  O  O445  1  0.52203567  0.08480362  0.43234602  1
  O  O446  1  0.52194390  0.08205560  0.68282017  1
  O  O447  1  0.52145224  0.08375919  0.93132255  1
  O  O448  1  0.52160995  0.41492330  0.18338314  1
  O  O449  1  0.52091789  0.41643795  0.43169523  1
  O  O450  1  0.52215233  0.41479146  0.68262475  1
  O  O451  1  0.52166114  0.41862182  0.93286631  1
  O  O452  1  0.52199708  0.75121098  0.18301932  1
  O  O453  1  0.52216840  0.74808783  0.43322943  1
  O  O454  1  0.52159654  0.75023401  0.68156759  1
  O  O455  1  0.52159569  0.74978812  0.93160961  1
  O  O456  1  0.47817877  0.25038089  0.06830809  1
  O  O457  1  0.47776999  0.25197097  0.31695994  1
  O  O458  1  0.47782125  0.24788697  0.56709831  1
  O  O459  1  0.47832660  0.25163311  0.81684918  1
  O  O460  1  0.47791467  0.58132931  0.06730629  1
  O  O461  1  0.47866605  0.58345443  0.31875168  1
  O  O462  1  0.47791217  0.58471826  0.56733310  1
  O  O463  1  0.47885210  0.58281718  0.81845014  1
  O  O464  1  0.47864736  0.91658777  0.06866850  1
  O  O465  1  0.47785400  0.91493838  0.31733645  1
  O  O466  1  0.47911386  0.91684116  0.56840064  1
  O  O467  1  0.47820835  0.91892937  0.81677214  1
  O  O468  1  0.97759010  0.25190061  0.06728830  1
  O  O469  1  0.97736997  0.24922930  0.31707991  1
  O  O470  1  0.97688562  0.24904023  0.56584287  1
  O  O471  1  0.97820757  0.24849970  0.81677065  1
  O  O472  1  0.97752010  0.58315026  0.06560437  1
  O  O473  1  0.97706500  0.58341486  0.31515805  1
  O  O474  1  0.97704657  0.58373417  0.56532538  1
  O  O475  1  0.97853809  0.58307064  0.81818231  1
  O  O476  1  0.97800743  0.91497956  0.06713360  1
  O  O477  1  0.97787982  0.91784932  0.31695467  1
  O  O478  1  0.97857580  0.91683093  0.56789477  1
  O  O479  1  0.97767470  0.91808212  0.81695220  1
  O  O480  1  0.07271339  0.31468924  0.07476231  1
  O  O481  1  0.07257365  0.31282914  0.32546831  1
  O  O482  1  0.07129315  0.31317987  0.57301806  1
  O  O483  1  0.07328956  0.31282336  0.82391198  1
  O  O484  1  0.07206135  0.64725596  0.07293069  1
  O  O485  1  0.07229641  0.64652492  0.32298742  1
  O  O486  1  0.07250225  0.64665261  0.57213855  1
  O  O487  1  0.07390398  0.64640001  0.82524968  1
  O  O488  1  0.07314239  0.97926121  0.07490269  1
  O  O489  1  0.07273672  0.98143639  0.32410105  1
  O  O490  1  0.07387612  0.98059942  0.57528229  1
  O  O491  1  0.07265950  0.98106988  0.82442112  1
  O  O492  1  0.57402760  0.31328612  0.07507889  1
  O  O493  1  0.57300950  0.31469938  0.32443528  1
  O  O494  1  0.57319702  0.31189139  0.57417107  1
  O  O495  1  0.57315370  0.31536077  0.82365098  1
  O  O496  1  0.57314129  0.64525998  0.07492382  1
  O  O497  1  0.57440468  0.64658947  0.32503121  1
  O  O498  1  0.57309895  0.64785139  0.57420971  1
  O  O499  1  0.57404349  0.64652224  0.82609469  1
  O  O500  1  0.57394326  0.98005107  0.07626829  1
  O  O501  1  0.57305827  0.97904497  0.32469532  1
  O  O502  1  0.57462977  0.98039879  0.57432647  1
  O  O503  1  0.57344258  0.98195640  0.82374476  1
  O  O504  1  0.42527136  0.01973621  0.17510906  1
  O  O505  1  0.42659273  0.02088687  0.42527628  1
  O  O506  1  0.42709330  0.01863423  0.67520723  1
  O  O507  1  0.42589480  0.02032847  0.92481610  1
  O  O508  1  0.42651641  0.35214999  0.17575577  1
  O  O509  1  0.42524336  0.35320894  0.42532647  1
  O  O510  1  0.42709280  0.35162952  0.67586504  1
  O  O511  1  0.42637877  0.35443147  0.92546143  1
  O  O512  1  0.42676093  0.68703313  0.17540027  1
  O  O513  1  0.42696708  0.68537321  0.42575240  1
  O  O514  1  0.42620249  0.68639469  0.67515656  1
  O  O515  1  0.42586693  0.68706549  0.92466369  1
  O  O516  1  0.92790788  0.01955010  0.17717548  1
  O  O517  1  0.92737885  0.02078834  0.42507701  1
  O  O518  1  0.92826230  0.02009747  0.67647154  1
  O  O519  1  0.92628786  0.02033532  0.92511485  1
  O  O520  1  0.92676109  0.35509373  0.17535283  1
  O  O521  1  0.92739214  0.35285596  0.42675681  1
  O  O522  1  0.92633936  0.35329380  0.67420306  1
  O  O523  1  0.92765311  0.35279424  0.92691787  1
  O  O524  1  0.92743081  0.68506586  0.17506197  1
  O  O525  1  0.92701877  0.68534071  0.42527984  1
  O  O526  1  0.92698522  0.68586286  0.67506312  1
  O  O527  1  0.92903613  0.68637957  0.92731795  1
  O  O528  1  0.17594606  0.01987814  0.20156051  1
  O  O529  1  0.17638278  0.02076834  0.45007092  1
  O  O530  1  0.17704226  0.01784327  0.69897640  1
  O  O531  1  0.17629633  0.01806757  0.94923933  1
  O  O532  1  0.17638786  0.35205500  0.19912120  1
  O  O533  1  0.17633555  0.35247455  0.44925935  1
  O  O534  1  0.17688766  0.35302756  0.69761199  1
  O  O535  1  0.17591906  0.35326148  0.94936146  1
  O  O536  1  0.17669887  0.68787923  0.19935180  1
  O  O537  1  0.17789421  0.68643956  0.44756398  1
  O  O538  1  0.17657009  0.68683359  0.69749947  1
  O  O539  1  0.17760232  0.68619201  0.94769254  1
  O  O540  1  0.67799495  0.01920000  0.19960054  1
  O  O541  1  0.67885389  0.02008201  0.44801713  1
  O  O542  1  0.67778989  0.02098815  0.69881597  1
  O  O543  1  0.67729053  0.01880308  0.94923278  1
  O  O544  1  0.67746162  0.35131873  0.20060675  1
  O  O545  1  0.67689106  0.35437333  0.45055481  1
  O  O546  1  0.67785507  0.35233748  0.69855761  1
  O  O547  1  0.67688185  0.35277986  0.95085064  1
  O  O548  1  0.67751320  0.68497099  0.20019355  1
  O  O549  1  0.67696620  0.68793216  0.44984918  1
  O  O550  1  0.67738735  0.68603090  0.69935737  1
  O  O551  1  0.67751580  0.68539816  0.94924402  1
  O  O552  1  0.32277363  0.31447887  0.05117793  1
  O  O553  1  0.32144735  0.31381508  0.30189421  1
  O  O554  1  0.32246060  0.31435269  0.55029376  1
  O  O555  1  0.32338116  0.31341627  0.79918473  1
  O  O556  1  0.32354914  0.64727370  0.04913736  1
  O  O557  1  0.32213664  0.64834157  0.30103762  1
  O  O558  1  0.32224139  0.64696702  0.55068626  1
  O  O559  1  0.32282567  0.64785920  0.79914488  1
  O  O560  1  0.32276835  0.97860019  0.05029474  1
  O  O561  1  0.32311176  0.97878087  0.30016338  1
  O  O562  1  0.32238345  0.97989953  0.55107106  1
  O  O563  1  0.32208747  0.97976360  0.80151501  1
  O  O564  1  0.82281400  0.31326895  0.05269977  1
  O  O565  1  0.82370966  0.31182434  0.30061530  1
  O  O566  1  0.82110457  0.31430902  0.55122655  1
  O  O567  1  0.82394796  0.31358948  0.79970668  1
  O  O568  1  0.82291435  0.64818974  0.05183549  1
  O  O569  1  0.82371509  0.64500588  0.30064375  1
  O  O570  1  0.82279788  0.64888676  0.55043541  1
  O  O571  1  0.82380362  0.64825092  0.80197883  1
  O  O572  1  0.82387383  0.98109414  0.05161289  1
  O  O573  1  0.82194794  0.97999656  0.30195903  1
  O  O574  1  0.82474166  0.98053114  0.54864069  1
  O  O575  1  0.82320382  0.98227783  0.80109780  1
  O  O576  1  0.42503360  0.14662024  0.17509527  1
  O  O577  1  0.42698437  0.14820940  0.42616028  1
  O  O578  1  0.42634683  0.14570705  0.67523765  1
  O  O579  1  0.42608499  0.14727408  0.92384963  1
  O  O580  1  0.42630414  0.47930157  0.17607999  1
  O  O581  1  0.42556251  0.48000304  0.42491838  1
  O  O582  1  0.42689080  0.47904006  0.67513981  1
  O  O583  1  0.42646615  0.48151412  0.92546587  1
  O  O584  1  0.42681988  0.81430783  0.17642095  1
  O  O585  1  0.42695578  0.81249102  0.42599033  1
  O  O586  1  0.42607507  0.81331309  0.67419547  1
  O  O587  1  0.42655261  0.81413863  0.92466028  1
  O  O588  1  0.92783294  0.14723951  0.17718034  1
  O  O589  1  0.92657914  0.14766685  0.42587115  1
  O  O590  1  0.92770265  0.14759931  0.67679091  1
  O  O591  1  0.92617727  0.14695426  0.92504873  1
  O  O592  1  0.92708840  0.48194866  0.17600826  1
  O  O593  1  0.92782827  0.48027325  0.42693480  1
  O  O594  1  0.92673261  0.47999861  0.67449953  1
  O  O595  1  0.92771944  0.48031265  0.92685477  1
  O  O596  1  0.92664089  0.81190138  0.17514535  1
  O  O597  1  0.92770768  0.81252460  0.42420165  1
  O  O598  1  0.92616176  0.81262413  0.67401195  1
  O  O599  1  0.92778037  0.81389040  0.92673746  1
  O  O600  1  0.07274956  0.18754612  0.07514214  1
  O  O601  1  0.07243249  0.18593883  0.32449162  1
  O  O602  1  0.07232517  0.18580351  0.57340057  1
  O  O603  1  0.07355047  0.18582131  0.82453483  1
  O  O604  1  0.07282378  0.52002832  0.07370831  1
  O  O605  1  0.07167522  0.51929557  0.32330029  1
  O  O606  1  0.07148817  0.51928636  0.57172170  1
  O  O607  1  0.07393107  0.51962947  0.82475544  1
  O  O608  1  0.07321299  0.85215540  0.07447688  1
  O  O609  1  0.07322685  0.85411467  0.32474666  1
  O  O610  1  0.07402192  0.85378054  0.57548990  1
  O  O611  1  0.07295125  0.85393189  0.82422720  1
  O  O612  1  0.57328942  0.18643488  0.07543589  1
  O  O613  1  0.57304744  0.18752677  0.32392813  1
  O  O614  1  0.57281571  0.18477941  0.57386678  1
  O  O615  1  0.57392418  0.18810868  0.82456055  1
  O  O616  1  0.57297857  0.51785921  0.07458479  1
  O  O617  1  0.57401252  0.51986656  0.32612178  1
  O  O618  1  0.57315574  0.52046586  0.57461309  1
  O  O619  1  0.57461918  0.51974753  0.82516328  1
  O  O620  1  0.57433378  0.85318047  0.07500938  1
  O  O621  1  0.57299223  0.85162957  0.32414716  1
  O  O622  1  0.57471717  0.85362419  0.57564309  1
  O  O623  1  0.57341697  0.85463101  0.82444225  1
  O  O624  1  0.32268205  0.18719868  0.05064921  1
  O  O625  1  0.32152249  0.18646186  0.30165601  1
  O  O626  1  0.32280824  0.18740927  0.54952750  1
  O  O627  1  0.32378091  0.18644443  0.79880032  1
  O  O628  1  0.32355882  0.52048862  0.04926136  1
  O  O629  1  0.32295545  0.52119452  0.30005835  1
  O  O630  1  0.32067777  0.51965092  0.55080160  1
  O  O631  1  0.32229271  0.52089607  0.79844156  1
  O  O632  1  0.32272584  0.85161639  0.05018834  1
  O  O633  1  0.32289479  0.85179854  0.30173579  1
  O  O634  1  0.32171767  0.85248856  0.55198272  1
  O  O635  1  0.32149567  0.85261767  0.80074626  1
  O  O636  1  0.82241761  0.18574359  0.05282242  1
  O  O637  1  0.82328503  0.18496740  0.30079105  1
  O  O638  1  0.82270378  0.18686373  0.55159704  1
  O  O639  1  0.82428538  0.18701118  0.79969191  1
  O  O640  1  0.82344567  0.52107222  0.05024500  1
  O  O641  1  0.82290345  0.51785689  0.30125323  1
  O  O642  1  0.82358354  0.52173100  0.55108616  1
  O  O643  1  0.82394868  0.52112856  0.80073216  1
  O  O644  1  0.82351540  0.85415429  0.05033491  1
  O  O645  1  0.82247185  0.85257499  0.30069408  1
  O  O646  1  0.82473303  0.85383035  0.54960373  1
  O  O647  1  0.82412666  0.85496896  0.80062560  1
  O  O648  1  0.17558350  0.14669678  0.20045431  1
  O  O649  1  0.17715342  0.14790189  0.44997759  1
  O  O650  1  0.17677291  0.14486955  0.70042904  1
  O  O651  1  0.17658600  0.14540470  0.94934014  1
  O  O652  1  0.17673608  0.47932111  0.20006830  1
  O  O653  1  0.17610547  0.47941442  0.44968453  1
  O  O654  1  0.17767398  0.48058466  0.69682240  1
  O  O655  1  0.17572557  0.48006912  0.94987153  1
  O  O656  1  0.17647857  0.81479550  0.19880969  1
  O  O657  1  0.17722283  0.81369698  0.44906924  1
  O  O658  1  0.17814716  0.81390895  0.69765898  1
  O  O659  1  0.17793636  0.81351198  0.94660592  1
  O  O660  1  0.67881583  0.14640867  0.19859396  1
  O  O661  1  0.67746196  0.14735235  0.44772072  1
  O  O662  1  0.67689252  0.14798024  0.69911812  1
  O  O663  1  0.67741855  0.14580904  0.95061445  1
  O  O664  1  0.67673526  0.47838857  0.20035002  1
  O  O665  1  0.67755062  0.48154007  0.45007458  1
  O  O666  1  0.67656661  0.47949685  0.70010532  1
  O  O667  1  0.67681715  0.47969826  0.95174810  1
  O  O668  1  0.67695783  0.81212388  0.19975391  1
  O  O669  1  0.67715534  0.81496816  0.44943825  1
  O  O670  1  0.67778184  0.81318454  0.70073471  1
  O  O671  1  0.67715077  0.81250929  0.95039507  1
