# generated using pymatgen
data_Na2MnFe(PO4)2
_symmetry_space_group_name_H-M   'P 1'
_cell_length_a   22.34275260
_cell_length_b   20.09330269
_cell_length_c   19.45057290
_cell_angle_alpha   90.02318557
_cell_angle_beta   89.95043608
_cell_angle_gamma   90.01137811
_symmetry_Int_Tables_number   1
_chemical_formula_structural   Na2MnFe(PO4)2
_chemical_formula_sum   'Na96 Mn48 Fe48 P96 O384'
_cell_volume   8732.13003480
_cell_formula_units_Z   48
loop_
 _symmetry_equiv_pos_site_id
 _symmetry_equiv_pos_as_xyz
  1  'x, y, z'
loop_
 _atom_site_type_symbol
 _atom_site_label
 _atom_site_symmetry_multiplicity
 _atom_site_fract_x
 _atom_site_fract_y
 _atom_site_fract_z
 _atom_site_occupancy
  Na  Na0  1  0.14071638  0.24996748  0.24398807  1
  Na  Na1  1  0.14069612  0.25101288  0.49392210  1
  Na  Na2  1  0.14083327  0.25001455  0.74433230  1
  Na  Na3  1  0.14062977  0.24803965  0.99474671  1
  Na  Na4  1  0.13950641  0.58204172  0.24444164  1
  Na  Na5  1  0.14012050  0.58378050  0.49409990  1
  Na  Na6  1  0.14034598  0.58326939  0.74460389  1
  Na  Na7  1  0.13981526  0.58100244  0.99458611  1
  Na  Na8  1  0.14029512  0.91822507  0.24366058  1
  Na  Na9  1  0.14056728  0.91869351  0.49528976  1
  Na  Na10  1  0.14043444  0.91771487  0.74315857  1
  Na  Na11  1  0.14015952  0.91701640  0.99382400  1
  Na  Na12  1  0.64117610  0.24986873  0.24271766  1
  Na  Na13  1  0.64125862  0.24942384  0.49380927  1
  Na  Na14  1  0.64122396  0.24916962  0.74335916  1
  Na  Na15  1  0.64099729  0.24882554  0.99303786  1
  Na  Na16  1  0.63989882  0.58306733  0.24311609  1
  Na  Na17  1  0.64070839  0.58286772  0.49209036  1
  Na  Na18  1  0.64039990  0.58333619  0.74282209  1
  Na  Na19  1  0.63997825  0.58261847  0.99172443  1
  Na  Na20  1  0.64054996  0.91710932  0.24362591  1
  Na  Na21  1  0.64070303  0.91614968  0.49416755  1
  Na  Na22  1  0.64058703  0.91698992  0.74303830  1
  Na  Na23  1  0.64035191  0.91712315  0.99223789  1
  Na  Na24  1  0.36057992  0.08289250  0.00608284  1
  Na  Na25  1  0.36061990  0.08350517  0.25516489  1
  Na  Na26  1  0.36001201  0.08383245  0.50683087  1
  Na  Na27  1  0.36063861  0.08438893  0.75689224  1
  Na  Na28  1  0.36000281  0.41535787  0.00654773  1
  Na  Na29  1  0.36025952  0.41674750  0.25602547  1
  Na  Na30  1  0.35991873  0.41766379  0.50562935  1
  Na  Na31  1  0.35985748  0.41664004  0.75581181  1
  Na  Na32  1  0.35967669  0.74996741  0.00640523  1
  Na  Na33  1  0.35912285  0.74946564  0.25498265  1
  Na  Na34  1  0.35911492  0.75082079  0.50628652  1
  Na  Na35  1  0.35982711  0.74995872  0.75647330  1
  Na  Na36  1  0.85978459  0.08295257  0.00671614  1
  Na  Na37  1  0.85925018  0.08294993  0.25652100  1
  Na  Na38  1  0.85889197  0.08285077  0.50728467  1
  Na  Na39  1  0.85955278  0.08282359  0.75659522  1
  Na  Na40  1  0.85926956  0.41604232  0.00703561  1
  Na  Na41  1  0.85932629  0.41775525  0.25767100  1
  Na  Na42  1  0.85964885  0.41675249  0.50631542  1
  Na  Na43  1  0.85916999  0.41622690  0.75594518  1
  Na  Na44  1  0.85867673  0.75044743  0.00594996  1
  Na  Na45  1  0.85800474  0.75008580  0.25737005  1
  Na  Na46  1  0.85844749  0.75095035  0.50642182  1
  Na  Na47  1  0.85890487  0.75037384  0.75629809  1
  Na  Na48  1  0.11007325  0.08278542  0.11925609  1
  Na  Na49  1  0.10988599  0.08490223  0.36896281  1
  Na  Na50  1  0.11037605  0.08404471  0.61885938  1
  Na  Na51  1  0.10993386  0.08292135  0.86852353  1
  Na  Na52  1  0.10960427  0.41580694  0.11992240  1
  Na  Na53  1  0.10959365  0.41720629  0.36926750  1
  Na  Na54  1  0.10943013  0.41709044  0.61879197  1
  Na  Na55  1  0.10980775  0.41660792  0.87057901  1
  Na  Na56  1  0.10837224  0.74903603  0.11954430  1
  Na  Na57  1  0.10878224  0.75014772  0.36924774  1
  Na  Na58  1  0.10940757  0.75021665  0.61941475  1
  Na  Na59  1  0.10896793  0.75060344  0.86872562  1
  Na  Na60  1  0.61060431  0.08295795  0.11724598  1
  Na  Na61  1  0.61052046  0.08196734  0.36892507  1
  Na  Na62  1  0.61063230  0.08273948  0.61886309  1
  Na  Na63  1  0.61041361  0.08292879  0.86844451  1
  Na  Na64  1  0.61006029  0.41764526  0.11752236  1
  Na  Na65  1  0.61033500  0.41595562  0.36758198  1
  Na  Na66  1  0.61016091  0.41596766  0.61822957  1
  Na  Na67  1  0.61030783  0.41705475  0.86761804  1
  Na  Na68  1  0.60910614  0.74999263  0.11739419  1
  Na  Na69  1  0.60974138  0.74894476  0.36801912  1
  Na  Na70  1  0.61011140  0.74901580  0.61742898  1
  Na  Na71  1  0.60953158  0.75119051  0.86802178  1
  Na  Na72  1  0.39110747  0.24931518  0.13098311  1
  Na  Na73  1  0.39112144  0.24863427  0.38095795  1
  Na  Na74  1  0.39079347  0.24895053  0.63123042  1
  Na  Na75  1  0.39104219  0.24966094  0.88169218  1
  Na  Na76  1  0.39024166  0.58281806  0.13033736  1
  Na  Na77  1  0.38992063  0.58214439  0.38076605  1
  Na  Na78  1  0.39057135  0.58316436  0.63039356  1
  Na  Na79  1  0.39122958  0.58450727  0.88140261  1
  Na  Na80  1  0.39067763  0.91786666  0.12961716  1
  Na  Na81  1  0.39042909  0.91682555  0.38089074  1
  Na  Na82  1  0.39082620  0.91769205  0.63250318  1
  Na  Na83  1  0.39082565  0.91814805  0.88192935  1
  Na  Na84  1  0.89031762  0.24928592  0.13201718  1
  Na  Na85  1  0.89001509  0.25181348  0.38197316  1
  Na  Na86  1  0.88993017  0.25034996  0.63164074  1
  Na  Na87  1  0.89022467  0.25074285  0.88161829  1
  Na  Na88  1  0.88913605  0.58122124  0.13205772  1
  Na  Na89  1  0.88903127  0.58224176  0.38224784  1
  Na  Na90  1  0.88974667  0.58379582  0.63074131  1
  Na  Na91  1  0.88956186  0.58309933  0.88145364  1
  Na  Na92  1  0.88949520  0.91733618  0.13133031  1
  Na  Na93  1  0.88942757  0.91760619  0.38172565  1
  Na  Na94  1  0.88945479  0.91698594  0.63265468  1
  Na  Na95  1  0.88930546  0.91759815  0.88090509  1
  Mn  Mn96  1  0.24966330  0.83443779  0.37558598  1
  Mn  Mn97  1  0.49903158  0.66546397  0.24820534  1
  Mn  Mn98  1  0.49960464  0.66508340  0.49855398  1
  Mn  Mn99  1  0.25068539  0.33232473  0.12584391  1
  Mn  Mn100  1  0.49968284  0.83308509  0.49977994  1
  Mn  Mn101  1  -0.00121531  0.83399000  0.24972850  1
  Mn  Mn102  1  -0.00015102  0.83405477  0.50009757  1
  Mn  Mn103  1  0.75078312  0.16620870  0.87454980  1
  Mn  Mn104  1  0.50046635  0.33283890  0.24934904  1
  Mn  Mn105  1  0.25060615  0.00184049  0.37451390  1
  Mn  Mn106  1  0.25040721  0.16616291  0.87490190  1
  Mn  Mn107  1  0.50113586  0.00027125  0.24940756  1
  Mn  Mn108  1  0.25007173  0.83411513  0.62542138  1
  Mn  Mn109  1  0.50007225  0.83338719  0.74983170  1
  Mn  Mn110  1  0.25093743  0.33331172  0.37495736  1
  Mn  Mn111  1  0.74898335  0.83432986  0.12570587  1
  Mn  Mn112  1  -0.00032580  0.00066561  0.50054820  1
  Mn  Mn113  1  -0.00145289  0.66627697  0.49993262  1
  Mn  Mn114  1  0.24895497  0.66640792  0.37524793  1
  Mn  Mn115  1  0.00084884  0.16686464  0.75034745  1
  Mn  Mn116  1  0.24996080  0.33325667  0.62464104  1
  Mn  Mn117  1  0.24949765  0.50108324  0.62604623  1
  Mn  Mn118  1  -0.00070704  0.83372513  0.00002937  1
  Mn  Mn119  1  0.74900003  0.66587839  0.12522450  1
  Mn  Mn120  1  0.25096620  0.49849659  0.87462008  1
  Mn  Mn121  1  -0.00058006  0.50035936  0.75008706  1
  Mn  Mn122  1  -0.00017401  0.16700206  0.25085274  1
  Mn  Mn123  1  0.50104677  0.33343948  -0.00028889  1
  Mn  Mn124  1  0.74999481  0.16641403  0.37495258  1
  Mn  Mn125  1  0.50010594  0.50078581  0.74926968  1
  Mn  Mn126  1  0.74998758  0.33368355  0.12462704  1
  Mn  Mn127  1  0.24920068  0.83388607  0.12522448  1
  Mn  Mn128  1  0.00008954  0.33329570  0.00102820  1
  Mn  Mn129  1  0.50107067  0.16521354  0.50068920  1
  Mn  Mn130  1  0.49977122  0.83324929  0.24896390  1
  Mn  Mn131  1  0.24982070  0.66605707  0.87596934  1
  Mn  Mn132  1  -0.00171907  0.66536129  0.24980011  1
  Mn  Mn133  1  0.74949087  0.66631933  0.87457619  1
  Mn  Mn134  1  -0.00140725  0.66572812  -0.00001410  1
  Mn  Mn135  1  0.24880449  0.66527283  0.12606189  1
  Mn  Mn136  1  0.49984718  0.33290686  0.74995808  1
  Mn  Mn137  1  0.74974236  0.49977841  0.62429807  1
  Mn  Mn138  1  0.00071320  0.00063996  -0.00001407  1
  Mn  Mn139  1  0.24957797  0.83420495  0.87544787  1
  Mn  Mn140  1  -0.00024026  0.33389697  0.75086591  1
  Mn  Mn141  1  0.50092557  0.33301207  0.49974138  1
  Mn  Mn142  1  0.00038855  0.66729994  0.75061268  1
  Mn  Mn143  1  -0.00089872  0.16808656  0.49972185  1
  Fe  Fe144  1  0.50043047  0.49915191  0.49928273  1
  Fe  Fe145  1  0.75014190  0.49912867  0.87400306  1
  Fe  Fe146  1  0.50030856  -0.00025467  0.50047373  1
  Fe  Fe147  1  0.75044439  0.16631711  0.12468272  1
  Fe  Fe148  1  0.74958447  0.50022509  0.37525245  1
  Fe  Fe149  1  0.75038945  0.33286745  0.87466953  1
  Fe  Fe150  1  0.25006972  0.66732762  0.62509953  1
  Fe  Fe151  1  0.49980081  0.50062235  -0.00100148  1
  Fe  Fe152  1  0.74963834  0.83328797  0.62465627  1
  Fe  Fe153  1  -0.00005430  0.33346945  0.25072576  1
  Fe  Fe154  1  -0.00004247  0.49978082  0.50032863  1
  Fe  Fe155  1  0.49989899  0.66718264  -0.00066549  1
  Fe  Fe156  1  0.25013847  0.49870822  0.12506922  1
  Fe  Fe157  1  0.25094018  0.16707059  0.62526249  1
  Fe  Fe158  1  0.75018730  -0.00058671  0.62517236  1
  Fe  Fe159  1  0.25069534  0.16604004  0.12421648  1
  Fe  Fe160  1  -0.00038111  0.49899336  0.25114326  1
  Fe  Fe161  1  0.74913051  0.66693042  0.37497619  1
  Fe  Fe162  1  0.50074128  0.00071346  -0.00035524  1
  Fe  Fe163  1  0.50030277  0.49952725  0.24865650  1
  Fe  Fe164  1  0.74956330  0.49983349  0.12493666  1
  Fe  Fe165  1  0.74949986  0.83372633  0.37576578  1
  Fe  Fe166  1  0.74993457  0.33327808  0.62482145  1
  Fe  Fe167  1  0.74964957  0.83360447  0.87459304  1
  Fe  Fe168  1  0.50059842  0.66716033  0.75001147  1
  Fe  Fe169  1  0.50096212  0.16611697  0.24975350  1
  Fe  Fe170  1  0.74978044  0.00004015  0.87470350  1
  Fe  Fe171  1  0.25010213  0.00062278  0.87468453  1
  Fe  Fe172  1  0.50100738  0.16668478  -0.00001875  1
  Fe  Fe173  1  0.74996631  0.66686604  0.62428957  1
  Fe  Fe174  1  0.75061220  0.16647909  0.62491655  1
  Fe  Fe175  1  0.00011143  0.33409540  0.50033179  1
  Fe  Fe176  1  0.25022563  0.33236653  0.87541073  1
  Fe  Fe177  1  0.25047137  0.00044578  0.12512443  1
  Fe  Fe178  1  0.75010825  -0.00001232  0.12503443  1
  Fe  Fe179  1  0.50143030  0.16614517  0.75053162  1
  Fe  Fe180  1  -0.00010441  0.16653286  0.00064606  1
  Fe  Fe181  1  0.50062225  0.00027705  0.75106929  1
  Fe  Fe182  1  -0.00060352  0.49942990  0.00112998  1
  Fe  Fe183  1  0.49991148  0.83383973  -0.00111332  1
  Fe  Fe184  1  -0.00072813  0.83392616  0.75000390  1
  Fe  Fe185  1  0.25013912  0.50017779  0.37535447  1
  Fe  Fe186  1  0.75021956  0.33323030  0.37474687  1
  Fe  Fe187  1  0.74984380  -0.00036759  0.37606873  1
  Fe  Fe188  1  -0.00044933  0.00063427  0.75026542  1
  Fe  Fe189  1  0.25078218  0.00116226  0.62496447  1
  Fe  Fe190  1  -0.00030285  0.00054692  0.25017581  1
  Fe  Fe191  1  0.25043957  0.16689264  0.37487370  1
  P  P192  1  0.04219231  0.24858010  0.10348117  1
  P  P193  1  0.04223834  0.25226513  0.35330568  1
  P  P194  1  0.04234064  0.25156212  0.60252964  1
  P  P195  1  0.04309367  0.25017226  0.85429243  1
  P  P196  1  0.04125020  0.58122141  0.10346532  1
  P  P197  1  0.04115925  0.58158815  0.35320560  1
  P  P198  1  0.04206926  0.58258743  0.60244613  1
  P  P199  1  0.04262885  0.58293106  0.85407341  1
  P  P200  1  0.04239068  0.91708421  0.10372769  1
  P  P201  1  0.04207424  0.91847421  0.35243005  1
  P  P202  1  0.04227339  0.91716447  0.60450250  1
  P  P203  1  0.04118224  0.91708705  0.85137638  1
  P  P204  1  0.54297969  0.24878643  0.10250951  1
  P  P205  1  0.54314699  0.24815381  0.35201247  1
  P  P206  1  0.54345839  0.24919753  0.60362939  1
  P  P207  1  0.54289037  0.24863944  0.85273376  1
  P  P208  1  0.54148758  0.58331585  0.10050669  1
  P  P209  1  0.54183388  0.58119650  0.35143903  1
  P  P210  1  0.54293898  0.58166430  0.60156176  1
  P  P211  1  0.54245085  0.58523739  0.85260291  1
  P  P212  1  0.54168565  0.91665867  0.10058076  1
  P  P213  1  0.54281478  0.91641773  0.35310818  1
  P  P214  1  0.54218063  0.91773326  0.60293561  1
  P  P215  1  0.54222272  0.91779703  0.85310975  1
  P  P216  1  0.45910325  0.08471170  0.14647090  1
  P  P217  1  0.45826416  0.08179529  0.39763966  1
  P  P218  1  0.45956910  0.08297267  0.64904531  1
  P  P219  1  0.45973437  0.08395566  0.89787678  1
  P  P220  1  0.45819645  0.41762990  0.14639142  1
  P  P221  1  0.45847003  0.41721551  0.39655068  1
  P  P222  1  0.45739918  0.41658565  0.64617263  1
  P  P223  1  0.45822413  0.41782835  0.89732372  1
  P  P224  1  0.45699017  0.75011153  0.14480306  1
  P  P225  1  0.45659328  0.74942803  0.39615920  1
  P  P226  1  0.45814056  0.74853995  0.64735827  1
  P  P227  1  0.45839969  0.75041790  0.89765163  1
  P  P228  1  0.95761975  0.08274963  0.14767406  1
  P  P229  1  0.95672084  0.08391031  0.39673980  1
  P  P230  1  0.95761289  0.08299579  0.64796877  1
  P  P231  1  0.95787354  0.08464936  0.89745186  1
  P  P232  1  0.95816654  0.41617926  0.14905701  1
  P  P233  1  0.95852590  0.41680512  0.39830470  1
  P  P234  1  0.95692230  0.41673652  0.64631857  1
  P  P235  1  0.95717928  0.41775637  0.89854550  1
  P  P236  1  0.95540695  0.74955034  0.14708667  1
  P  P237  1  0.95604856  0.75028472  0.39698532  1
  P  P238  1  0.95726210  0.75118250  0.64791200  1
  P  P239  1  0.95651795  0.75063556  0.89645596  1
  P  P240  1  0.20894124  0.08429728  0.22664792  1
  P  P241  1  0.20806610  0.08548978  0.47819843  1
  P  P242  1  0.20918988  0.08383204  0.72679725  1
  P  P243  1  0.20808273  0.08188311  0.97797530  1
  P  P244  1  0.20822838  0.41737513  0.22825539  1
  P  P245  1  0.20802183  0.41791479  0.47743024  1
  P  P246  1  0.20705838  0.41591898  0.72872188  1
  P  P247  1  0.20837408  0.41440328  0.97818678  1
  P  P248  1  0.20605541  0.75006668  0.22855934  1
  P  P249  1  0.20672790  0.75066965  0.47894283  1
  P  P250  1  0.20773718  0.74927543  0.72781863  1
  P  P251  1  0.20650560  0.74993360  0.97862656  1
  P  P252  1  0.70884079  0.08313913  0.22664060  1
  P  P253  1  0.70835729  0.08201086  0.47854517  1
  P  P254  1  0.70938920  0.08283561  0.72659583  1
  P  P255  1  0.70849309  0.08208887  0.97765161  1
  P  P256  1  0.70771963  0.41805828  0.22768418  1
  P  P257  1  0.70884237  0.41603659  0.47650634  1
  P  P258  1  0.70793273  0.41518981  0.72758258  1
  P  P259  1  0.70875730  0.41618045  0.97627098  1
  P  P260  1  0.70648736  0.74992859  0.22881384  1
  P  P261  1  0.70822085  0.74995793  0.47709815  1
  P  P262  1  0.70861663  0.74997263  0.72621952  1
  P  P263  1  0.70749515  0.75117701  0.97682761  1
  P  P264  1  0.29288181  0.24840827  0.02224561  1
  P  P265  1  0.29299192  0.24834716  0.27208618  1
  P  P266  1  0.29279706  0.24884633  0.52218684  1
  P  P267  1  0.29296530  0.25076909  0.77244061  1
  P  P268  1  0.29196015  0.58122201  0.02298998  1
  P  P269  1  0.29182452  0.58159070  0.27231833  1
  P  P270  1  0.29197045  0.58473113  0.52251091  1
  P  P271  1  0.29319123  0.58373984  0.77178996  1
  P  P272  1  0.29178217  0.91838706  0.02223492  1
  P  P273  1  0.29286416  0.91752660  0.27140276  1
  P  P274  1  0.29278411  0.91886523  0.52301948  1
  P  P275  1  0.29248391  0.91863701  0.77235545  1
  P  P276  1  0.79230436  0.24882795  0.02238114  1
  P  P277  1  0.79231348  0.25105656  0.27230146  1
  P  P278  1  0.79137334  0.25035933  0.52313389  1
  P  P279  1  0.79246293  0.25091796  0.77168118  1
  P  P280  1  0.79134765  0.58149940  0.02208340  1
  P  P281  1  0.79045552  0.58342625  0.27360797  1
  P  P282  1  0.79153080  0.58475587  0.52155228  1
  P  P283  1  0.79190231  0.58209348  0.77194899  1
  P  P284  1  0.79155228  0.91796189  0.02202173  1
  P  P285  1  0.79059126  0.91724515  0.27385167  1
  P  P286  1  0.79126801  0.91657084  0.52319955  1
  P  P287  1  0.79066911  0.91693434  0.77269598  1
  O  O288  1  0.03688725  0.24925138  0.18339917  1
  O  O289  1  0.03693204  0.25263846  0.43324276  1
  O  O290  1  0.03772479  0.25118001  0.68256572  1
  O  O291  1  0.03770515  0.24948547  0.93422862  1
  O  O292  1  0.03593505  0.58091718  0.18343643  1
  O  O293  1  0.03598933  0.58168827  0.43315222  1
  O  O294  1  0.03720626  0.58312928  0.68244469  1
  O  O295  1  0.03726396  0.58251023  0.93403384  1
  O  O296  1  0.03702720  0.91777059  0.18362841  1
  O  O297  1  0.03706762  0.91815786  0.43245576  1
  O  O298  1  0.03681156  0.91718991  0.68442149  1
  O  O299  1  0.03664705  0.91715788  0.93143425  1
  O  O300  1  0.53755508  0.24861426  0.18243905  1
  O  O301  1  0.53813616  0.24854507  0.43198613  1
  O  O302  1  0.53809391  0.24895471  0.68354624  1
  O  O303  1  0.53769586  0.24871059  0.93270734  1
  O  O304  1  0.53651783  0.58262373  0.18048415  1
  O  O305  1  0.53678131  0.58107640  0.43137783  1
  O  O306  1  0.53823589  0.58255837  0.68149096  1
  O  O307  1  0.53679152  0.58512004  0.93244303  1
  O  O308  1  0.53694509  0.91678337  0.18057524  1
  O  O309  1  0.53763167  0.91674366  0.43307312  1
  O  O310  1  0.53691581  0.91782559  0.68291383  1
  O  O311  1  0.53691281  0.91738302  0.93296201  1
  O  O312  1  0.46444547  0.08497435  0.06661052  1
  O  O313  1  0.46340624  0.08255281  0.31771247  1
  O  O314  1  0.46439555  0.08211745  0.56909877  1
  O  O315  1  0.46474770  0.08365201  0.81798682  1
  O  O316  1  0.46363290  0.41772909  0.06647435  1
  O  O317  1  0.46383343  0.41714363  0.31657583  1
  O  O318  1  0.46271137  0.41663245  0.56620818  1
  O  O319  1  0.46313923  0.41760521  0.81736296  1
  O  O320  1  0.46254325  0.75026147  0.06488710  1
  O  O321  1  0.46146535  0.74948503  0.31614675  1
  O  O322  1  0.46303522  0.74867569  0.56740700  1
  O  O323  1  0.46369165  0.74977573  0.81766934  1
  O  O324  1  0.96315326  0.08344053  0.06773592  1
  O  O325  1  0.96199656  0.08332434  0.31679710  1
  O  O326  1  0.96215237  0.08341205  0.56796960  1
  O  O327  1  0.96312612  0.08391188  0.81748517  1
  O  O328  1  0.96324604  0.41660729  0.06909765  1
  O  O329  1  0.96362314  0.41651546  0.31838242  1
  O  O330  1  0.96223908  0.41664295  0.56638208  1
  O  O331  1  0.96205599  0.41745073  0.81858217  1
  O  O332  1  0.96048927  0.74956353  0.06708995  1
  O  O333  1  0.96084146  0.75015340  0.31701287  1
  O  O334  1  0.96213065  0.75092063  0.56791037  1
  O  O335  1  0.96214559  0.75118778  0.81651096  1
  O  O336  1  0.21337921  0.08200879  0.05782277  1
  O  O337  1  0.21388179  0.08497113  0.30660024  1
  O  O338  1  0.21340922  0.08515326  0.55807203  1
  O  O339  1  0.21403917  0.08315418  0.80676712  1
  O  O340  1  0.21379306  0.41499585  0.05813781  1
  O  O341  1  0.21366838  0.41757188  0.30815081  1
  O  O342  1  0.21283444  0.41762739  0.55737324  1
  O  O343  1  0.21248246  0.41497781  0.80863844  1
  O  O344  1  0.21137120  0.75009575  0.05860783  1
  O  O345  1  0.21120909  0.75020442  0.30853506  1
  O  O346  1  0.21221106  0.75031581  0.55890313  1
  O  O347  1  0.21285723  0.74954340  0.80777496  1
  O  O348  1  0.71362902  0.08229851  0.05749501  1
  O  O349  1  0.71353083  0.08348343  0.30658202  1
  O  O350  1  0.71403231  0.08235980  0.55833606  1
  O  O351  1  0.71435361  0.08277208  0.80654915  1
  O  O352  1  0.71366143  0.41671536  0.05624837  1
  O  O353  1  0.71281135  0.41781221  0.30750885  1
  O  O354  1  0.71358264  0.41603633  0.55644918  1
  O  O355  1  0.71353665  0.41543180  0.80742442  1
  O  O356  1  0.71199385  0.75121772  0.05677014  1
  O  O357  1  0.71175175  0.74963892  0.30867064  1
  O  O358  1  0.71337496  0.74998500  0.55697376  1
  O  O359  1  0.71343121  0.75031009  0.80616113  1
  O  O360  1  0.28772462  0.24819754  0.19214295  1
  O  O361  1  0.28760791  0.24867216  0.44223816  1
  O  O362  1  0.28790319  0.25015722  0.69249956  1
  O  O363  1  0.28758432  0.24928477  0.94234879  1
  O  O364  1  0.28656523  0.58109252  0.19238735  1
  O  O365  1  0.28651367  0.58389144  0.44257529  1
  O  O366  1  0.28787603  0.58468149  0.69185829  1
  O  O367  1  0.28711476  0.58139280  0.94302944  1
  O  O368  1  0.28750988  0.91772637  0.19147582  1
  O  O369  1  0.28776387  0.91875829  0.44306869  1
  O  O370  1  0.28730108  0.91870885  0.69241341  1
  O  O371  1  0.28646972  0.91864004  0.94228146  1
  O  O372  1  0.78722151  0.25064041  0.19242519  1
  O  O373  1  0.78634162  0.25023008  0.44317749  1
  O  O374  1  0.78705356  0.25085619  0.69183179  1
  O  O375  1  0.78760510  0.24922545  0.94245495  1
  O  O376  1  0.78573982  0.58266669  0.19363983  1
  O  O377  1  0.78588272  0.58479887  0.44172346  1
  O  O378  1  0.78685106  0.58250784  0.69204201  1
  O  O379  1  0.78632077  0.58133834  0.94214009  1
  O  O380  1  0.78581486  0.91743474  0.19391065  1
  O  O381  1  0.78633158  0.91630607  0.44336910  1
  O  O382  1  0.78575423  0.91677426  0.69285052  1
  O  O383  1  0.78618617  0.91770308  0.94218616  1
  O  O384  1  0.22867569  0.24802454  0.05818158  1
  O  O385  1  0.22873888  0.24869108  0.30795448  1
  O  O386  1  0.22851628  0.24831004  0.55799376  1
  O  O387  1  0.22863819  0.25103614  0.80819024  1
  O  O388  1  0.22756586  0.58064025  0.05842042  1
  O  O389  1  0.22753385  0.58141567  0.30811773  1
  O  O390  1  0.22776190  0.58561983  0.55854545  1
  O  O391  1  0.22882372  0.58270066  0.80708083  1
  O  O392  1  0.22759767  0.91863960  0.05814913  1
  O  O393  1  0.22854065  0.91791608  0.30690396  1
  O  O394  1  0.22844082  0.91881310  0.55848751  1
  O  O395  1  0.22812547  0.91887561  0.80803431  1
  O  O396  1  0.72799458  0.24913413  0.05787885  1
  O  O397  1  0.72804936  0.25136218  0.30814153  1
  O  O398  1  0.72734606  0.25041963  0.55941037  1
  O  O399  1  0.72839590  0.25108266  0.80809462  1
  O  O400  1  0.72703220  0.58129440  0.05782884  1
  O  O401  1  0.72629388  0.58403176  0.30947503  1
  O  O402  1  0.72750135  0.58487482  0.55797882  1
  O  O403  1  0.72764901  0.58179819  0.80772111  1
  O  O404  1  0.72736651  0.91883229  0.05822980  1
  O  O405  1  0.72647924  0.91722716  0.30987708  1
  O  O406  1  0.72717075  0.91720306  0.55946487  1
  O  O407  1  0.72664815  0.91763870  0.80907387  1
  O  O408  1  0.27313485  0.08422024  0.19056831  1
  O  O409  1  0.27235092  0.08587142  0.44217998  1
  O  O410  1  0.27344167  0.08438311  0.69094017  1
  O  O411  1  0.27234284  0.08154665  0.94195735  1
  O  O412  1  0.27244791  0.41741049  0.19229700  1
  O  O413  1  0.27241876  0.41817036  0.44202412  1
  O  O414  1  0.27137098  0.41672718  0.69330157  1
  O  O415  1  0.27259979  0.41384863  0.94214563  1
  O  O416  1  0.27045614  0.74972844  0.19339716  1
  O  O417  1  0.27102562  0.75040162  0.44342367  1
  O  O418  1  0.27204631  0.74908373  0.69210853  1
  O  O419  1  0.27105299  0.75032091  0.94379962  1
  O  O420  1  0.77299568  0.08238636  0.19059538  1
  O  O421  1  0.77232149  0.08185729  0.44196223  1
  O  O422  1  0.77342149  0.08218726  0.69039235  1
  O  O423  1  0.77264769  0.08159277  0.94151447  1
  O  O424  1  0.77199479  0.41822493  0.19175549  1
  O  O425  1  0.77295452  0.41565288  0.44045846  1
  O  O426  1  0.77195868  0.41513879  0.69109219  1
  O  O427  1  0.77292226  0.41562512  0.94028363  1
  O  O428  1  0.77069499  0.75003016  0.19296496  1
  O  O429  1  0.77215461  0.74950891  0.44050964  1
  O  O430  1  0.77272487  0.74951406  0.69013477  1
  O  O431  1  0.77183162  0.75082896  0.94145032  1
  O  O432  1  0.02180144  0.08219184  0.18364343  1
  O  O433  1  0.02108625  0.08440011  0.43190008  1
  O  O434  1  0.02211605  0.08231353  0.68288370  1
  O  O435  1  0.02218139  0.08554915  0.93308291  1
  O  O436  1  0.02236929  0.41612981  0.18494442  1
  O  O437  1  0.02260599  0.41705156  0.43457822  1
  O  O438  1  0.02123134  0.41684994  0.68178523  1
  O  O439  1  0.02156030  0.41798626  0.93387816  1
  O  O440  1  0.01986215  0.74943497  0.18195802  1
  O  O441  1  0.02055067  0.74990706  0.43176887  1
  O  O442  1  0.02164765  0.75192866  0.68316778  1
  O  O443  1  0.02072828  0.74982169  0.93204030  1
  O  O444  1  0.52327353  0.08490556  0.18254478  1
  O  O445  1  0.52262519  0.08083632  0.43321389  1
  O  O446  1  0.52381614  0.08346081  0.68479732  1
  O  O447  1  0.52378752  0.08424768  0.93400040  1
  O  O448  1  0.52240347  0.41746406  0.18226224  1
  O  O449  1  0.52273096  0.41750685  0.43237371  1
  O  O450  1  0.52169942  0.41647634  0.68149206  1
  O  O451  1  0.52262110  0.41795138  0.93247408  1
  O  O452  1  0.52116305  0.74951764  0.18061091  1
  O  O453  1  0.52107594  0.74929615  0.43101440  1
  O  O454  1  0.52252935  0.74891317  0.68269668  1
  O  O455  1  0.52251993  0.75082077  0.93369088  1
  O  O456  1  0.47880468  0.24900363  0.06663792  1
  O  O457  1  0.47881180  0.24793377  0.31656959  1
  O  O458  1  0.47920749  0.24931594  0.56815939  1
  O  O459  1  0.47861157  0.24803491  0.81711651  1
  O  O460  1  0.47727494  0.58383451  0.06473264  1
  O  O461  1  0.47753858  0.58085594  0.31578914  1
  O  O462  1  0.47847252  0.58079248  0.56627900  1
  O  O463  1  0.47834541  0.58549400  0.81638953  1
  O  O464  1  0.47753257  0.91631655  0.06486195  1
  O  O465  1  0.47854370  0.91691828  0.31767942  1
  O  O466  1  0.47795821  0.91793757  0.56713469  1
  O  O467  1  0.47810958  0.91779472  0.81705167  1
  O  O468  1  0.97801472  0.24838425  0.06752293  1
  O  O469  1  0.97795790  0.25196440  0.31770437  1
  O  O470  1  0.97783156  0.25214458  0.56752982  1
  O  O471  1  0.97874065  0.24996115  0.81899584  1
  O  O472  1  0.97695157  0.58101899  0.06778847  1
  O  O473  1  0.97685516  0.58118088  0.31758965  1
  O  O474  1  0.97762282  0.58165825  0.56726796  1
  O  O475  1  0.97826788  0.58369031  0.81886405  1
  O  O476  1  0.97809115  0.91747173  0.06838065  1
  O  O477  1  0.97759013  0.91908550  0.31727744  1
  O  O478  1  0.97795698  0.91709442  0.56897739  1
  O  O479  1  0.97683902  0.91714555  0.81601420  1
  O  O480  1  0.07353711  0.31206114  0.07561849  1
  O  O481  1  0.07311849  0.31545516  0.32423068  1
  O  O482  1  0.07329374  0.31492985  0.57399499  1
  O  O483  1  0.07367613  0.31407559  0.82644444  1
  O  O484  1  0.07200275  0.64516204  0.07584198  1
  O  O485  1  0.07187697  0.64544851  0.32524541  1
  O  O486  1  0.07248339  0.64648528  0.57437193  1
  O  O487  1  0.07398840  0.64640042  0.82604228  1
  O  O488  1  0.07415578  0.97994568  0.07501986  1
  O  O489  1  0.07304718  0.98197229  0.32416935  1
  O  O490  1  0.07343927  0.98056876  0.57600884  1
  O  O491  1  0.07178030  0.98099728  0.82333780  1
  O  O492  1  0.57410431  0.31264297  0.07508471  1
  O  O493  1  0.57402251  0.31179673  0.32392170  1
  O  O494  1  0.57452780  0.31268335  0.57538927  1
  O  O495  1  0.57341476  0.31265786  0.82498224  1
  O  O496  1  0.57257504  0.64704889  0.07280997  1
  O  O497  1  0.57237737  0.64521772  0.32360168  1
  O  O498  1  0.57360299  0.64524947  0.57291106  1
  O  O499  1  0.57339167  0.64865140  0.82374175  1
  O  O500  1  0.57196655  0.98077899  0.07252757  1
  O  O501  1  0.57447373  0.97944351  0.32458678  1
  O  O502  1  0.57326105  0.98095033  0.57423598  1
  O  O503  1  0.57304378  0.98137929  0.82458691  1
  O  O504  1  0.42810349  0.02086566  0.17408150  1
  O  O505  1  0.42717174  0.01845132  0.42615022  1
  O  O506  1  0.42889013  0.01953224  0.67812768  1
  O  O507  1  0.42924902  0.02008844  0.92662636  1
  O  O508  1  0.42710046  0.35386168  0.17408855  1
  O  O509  1  0.42772108  0.35321981  0.42418070  1
  O  O510  1  0.42633937  0.35304765  0.67446039  1
  O  O511  1  0.42726732  0.35416324  0.92522307  1
  O  O512  1  0.42542666  0.68682797  0.17304557  1
  O  O513  1  0.42553591  0.68591833  0.42419347  1
  O  O514  1  0.42785005  0.68485213  0.67600505  1
  O  O515  1  0.42750080  0.68697464  0.92630749  1
  O  O516  1  0.92665042  0.01916635  0.17578314  1
  O  O517  1  0.92551731  0.02081834  0.42553275  1
  O  O518  1  0.92665976  0.01959285  0.67652791  1
  O  O519  1  0.92709432  0.02093446  0.92555445  1
  O  O520  1  0.92757838  0.35218514  0.17695282  1
  O  O521  1  0.92774262  0.35316457  0.42689942  1
  O  O522  1  0.92590988  0.35340796  0.67516625  1
  O  O523  1  0.92636924  0.35403087  0.92652628  1
  O  O524  1  0.92434605  0.68603425  0.17514086  1
  O  O525  1  0.92485570  0.68692034  0.42519501  1
  O  O526  1  0.92671079  0.68722565  0.67565884  1
  O  O527  1  0.92494151  0.68723455  0.92419854  1
  O  O528  1  0.17846841  0.02016928  0.19893755  1
  O  O529  1  0.17708473  0.02184029  0.44987071  1
  O  O530  1  0.17857867  0.02025480  0.69800986  1
  O  O531  1  0.17676178  0.01887796  0.94884961  1
  O  O532  1  0.17740879  0.35333402  0.20087529  1
  O  O533  1  0.17732635  0.35410102  0.44946786  1
  O  O534  1  0.17606407  0.35276903  0.69964819  1
  O  O535  1  0.17747907  0.35069339  0.95025919  1
  O  O536  1  0.17491793  0.68643530  0.20079741  1
  O  O537  1  0.17508462  0.68763896  0.45049958  1
  O  O538  1  0.17689499  0.68576611  0.69951078  1
  O  O539  1  0.17577181  0.68616509  0.95081523  1
  O  O540  1  0.67721578  0.01992057  0.19860683  1
  O  O541  1  0.67736717  0.01856695  0.44995366  1
  O  O542  1  0.67754042  0.01979854  0.69850681  1
  O  O543  1  0.67722514  0.01898310  0.94866069  1
  O  O544  1  0.67664921  0.35453013  0.19925336  1
  O  O545  1  0.67749793  0.35276396  0.44813900  1
  O  O546  1  0.67693583  0.35179157  0.69895322  1
  O  O547  1  0.67776676  0.35236045  0.94857251  1
  O  O548  1  0.67535561  0.68665327  0.19989100  1
  O  O549  1  0.67657557  0.68678013  0.44873919  1
  O  O550  1  0.67764011  0.68631360  0.69810382  1
  O  O551  1  0.67625379  0.68764928  0.94898091  1
  O  O552  1  0.32417968  0.31163778  0.05075540  1
  O  O553  1  0.32410289  0.31219463  0.29965005  1
  O  O554  1  0.32339039  0.31301709  0.54955600  1
  O  O555  1  0.32365832  0.31434047  0.80092965  1
  O  O556  1  0.32246895  0.64520395  0.05076959  1
  O  O557  1  0.32256296  0.64568709  0.29963455  1
  O  O558  1  0.32303497  0.64833464  0.55047685  1
  O  O559  1  0.32399414  0.64698765  0.80089545  1
  O  O560  1  0.32301673  0.98155519  0.05102764  1
  O  O561  1  0.32439230  0.98077656  0.29950933  1
  O  O562  1  0.32337640  0.98248990  0.55155103  1
  O  O563  1  0.32362858  0.98183312  0.80108155  1
  O  O564  1  0.82397287  0.31194363  0.05060322  1
  O  O565  1  0.82297114  0.31470994  0.30081603  1
  O  O566  1  0.82256592  0.31379875  0.55120324  1
  O  O567  1  0.82344805  0.31416057  0.80074085  1
  O  O568  1  0.82196220  0.64553548  0.04981663  1
  O  O569  1  0.82172498  0.64696079  0.30139445  1
  O  O570  1  0.82264010  0.64800112  0.55046387  1
  O  O571  1  0.82302591  0.64557245  0.80014681  1
  O  O572  1  0.82306576  0.98098437  0.05087853  1
  O  O573  1  0.82167368  0.98067621  0.30230892  1
  O  O574  1  0.82281205  0.97980635  0.55153912  1
  O  O575  1  0.82235393  0.98008484  0.80105717  1
  O  O576  1  0.42813481  0.14785038  0.17581727  1
  O  O577  1  0.42764976  0.14549547  0.42615061  1
  O  O578  1  0.42871405  0.14684493  0.67680967  1
  O  O579  1  0.42837117  0.14727612  0.92628327  1
  O  O580  1  0.42730305  0.48095754  0.17510602  1
  O  O581  1  0.42729184  0.48035629  0.42532346  1
  O  O582  1  0.42615150  0.47987923  0.67449917  1
  O  O583  1  0.42751911  0.48148692  0.92563747  1
  O  O584  1  0.42610656  0.81365069  0.17330465  1
  O  O585  1  0.42576470  0.81291775  0.42468559  1
  O  O586  1  0.42687541  0.81212041  0.67514943  1
  O  O587  1  0.42742255  0.81432363  0.92514975  1
  O  O588  1  0.92651472  0.14623435  0.17582605  1
  O  O589  1  0.92567018  0.14768711  0.42447650  1
  O  O590  1  0.92703060  0.14681776  0.67597081  1
  O  O591  1  0.92683445  0.14806637  0.92591372  1
  O  O592  1  0.92704604  0.47948795  0.17777191  1
  O  O593  1  0.92742380  0.48034836  0.42660169  1
  O  O594  1  0.92565484  0.48016898  0.67459970  1
  O  O595  1  0.92639775  0.48123126  0.92701289  1
  O  O596  1  0.92450463  0.81315699  0.17523207  1
  O  O597  1  0.92553882  0.81405371  0.42522960  1
  O  O598  1  0.92615785  0.81453040  0.67639530  1
  O  O599  1  0.92565108  0.81416504  0.92483405  1
  O  O600  1  0.07275955  0.18486629  0.07508958  1
  O  O601  1  0.07334628  0.18846875  0.32575145  1
  O  O602  1  0.07282054  0.18767279  0.57443864  1
  O  O603  1  0.07469341  0.18722130  0.82548535  1
  O  O604  1  0.07233831  0.51793989  0.07475899  1
  O  O605  1  0.07236774  0.51834108  0.32463240  1
  O  O606  1  0.07318016  0.51917521  0.57422237  1
  O  O607  1  0.07358725  0.51956540  0.82553743  1
  O  O608  1  0.07288876  0.85307840  0.07588309  1
  O  O609  1  0.07265401  0.85457375  0.32456205  1
  O  O610  1  0.07348527  0.85384398  0.57589541  1
  O  O611  1  0.07194664  0.85337938  0.82326480  1
  O  O612  1  0.57395967  0.18559120  0.07361476  1
  O  O613  1  0.57395132  0.18452500  0.32384561  1
  O  O614  1  0.57470295  0.18587318  0.57532434  1
  O  O615  1  0.57422353  0.18547153  0.82411023  1
  O  O616  1  0.57209496  0.51967512  0.07168695  1
  O  O617  1  0.57308230  0.51808175  0.32263168  1
  O  O618  1  0.57377530  0.51806855  0.57312501  1
  O  O619  1  0.57358330  0.52160172  0.82465672  1
  O  O620  1  0.57290306  0.85324821  0.07250432  1
  O  O621  1  0.57330677  0.85259767  0.32484636  1
  O  O622  1  0.57296118  0.85376266  0.57528013  1
  O  O623  1  0.57355562  0.85445490  0.82465534  1
  O  O624  1  0.32358473  0.18461785  0.05014479  1
  O  O625  1  0.32383050  0.18509549  0.30083590  1
  O  O626  1  0.32417426  0.18595245  0.55124531  1
  O  O627  1  0.32399398  0.18725488  0.80066163  1
  O  O628  1  0.32297399  0.51777517  0.05118607  1
  O  O629  1  0.32295573  0.51851565  0.30133478  1
  O  O630  1  0.32284245  0.52109914  0.55058738  1
  O  O631  1  0.32463582  0.52013242  0.79915343  1
  O  O632  1  0.32265234  0.85443332  0.04957209  1
  O  O633  1  0.32354514  0.85381139  0.29961479  1
  O  O634  1  0.32396343  0.85529361  0.55076445  1
  O  O635  1  0.32313133  0.85462266  0.80002202  1
  O  O636  1  0.82226064  0.18484681  0.05115668  1
  O  O637  1  0.82337281  0.18758112  0.30045689  1
  O  O638  1  0.82180281  0.18631605  0.55133783  1
  O  O639  1  0.82359984  0.18725714  0.79957853  1
  O  O640  1  0.82236272  0.51837498  0.05116234  1
  O  O641  1  0.82086782  0.51967273  0.30253486  1
  O  O642  1  0.82265169  0.52102385  0.54917059  1
  O  O643  1  0.82259155  0.51844229  0.80037511  1
  O  O644  1  0.82210943  0.85412761  0.05034256  1
  O  O645  1  0.82104234  0.85331142  0.30216254  1
  O  O646  1  0.82146468  0.85266953  0.55207399  1
  O  O647  1  0.82068964  0.85283075  0.80144449  1
  O  O648  1  0.17781132  0.14753747  0.19795601  1
  O  O649  1  0.17700277  0.14869953  0.44928415  1
  O  O650  1  0.17823757  0.14764159  0.69916372  1
  O  O651  1  0.17729105  0.14565499  0.94984768  1
  O  O652  1  0.17704942  0.48038194  0.19929863  1
  O  O653  1  0.17721657  0.48142082  0.44916996  1
  O  O654  1  0.17572472  0.47959068  0.70135976  1
  O  O655  1  0.17737869  0.47793077  0.95008657  1
  O  O656  1  0.17515192  0.81354915  0.20043586  1
  O  O657  1  0.17603280  0.81458706  0.45117038  1
  O  O658  1  0.17682337  0.81310229  0.70030607  1
  O  O659  1  0.17538735  0.81326891  0.95014675  1
  O  O660  1  0.67908989  0.14733978  0.19783370  1
  O  O661  1  0.67711464  0.14549396  0.45036920  1
  O  O662  1  0.67951046  0.14717814  0.69848681  1
  O  O663  1  0.67769837  0.14578228  0.94933405  1
  O  O664  1  0.67685120  0.48137471  0.19860998  1
  O  O665  1  0.67866389  0.48021498  0.44833121  1
  O  O666  1  0.67669071  0.47873232  0.69954497  1
  O  O667  1  0.67817462  0.47977464  0.94751129  1
  O  O668  1  0.67528381  0.81338933  0.20062265  1
  O  O669  1  0.67795880  0.81404941  0.44875501  1
  O  O670  1  0.67803880  0.81373639  0.69771493  1
  O  O671  1  0.67734369  0.81489677  0.94785688  1
