# generated using pymatgen
data_Na2MnFe(PO4)2
_symmetry_space_group_name_H-M   'P 1'
_cell_length_a   22.34244441
_cell_length_b   20.09418785
_cell_length_c   19.45091723
_cell_angle_alpha   89.98771442
_cell_angle_beta   90.01627708
_cell_angle_gamma   90.02974441
_symmetry_Int_Tables_number   1
_chemical_formula_structural   Na2MnFe(PO4)2
_chemical_formula_sum   'Na96 Mn48 Fe48 P96 O384'
_cell_volume   8732.55126042
_cell_formula_units_Z   48
loop_
 _symmetry_equiv_pos_site_id
 _symmetry_equiv_pos_as_xyz
  1  'x, y, z'
loop_
 _atom_site_type_symbol
 _atom_site_label
 _atom_site_symmetry_multiplicity
 _atom_site_fract_x
 _atom_site_fract_y
 _atom_site_fract_z
 _atom_site_occupancy
  Na  Na0  1  0.13972711  0.25091124  0.24450125  1
  Na  Na1  1  0.13977315  0.24916640  0.49381222  1
  Na  Na2  1  0.14031489  0.24861371  0.74258229  1
  Na  Na3  1  0.14018209  0.25077718  0.99336853  1
  Na  Na4  1  0.13967232  0.58428617  0.24333033  1
  Na  Na5  1  0.14016340  0.58370687  0.49286218  1
  Na  Na6  1  0.13976415  0.58376675  0.74430488  1
  Na  Na7  1  0.14009004  0.58390216  0.99306131  1
  Na  Na8  1  0.13972938  0.91414901  0.24387271  1
  Na  Na9  1  0.14001593  0.91504689  0.49394365  1
  Na  Na10  1  0.14010361  0.91637744  0.74238190  1
  Na  Na11  1  0.13951338  0.91423404  0.99312878  1
  Na  Na12  1  0.64045293  0.25144400  0.24262791  1
  Na  Na13  1  0.64060619  0.25068094  0.49299989  1
  Na  Na14  1  0.64057888  0.25041855  0.74528169  1
  Na  Na15  1  0.64005604  0.25008121  0.99426074  1
  Na  Na16  1  0.64055203  0.58338059  0.24298566  1
  Na  Na17  1  0.64063492  0.58298269  0.49458807  1
  Na  Na18  1  0.64054678  0.58466215  0.74342131  1
  Na  Na19  1  0.64032202  0.58297976  0.99371391  1
  Na  Na20  1  0.64071175  0.91896843  0.24263088  1
  Na  Na21  1  0.64069031  0.91635480  0.49400364  1
  Na  Na22  1  0.64068146  0.91627239  0.74446630  1
  Na  Na23  1  0.64088008  0.91703182  0.99460958  1
  Na  Na24  1  0.35960860  0.08205322  0.00695033  1
  Na  Na25  1  0.35914645  0.08248674  0.25580063  1
  Na  Na26  1  0.35889759  0.08218340  0.50630914  1
  Na  Na27  1  0.35933112  0.08200408  0.75593689  1
  Na  Na28  1  0.36012807  0.41827748  0.00694412  1
  Na  Na29  1  0.36014973  0.41762363  0.25639667  1
  Na  Na30  1  0.35951746  0.41543405  0.50531134  1
  Na  Na31  1  0.35960695  0.41763617  0.75726006  1
  Na  Na32  1  0.35948479  0.74926531  0.00486945  1
  Na  Na33  1  0.35924988  0.74982736  0.25449067  1
  Na  Na34  1  0.35923374  0.75018103  0.50541923  1
  Na  Na35  1  0.35938324  0.74902944  0.75673104  1
  Na  Na36  1  0.85969254  0.08312444  0.00645366  1
  Na  Na37  1  0.85932337  0.08470657  0.25607775  1
  Na  Na38  1  0.85963107  0.08272683  0.50640790  1
  Na  Na39  1  0.86051580  0.08352976  0.75638038  1
  Na  Na40  1  0.86061336  0.41616961  0.00754448  1
  Na  Na41  1  0.86029744  0.41741691  0.25713577  1
  Na  Na42  1  0.85986469  0.41724910  0.50623912  1
  Na  Na43  1  0.85995815  0.41802881  0.75705587  1
  Na  Na44  1  0.85991356  0.74989364  0.00747049  1
  Na  Na45  1  0.86022046  0.75087481  0.25751655  1
  Na  Na46  1  0.86012656  0.74924573  0.50723608  1
  Na  Na47  1  0.86010918  0.75080786  0.75586844  1
  Na  Na48  1  0.10900895  0.08283932  0.11875017  1
  Na  Na49  1  0.10905381  0.08361114  0.36936869  1
  Na  Na50  1  0.10965830  0.08357536  0.61795094  1
  Na  Na51  1  0.10913344  0.08224560  0.86720406  1
  Na  Na52  1  0.10933256  0.41679158  0.11929178  1
  Na  Na53  1  0.10901408  0.41664841  0.36847340  1
  Na  Na54  1  0.10915965  0.41721411  0.61870420  1
  Na  Na55  1  0.10944312  0.41627389  0.86886182  1
  Na  Na56  1  0.10983183  0.74859261  0.11831217  1
  Na  Na57  1  0.10966585  0.74895823  0.36780868  1
  Na  Na58  1  0.10977995  0.75087936  0.61804064  1
  Na  Na59  1  0.10971848  0.75028812  0.86800769  1
  Na  Na60  1  0.60953657  0.08423846  0.11793635  1
  Na  Na61  1  0.60958005  0.08421460  0.36765944  1
  Na  Na62  1  0.60977251  0.08346368  0.61924755  1
  Na  Na63  1  0.61000898  0.08390730  0.87087150  1
  Na  Na64  1  0.60939807  0.41703489  0.11926474  1
  Na  Na65  1  0.61034194  0.41701529  0.36751323  1
  Na  Na66  1  0.61014788  0.41794668  0.61948359  1
  Na  Na67  1  0.60943951  0.41766956  0.86955912  1
  Na  Na68  1  0.60992939  0.75036523  0.11778919  1
  Na  Na69  1  0.60981652  0.75068030  0.36865750  1
  Na  Na70  1  0.61029416  0.74920468  0.61924498  1
  Na  Na71  1  0.61047635  0.74832671  0.86872221  1
  Na  Na72  1  0.39043808  0.25040722  0.13125922  1
  Na  Na73  1  0.39017779  0.25065348  0.38082527  1
  Na  Na74  1  0.39032781  0.25039259  0.63142286  1
  Na  Na75  1  0.39092498  0.24995641  0.88226962  1
  Na  Na76  1  0.39022468  0.58323074  0.13004461  1
  Na  Na77  1  0.39034549  0.58317967  0.37987850  1
  Na  Na78  1  0.39024801  0.58319218  0.63155702  1
  Na  Na79  1  0.39018127  0.58246717  0.88175081  1
  Na  Na80  1  0.38998922  0.91631537  0.13043656  1
  Na  Na81  1  0.39004578  0.91657214  0.38042204  1
  Na  Na82  1  0.38980902  0.91532913  0.63196531  1
  Na  Na83  1  0.39028370  0.91562405  0.88114190  1
  Na  Na84  1  0.89067966  0.25105065  0.13168601  1
  Na  Na85  1  0.89036964  0.25104603  0.38158440  1
  Na  Na86  1  0.89070711  0.25044412  0.63104513  1
  Na  Na87  1  0.89081063  0.24972630  0.88159667  1
  Na  Na88  1  0.89087120  0.58229829  0.13291905  1
  Na  Na89  1  0.89042683  0.58310320  0.38190471  1
  Na  Na90  1  0.89045151  0.58467857  0.63185217  1
  Na  Na91  1  0.89032039  0.58323601  0.88196401  1
  Na  Na92  1  0.88996911  0.91533710  0.13234141  1
  Na  Na93  1  0.88999868  0.91637714  0.38166721  1
  Na  Na94  1  0.89076511  0.91677353  0.63175418  1
  Na  Na95  1  0.89079260  0.91648819  0.88081827  1
  Mn  Mn96  1  -0.00009552  0.33357045  0.75005224  1
  Mn  Mn97  1  0.75018456  0.33309352  0.87592505  1
  Mn  Mn98  1  -0.00017131  -0.00001106  0.49995009  1
  Mn  Mn99  1  0.00009108  0.50078634  0.49976182  1
  Mn  Mn100  1  0.50014195  0.33417620  0.50012789  1
  Mn  Mn101  1  0.24931678  -0.00165633  0.87501608  1
  Mn  Mn102  1  0.25087696  0.33396634  0.87438836  1
  Mn  Mn103  1  0.75005728  0.16659098  0.62436735  1
  Mn  Mn104  1  0.50021989  0.83305486  -0.00041706  1
  Mn  Mn105  1  -0.00072607  -0.00116139  0.24986893  1
  Mn  Mn106  1  0.74982491  0.83447303  0.37560650  1
  Mn  Mn107  1  0.75030946  0.33400447  0.12502808  1
  Mn  Mn108  1  0.49954808  0.16696025  0.24948715  1
  Mn  Mn109  1  0.24950439  0.16653485  0.12548396  1
  Mn  Mn110  1  0.25022413  0.66710429  0.62445269  1
  Mn  Mn111  1  0.49977965  0.00004697  0.49993642  1
  Mn  Mn112  1  0.74982386  0.16692032  0.37461055  1
  Mn  Mn113  1  0.50014004  -0.00012729  0.75059758  1
  Mn  Mn114  1  0.49981021  0.83418177  0.24848181  1
  Mn  Mn115  1  0.24916471  0.33222305  0.62591243  1
  Mn  Mn116  1  0.50013902  0.16681821  0.75095072  1
  Mn  Mn117  1  -0.00026020  0.16703404  -0.00040107  1
  Mn  Mn118  1  0.50007036  0.66632445  0.49953037  1
  Mn  Mn119  1  0.49981523  0.66597197  0.24899227  1
  Mn  Mn120  1  0.24993574  0.49978343  0.62434173  1
  Mn  Mn121  1  0.74962773  0.66651484  0.37564971  1
  Mn  Mn122  1  0.50111612  0.83183838  0.75103259  1
  Mn  Mn123  1  0.75043436  0.83265115  0.87522811  1
  Mn  Mn124  1  0.24918600  0.16649689  0.37546870  1
  Mn  Mn125  1  0.49996371  0.50001201  0.49970677  1
  Mn  Mn126  1  0.24871473  -0.00197189  0.12546121  1
  Mn  Mn127  1  0.24963664  0.50022101  0.37461193  1
  Mn  Mn128  1  0.24928014  0.50159955  0.12583340  1
  Mn  Mn129  1  0.24984381  0.16581511  0.87493127  1
  Mn  Mn130  1  0.75045928  0.66654582  0.12608574  1
  Mn  Mn131  1  0.75067121  0.33428973  0.62488254  1
  Mn  Mn132  1  0.50068501  0.33433113  0.75101774  1
  Mn  Mn133  1  0.75028077  0.50109921  0.87558105  1
  Mn  Mn134  1  0.49994901  0.83315318  0.49994848  1
  Mn  Mn135  1  -0.00026818  -0.00126470  -0.00088723  1
  Mn  Mn136  1  0.74961306  -0.00068907  0.62580181  1
  Mn  Mn137  1  0.49988031  0.16732218  0.49947742  1
  Mn  Mn138  1  -0.00035090  0.16760072  0.24950297  1
  Mn  Mn139  1  0.75075860  0.00070638  0.87523691  1
  Mn  Mn140  1  0.24889076  -0.00172901  0.37556112  1
  Mn  Mn141  1  -0.00028168  0.66620610  0.00030280  1
  Mn  Mn142  1  0.24995749  0.33418681  0.12442476  1
  Mn  Mn143  1  -0.00015448  0.66712308  0.75063249  1
  Fe  Fe144  1  0.00018824  0.33358391  0.25045742  1
  Fe  Fe145  1  0.75066776  0.16743502  0.12552157  1
  Fe  Fe146  1  0.75019409  0.33434849  0.37462758  1
  Fe  Fe147  1  0.24971645  0.83194590  0.12406772  1
  Fe  Fe148  1  0.49951035  0.16679941  0.00094559  1
  Fe  Fe149  1  0.24946975  0.50081060  0.87527402  1
  Fe  Fe150  1  0.00019551  0.83203561  0.25069594  1
  Fe  Fe151  1  -0.00012731  0.83272041  -0.00008339  1
  Fe  Fe152  1  0.49976271  0.33372858  0.24917007  1
  Fe  Fe153  1  0.49992055  0.50020790  0.75070205  1
  Fe  Fe154  1  0.25002313  0.66707114  0.37419157  1
  Fe  Fe155  1  0.75015311  0.50024812  0.62528729  1
  Fe  Fe156  1  0.49982908  0.66573951  0.75005900  1
  Fe  Fe157  1  0.00020671  -0.00012034  0.74910175  1
  Fe  Fe158  1  0.25058389  0.16573762  0.62461272  1
  Fe  Fe159  1  0.50030246  0.00004385  0.00017819  1
  Fe  Fe160  1  0.24982086  0.66724883  0.12365787  1
  Fe  Fe161  1  0.00029314  0.16689375  0.74980043  1
  Fe  Fe162  1  -0.00011236  0.83308661  0.50019160  1
  Fe  Fe163  1  0.75025899  0.66671000  0.62516739  1
  Fe  Fe164  1  0.49975137  0.00062861  0.24952562  1
  Fe  Fe165  1  -0.00019193  0.33377498  0.50010648  1
  Fe  Fe166  1  -0.00059851  0.16711658  0.49996399  1
  Fe  Fe167  1  0.50027950  0.49995932  0.00002374  1
  Fe  Fe168  1  0.00055546  0.66711541  0.49996768  1
  Fe  Fe169  1  0.75026337  0.00086626  0.12479643  1
  Fe  Fe170  1  0.75005552  0.83378817  0.12571319  1
  Fe  Fe171  1  -0.00015419  0.83342880  0.74940258  1
  Fe  Fe172  1  0.75053512  0.66715700  0.87500948  1
  Fe  Fe173  1  0.25014626  0.83230930  0.37446013  1
  Fe  Fe174  1  0.49978567  0.33392262  0.00029582  1
  Fe  Fe175  1  0.75071759  0.83307039  0.62484294  1
  Fe  Fe176  1  0.75045693  0.50061028  0.37549641  1
  Fe  Fe177  1  0.24954783  0.83271580  0.62477865  1
  Fe  Fe178  1  -0.00023658  0.66637157  0.25018263  1
  Fe  Fe179  1  0.75010009  0.00068834  0.37421804  1
  Fe  Fe180  1  0.25006261  0.83273625  0.87428384  1
  Fe  Fe181  1  0.50042444  0.49981046  0.24902453  1
  Fe  Fe182  1  0.75039470  0.50031162  0.12543762  1
  Fe  Fe183  1  -0.00020127  0.50016162  0.75019978  1
  Fe  Fe184  1  0.25005787  -0.00120107  0.62478647  1
  Fe  Fe185  1  0.24959222  0.66699347  0.87440846  1
  Fe  Fe186  1  0.24968238  0.33283699  0.37537752  1
  Fe  Fe187  1  0.50035845  0.66569587  -0.00074238  1
  Fe  Fe188  1  0.00064806  0.33360668  -0.00005665  1
  Fe  Fe189  1  0.00013831  0.49974551  0.25058136  1
  Fe  Fe190  1  0.75040466  0.16694196  0.87551628  1
  Fe  Fe191  1  0.00003864  0.49938076  0.00120508  1
  P  P192  1  0.04222998  0.25173353  0.10261634  1
  P  P193  1  0.04164234  0.25136823  0.35341478  1
  P  P194  1  0.04097401  0.25020278  0.60179140  1
  P  P195  1  0.04262117  0.24920772  0.85220749  1
  P  P196  1  0.04204410  0.58192128  0.10330515  1
  P  P197  1  0.04101696  0.58373715  0.35182096  1
  P  P198  1  0.04234949  0.58504374  0.60259987  1
  P  P199  1  0.04151258  0.58168626  0.85322060  1
  P  P200  1  0.04155721  0.91423422  0.10266787  1
  P  P201  1  0.04161695  0.91466609  0.35296038  1
  P  P202  1  0.04157693  0.91559966  0.60286334  1
  P  P203  1  0.04136981  0.91609526  0.85096767  1
  P  P204  1  0.54089496  0.25101933  0.10202708  1
  P  P205  1  0.54247046  0.25169705  0.35153171  1
  P  P206  1  0.54332813  0.25060037  0.60330287  1
  P  P207  1  0.54269946  0.25043629  0.85499011  1
  P  P208  1  0.54165321  0.58288571  0.10152271  1
  P  P209  1  0.54271382  0.58202578  0.35154636  1
  P  P210  1  0.54253509  0.58325547  0.60397046  1
  P  P211  1  0.54159771  0.58311505  0.85239390  1
  P  P212  1  0.54217334  0.91818668  0.10249709  1
  P  P213  1  0.54237873  0.91829506  0.35164268  1
  P  P214  1  0.54308223  0.91615963  0.60340362  1
  P  P215  1  0.54321419  0.91672008  0.85423864  1
  P  P216  1  0.45755342  0.08228233  0.14657856  1
  P  P217  1  0.45677628  0.08352731  0.39612122  1
  P  P218  1  0.45701837  0.08343951  0.64718261  1
  P  P219  1  0.45849418  0.08319655  0.89913616  1
  P  P220  1  0.45834461  0.41695190  0.14727780  1
  P  P221  1  0.45745832  0.41678179  0.39544871  1
  P  P222  1  0.45745849  0.41810554  0.64831451  1
  P  P223  1  0.45855204  0.41728167  0.89858820  1
  P  P224  1  0.45763757  0.74930112  0.14529135  1
  P  P225  1  0.45710251  0.75004712  0.39612486  1
  P  P226  1  0.45777104  0.74831341  0.64799987  1
  P  P227  1  0.45843334  0.74756608  0.89693229  1
  P  P228  1  0.95706191  0.08301559  0.14669474  1
  P  P229  1  0.95756564  0.08453947  0.39763690  1
  P  P230  1  0.95904354  0.08417283  0.64782301  1
  P  P231  1  0.95757506  0.08304096  0.89573709  1
  P  P232  1  0.95906548  0.41659813  0.14847104  1
  P  P233  1  0.95808242  0.41591672  0.39726831  1
  P  P234  1  0.95779880  0.41820780  0.64751033  1
  P  P235  1  0.95854101  0.41690489  0.89863989  1
  P  P236  1  0.95860514  0.74952921  0.14857756  1
  P  P237  1  0.95865459  0.74975579  0.39806226  1
  P  P238  1  0.95827511  0.75117345  0.64692826  1
  P  P239  1  0.95786107  0.75118492  0.89746440  1
  P  P240  1  0.20607562  0.08243148  0.22842318  1
  P  P241  1  0.20691196  0.08228181  0.47920357  1
  P  P242  1  0.20859443  0.08245153  0.72600577  1
  P  P243  1  0.20638585  0.08218086  0.97801557  1
  P  P244  1  0.20726374  0.41680369  0.22878543  1
  P  P245  1  0.20733927  0.41518530  0.47727866  1
  P  P246  1  0.20702601  0.41737756  0.72867508  1
  P  P247  1  0.20790792  0.41833564  0.97723325  1
  P  P248  1  0.20834853  0.74943009  0.22652882  1
  P  P249  1  0.20807348  0.74987906  0.47620652  1
  P  P250  1  0.20771853  0.75089108  0.72767322  1
  P  P251  1  0.20842283  0.74986764  0.97634458  1
  P  P252  1  0.70871355  0.08409532  0.22654106  1
  P  P253  1  0.70760760  0.08198936  0.47695788  1
  P  P254  1  0.70748345  0.08399168  0.72885316  1
  P  P255  1  0.70852487  0.08495720  0.97867470  1
  P  P256  1  0.70842344  0.41849839  0.22820889  1
  P  P257  1  0.70883426  0.41756966  0.47683661  1
  P  P258  1  0.70827913  0.41832457  0.72792387  1
  P  P259  1  0.70773134  0.41709639  0.97896034  1
  P  P260  1  0.70773346  0.75173773  0.22778511  1
  P  P261  1  0.70762204  0.75001298  0.47919128  1
  P  P262  1  0.70920642  0.75012467  0.72687478  1
  P  P263  1  0.70825753  0.74856444  0.97815517  1
  P  P264  1  0.29283779  0.25000282  0.02185076  1
  P  P265  1  0.29195254  0.25102290  0.27272385  1
  P  P266  1  0.29181809  0.24881483  0.52245649  1
  P  P267  1  0.29305154  0.24894781  0.77152286  1
  P  P268  1  0.29152829  0.58478123  0.02134932  1
  P  P269  1  0.29179528  0.58534364  0.27173147  1
  P  P270  1  0.29264172  0.58369095  0.52090872  1
  P  P271  1  0.29109751  0.58349725  0.77336456  1
  P  P272  1  0.29169033  0.91414786  0.02195039  1
  P  P273  1  0.29163139  0.91422066  0.27202115  1
  P  P274  1  0.29120989  0.91517004  0.52304475  1
  P  P275  1  0.29201298  0.91482277  0.77157380  1
  P  P276  1  0.79252232  0.24875363  0.02259651  1
  P  P277  1  0.79205709  0.25174853  0.27237726  1
  P  P278  1  0.79271990  0.25073427  0.52100770  1
  P  P279  1  0.79267613  0.24922556  0.77285093  1
  P  P280  1  0.79291293  0.58248612  0.02311793  1
  P  P281  1  0.79232444  0.58254726  0.27281063  1
  P  P282  1  0.79172586  0.58287296  0.52361968  1
  P  P283  1  0.79235590  0.58546803  0.77209189  1
  P  P284  1  0.79152429  0.91657859  0.02388782  1
  P  P285  1  0.79212322  0.91858239  0.27180365  1
  P  P286  1  0.79265596  0.91579301  0.52257240  1
  P  P287  1  0.79305341  0.91621046  0.77192880  1
  O  O288  1  0.03684892  0.25198279  0.18256435  1
  O  O289  1  0.03600755  0.25102051  0.43326414  1
  O  O290  1  0.03602906  0.24958025  0.68176049  1
  O  O291  1  0.03751559  0.24983335  0.93211460  1
  O  O292  1  0.03699582  0.58243247  0.18316535  1
  O  O293  1  0.03658104  0.58436083  0.43178337  1
  O  O294  1  0.03704011  0.58447517  0.68248929  1
  O  O295  1  0.03598070  0.58143583  0.93311376  1
  O  O296  1  0.03619438  0.91399690  0.18257577  1
  O  O297  1  0.03628032  0.91474537  0.43287966  1
  O  O298  1  0.03625289  0.91570663  0.68272595  1
  O  O299  1  0.03665594  0.91604552  0.93094259  1
  O  O300  1  0.53575584  0.25119901  0.18196920  1
  O  O301  1  0.53771699  0.25131507  0.43155271  1
  O  O302  1  0.53846160  0.25056556  0.68332684  1
  O  O303  1  0.53692371  0.25059756  0.93485170  1
  O  O304  1  0.53666122  0.58221690  0.18144592  1
  O  O305  1  0.53767719  0.58238384  0.43151334  1
  O  O306  1  0.53730923  0.58333184  0.68390204  1
  O  O307  1  0.53658982  0.58339564  0.93231348  1
  O  O308  1  0.53676190  0.91848349  0.18240123  1
  O  O309  1  0.53721767  0.91773339  0.43163825  1
  O  O310  1  0.53837779  0.91590497  0.68343175  1
  O  O311  1  0.53777052  0.91709196  0.93417568  1
  O  O312  1  0.46311539  0.08244460  0.06671806  1
  O  O313  1  0.46183728  0.08322811  0.31611992  1
  O  O314  1  0.46189230  0.08347330  0.56716164  1
  O  O315  1  0.46334626  0.08349937  0.81915354  1
  O  O316  1  0.46363261  0.41674780  0.06740449  1
  O  O317  1  0.46256184  0.41658141  0.31550910  1
  O  O318  1  0.46225488  0.41777881  0.56830181  1
  O  O319  1  0.46355614  0.41798043  0.81867424  1
  O  O320  1  0.46336525  0.74871737  0.06542128  1
  O  O321  1  0.46209868  0.75030530  0.31615809  1
  O  O322  1  0.46244377  0.74885243  0.56796291  1
  O  O323  1  0.46389060  0.74723136  0.81700761  1
  O  O324  1  0.96221361  0.08296773  0.06675586  1
  O  O325  1  0.96247020  0.08425800  0.31768398  1
  O  O326  1  0.96395285  0.08436990  0.56782770  1
  O  O327  1  0.96306300  0.08324403  0.81584391  1
  O  O328  1  0.96427559  0.41688866  0.06859900  1
  O  O329  1  0.96344930  0.41587216  0.31744855  1
  O  O330  1  0.96305395  0.41769714  0.56763217  1
  O  O331  1  0.96330795  0.41736756  0.81865762  1
  O  O332  1  0.96319945  0.74942035  0.06862590  1
  O  O333  1  0.96379443  0.74978293  0.31814363  1
  O  O334  1  0.96363040  0.75073738  0.56707905  1
  O  O335  1  0.96312285  0.75131869  0.81755383  1
  O  O336  1  0.21112725  0.08209419  0.05802044  1
  O  O337  1  0.21122443  0.08242423  0.30841151  1
  O  O338  1  0.21262798  0.08244515  0.55905490  1
  O  O339  1  0.21305601  0.08208656  0.80603559  1
  O  O340  1  0.21278001  0.41838064  0.05723298  1
  O  O341  1  0.21258151  0.41593901  0.30870117  1
  O  O342  1  0.21237368  0.41539048  0.55727015  1
  O  O343  1  0.21251042  0.41806473  0.80860385  1
  O  O344  1  0.21339249  0.74959050  0.05624554  1
  O  O345  1  0.21367168  0.74933936  0.30638605  1
  O  O346  1  0.21316669  0.75014493  0.55614783  1
  O  O347  1  0.21292671  0.75076717  0.80751308  1
  O  O348  1  0.71400324  0.08495757  0.05853466  1
  O  O349  1  0.71340978  0.08331172  0.30652518  1
  O  O350  1  0.71255453  0.08220031  0.55693288  1
  O  O351  1  0.71298842  0.08454151  0.80878237  1
  O  O352  1  0.71291584  0.41755991  0.05888879  1
  O  O353  1  0.71375256  0.41827682  0.30808104  1
  O  O354  1  0.71378480  0.41773400  0.55684937  1
  O  O355  1  0.71345516  0.41796121  0.80785233  1
  O  O356  1  0.71325545  0.74898845  0.05804777  1
  O  O357  1  0.71259287  0.75151912  0.30774408  1
  O  O358  1  0.71310704  0.74997737  0.55906973  1
  O  O359  1  0.71410333  0.74939500  0.80688165  1
  O  O360  1  0.28692030  0.25081928  0.19273502  1
  O  O361  1  0.28629874  0.24973879  0.44251513  1
  O  O362  1  0.28771144  0.24837817  0.69156566  1
  O  O363  1  0.28806486  0.25002415  0.94185699  1
  O  O364  1  0.28645861  0.58565395  0.19178647  1
  O  O365  1  0.28722995  0.58424927  0.44099326  1
  O  O366  1  0.28679533  0.58339909  0.69333878  1
  O  O367  1  0.28613583  0.58396048  0.94148626  1
  O  O368  1  0.28623430  0.91411993  0.19209403  1
  O  O369  1  0.28643884  0.91500617  0.44307570  1
  O  O370  1  0.28685960  0.91521729  0.69168903  1
  O  O371  1  0.28665993  0.91429172  0.94197479  1
  O  O372  1  0.78714944  0.25125857  0.19240659  1
  O  O373  1  0.78727178  0.25128886  0.44108032  1
  O  O374  1  0.78761865  0.24985999  0.69284225  1
  O  O375  1  0.78724520  0.24855658  0.94266064  1
  O  O376  1  0.78731120  0.58251679  0.19286922  1
  O  O377  1  0.78675745  0.58270778  0.44366109  1
  O  O378  1  0.78697926  0.58504213  0.69224714  1
  O  O379  1  0.78791625  0.58327565  0.94319228  1
  O  O380  1  0.78671232  0.91810554  0.19193304  1
  O  O381  1  0.78757255  0.91673840  0.44264630  1
  O  O382  1  0.78775617  0.91551582  0.69202651  1
  O  O383  1  0.78680132  0.91656236  0.94390931  1
  O  O384  1  0.22825806  0.25012302  0.05651577  1
  O  O385  1  0.22757207  0.25122829  0.30809995  1
  O  O386  1  0.22761665  0.24779005  0.55837748  1
  O  O387  1  0.22864474  0.24968097  0.80666665  1
  O  O388  1  0.22739270  0.58522858  0.05749809  1
  O  O389  1  0.22761534  0.58511773  0.30765455  1
  O  O390  1  0.22830780  0.58366500  0.55628324  1
  O  O391  1  0.22678683  0.58323361  0.80869971  1
  O  O392  1  0.22734907  0.91371132  0.05749277  1
  O  O393  1  0.22742153  0.91370217  0.30795849  1
  O  O394  1  0.22703084  0.91482339  0.55895604  1
  O  O395  1  0.22771926  0.91424244  0.80738146  1
  O  O396  1  0.72830123  0.24886322  0.05840107  1
  O  O397  1  0.72780165  0.25160344  0.30791995  1
  O  O398  1  0.72848879  0.25071646  0.55660026  1
  O  O399  1  0.72834253  0.24899694  0.80831911  1
  O  O400  1  0.72854232  0.58215489  0.05864424  1
  O  O401  1  0.72799715  0.58198446  0.30832296  1
  O  O402  1  0.72762787  0.58247614  0.55967675  1
  O  O403  1  0.72820273  0.58571218  0.80827400  1
  O  O404  1  0.72736141  0.91622622  0.05961635  1
  O  O405  1  0.72794645  0.91887468  0.30788736  1
  O  O406  1  0.72836724  0.91488321  0.55827263  1
  O  O407  1  0.72882841  0.91660998  0.80746080  1
  O  O408  1  0.27050602  0.08214399  0.19336442  1
  O  O409  1  0.27098291  0.08228506  0.44311851  1
  O  O410  1  0.27284336  0.08305070  0.69047051  1
  O  O411  1  0.27098011  0.08193963  0.94338136  1
  O  O412  1  0.27153945  0.41752833  0.19333538  1
  O  O413  1  0.27162821  0.41548523  0.44179114  1
  O  O414  1  0.27134712  0.41660955  0.69331420  1
  O  O415  1  0.27232084  0.41865252  0.94201848  1
  O  O416  1  0.27232367  0.74959378  0.18983998  1
  O  O417  1  0.27230033  0.74980736  0.44021942  1
  O  O418  1  0.27193237  0.75138317  0.69168386  1
  O  O419  1  0.27247988  0.75021616  0.94010932  1
  O  O420  1  0.77296114  0.08462733  0.19089761  1
  O  O421  1  0.77201121  0.08230011  0.44162238  1
  O  O422  1  0.77176470  0.08342816  0.69332590  1
  O  O423  1  0.77259416  0.08532785  0.94227373  1
  O  O424  1  0.77259695  0.41865344  0.19212161  1
  O  O425  1  0.77300286  0.41785557  0.44083526  1
  O  O426  1  0.77257765  0.41877307  0.69230056  1
  O  O427  1  0.77204743  0.41706663  0.94365493  1
  O  O428  1  0.77217344  0.75177670  0.19260476  1
  O  O429  1  0.77180187  0.75020878  0.44336334  1
  O  O430  1  0.77328289  0.75076719  0.69077734  1
  O  O431  1  0.77260639  0.74836726  0.94259694  1
  O  O432  1  0.02134147  0.08308568  0.18206456  1
  O  O433  1  0.02182919  0.08430748  0.43315637  1
  O  O434  1  0.02310929  0.08444829  0.68397490  1
  O  O435  1  0.02172347  0.08295055  0.93167894  1
  O  O436  1  0.02300917  0.41620799  0.18502757  1
  O  O437  1  0.02214541  0.41570020  0.43362675  1
  O  O438  1  0.02202841  0.41835277  0.68335845  1
  O  O439  1  0.02275436  0.41657966  0.93458177  1
  O  O440  1  0.02287520  0.74966057  0.18423039  1
  O  O441  1  0.02276855  0.74959644  0.43436953  1
  O  O442  1  0.02234340  0.75134591  0.68322722  1
  O  O443  1  0.02211768  0.75103212  0.93325201  1
  O  O444  1  0.52171312  0.08231952  0.18279809  1
  O  O445  1  0.52126658  0.08361083  0.43116449  1
  O  O446  1  0.52155240  0.08340907  0.68207075  1
  O  O447  1  0.52266369  0.08317689  0.93493409  1
  O  O448  1  0.52243824  0.41693559  0.18366035  1
  O  O449  1  0.52184084  0.41690435  0.43089787  1
  O  O450  1  0.52195485  0.41884492  0.68348958  1
  O  O451  1  0.52270134  0.41634051  0.93457275  1
  O  O452  1  0.52178061  0.74970674  0.18109654  1
  O  O453  1  0.52159835  0.75005991  0.43113141  1
  O  O454  1  0.52228038  0.74764401  0.68306968  1
  O  O455  1  0.52257618  0.74799091  0.93289798  1
  O  O456  1  0.47686324  0.25136819  0.06588960  1
  O  O457  1  0.47800476  0.25158847  0.31641491  1
  O  O458  1  0.47874081  0.25060813  0.56851577  1
  O  O459  1  0.47857160  0.25071120  0.81892643  1
  O  O460  1  0.47752663  0.58351341  0.06553769  1
  O  O461  1  0.47831760  0.58146257  0.31615733  1
  O  O462  1  0.47823181  0.58326315  0.56835374  1
  O  O463  1  0.47743804  0.58281351  0.81614902  1
  O  O464  1  0.47800255  0.91784066  0.06655816  1
  O  O465  1  0.47797249  0.91851533  0.31620146  1
  O  O466  1  0.47845905  0.91638599  0.56871098  1
  O  O467  1  0.47892263  0.91590749  0.81879776  1
  O  O468  1  0.97802581  0.25203762  0.06670152  1
  O  O469  1  0.97758985  0.25184230  0.31696632  1
  O  O470  1  0.97686937  0.25093866  0.56572796  1
  O  O471  1  0.97827162  0.24855202  0.81660727  1
  O  O472  1  0.97780704  0.58170510  0.06741615  1
  O  O473  1  0.97686835  0.58354976  0.31608859  1
  O  O474  1  0.97812557  0.58549443  0.56670111  1
  O  O475  1  0.97744901  0.58202149  0.81696556  1
  O  O476  1  0.97735730  0.91429971  0.06665336  1
  O  O477  1  0.97743240  0.91427392  0.31703966  1
  O  O478  1  0.97751941  0.91535166  0.56659943  1
  O  O479  1  0.97721604  0.91617520  0.81508564  1
  O  O480  1  0.07342010  0.31485958  0.07371492  1
  O  O481  1  0.07283128  0.31465067  0.32478052  1
  O  O482  1  0.07213820  0.31398606  0.57422147  1
  O  O483  1  0.07333231  0.31290385  0.82387012  1
  O  O484  1  0.07297992  0.64548760  0.07462968  1
  O  O485  1  0.07202435  0.64702249  0.32284583  1
  O  O486  1  0.07330157  0.64855167  0.57420568  1
  O  O487  1  0.07273301  0.64557476  0.82601571  1
  O  O488  1  0.07261527  0.97803426  0.07505180  1
  O  O489  1  0.07235197  0.97864374  0.32526048  1
  O  O490  1  0.07259297  0.97935785  0.57500298  1
  O  O491  1  0.07184006  0.97999418  0.82233569  1
  O  O492  1  0.57264224  0.31412151  0.07390946  1
  O  O493  1  0.57301292  0.31526171  0.32287202  1
  O  O494  1  0.57419259  0.31424637  0.57514204  1
  O  O495  1  0.57420109  0.31370446  0.82654791  1
  O  O496  1  0.57294332  0.64650646  0.07380141  1
  O  O497  1  0.57349150  0.64589986  0.32375856  1
  O  O498  1  0.57373142  0.64653270  0.57520448  1
  O  O499  1  0.57237414  0.64666312  0.82354210  1
  O  O500  1  0.57304878  0.98155706  0.07379970  1
  O  O501  1  0.57306960  0.98195900  0.32337275  1
  O  O502  1  0.57415038  0.97961965  0.57524519  1
  O  O503  1  0.57410530  0.98019082  0.82586419  1
  O  O504  1  0.42661819  0.01885720  0.17528381  1
  O  O505  1  0.42546490  0.02031269  0.42466455  1
  O  O506  1  0.42616576  0.01981539  0.67540111  1
  O  O507  1  0.42750992  0.01933548  0.92662797  1
  O  O508  1  0.42729877  0.35345728  0.17583043  1
  O  O509  1  0.42640015  0.35350659  0.42449206  1
  O  O510  1  0.42695447  0.35422131  0.67637734  1
  O  O511  1  0.42704156  0.35387119  0.92637338  1
  O  O512  1  0.42634884  0.68608305  0.17374297  1
  O  O513  1  0.42630107  0.68636568  0.42409772  1
  O  O514  1  0.42673258  0.68486679  0.67634214  1
  O  O515  1  0.42756479  0.68422579  0.92564748  1
  O  O516  1  0.92611550  0.01946525  0.17479144  1
  O  O517  1  0.92631514  0.02095462  0.42540911  1
  O  O518  1  0.92888186  0.01985598  0.67580241  1
  O  O519  1  0.92628890  0.01953989  0.92392051  1
  O  O520  1  0.92759803  0.35321558  0.17660308  1
  O  O521  1  0.92693222  0.35278952  0.42627300  1
  O  O522  1  0.92653493  0.35482183  0.67579664  1
  O  O523  1  0.92797101  0.35285059  0.92654467  1
  O  O524  1  0.92820246  0.68560834  0.17721687  1
  O  O525  1  0.92766822  0.68610808  0.42642537  1
  O  O526  1  0.92709269  0.68770824  0.67532214  1
  O  O527  1  0.92688243  0.68741301  0.92527142  1
  O  O528  1  0.17485465  0.01895946  0.20048778  1
  O  O529  1  0.17563168  0.01876337  0.45111753  1
  O  O530  1  0.17845535  0.01837384  0.69761132  1
  O  O531  1  0.17530977  0.01875591  0.94960849  1
  O  O532  1  0.17614319  0.35371237  0.19981630  1
  O  O533  1  0.17690538  0.35140699  0.44901319  1
  O  O534  1  0.17566307  0.35369715  0.70121336  1
  O  O535  1  0.17719101  0.35446862  0.94946193  1
  O  O536  1  0.17746052  0.68585780  0.19794216  1
  O  O537  1  0.17742327  0.68602956  0.44803079  1
  O  O538  1  0.17690618  0.68707035  0.69958790  1
  O  O539  1  0.17778791  0.68609903  0.94763548  1
  O  O540  1  0.67825479  0.02059155  0.19726190  1
  O  O541  1  0.67726921  0.01829776  0.44836148  1
  O  O542  1  0.67622110  0.02030069  0.70128330  1
  O  O543  1  0.67764471  0.02105699  0.95089227  1
  O  O544  1  0.67722853  0.35492160  0.20010740  1
  O  O545  1  0.67859682  0.35348901  0.44845266  1
  O  O546  1  0.67741188  0.35457810  0.70004949  1
  O  O547  1  0.67686538  0.35330924  0.95119022  1
  O  O548  1  0.67668249  0.68802245  0.20009662  1
  O  O549  1  0.67653760  0.68646672  0.45080818  1
  O  O550  1  0.67875205  0.68637324  0.69811097  1
  O  O551  1  0.67770147  0.68497533  0.94931222  1
  O  O552  1  0.32385507  0.31357148  0.04986467  1
  O  O553  1  0.32270276  0.31459273  0.30109566  1
  O  O554  1  0.32273587  0.31241585  0.55069430  1
  O  O555  1  0.32435071  0.31261260  0.79914110  1
  O  O556  1  0.32251215  0.64834998  0.04955120  1
  O  O557  1  0.32279759  0.64861032  0.30042975  1
  O  O558  1  0.32401083  0.64676961  0.54964373  1
  O  O559  1  0.32128321  0.64758476  0.80155479  1
  O  O560  1  0.32231003  0.97800777  0.05006598  1
  O  O561  1  0.32219251  0.97820324  0.29989986  1
  O  O562  1  0.32138062  0.97931581  0.55141793  1
  O  O563  1  0.32288600  0.97846492  0.80010672  1
  O  O564  1  0.82346065  0.31270968  0.05006194  1
  O  O565  1  0.82235271  0.31561685  0.30087380  1
  O  O566  1  0.82412080  0.31382965  0.54967237  1
  O  O567  1  0.82365482  0.31292265  0.80087584  1
  O  O568  1  0.82411131  0.64582502  0.05162021  1
  O  O569  1  0.82262211  0.64674806  0.30062211  1
  O  O570  1  0.82194386  0.64705199  0.55173715  1
  O  O571  1  0.82325007  0.64890680  0.80091041  1
  O  O572  1  0.82191542  0.98062776  0.05188427  1
  O  O573  1  0.82299050  0.98211737  0.30040491  1
  O  O574  1  0.82350562  0.97938318  0.55101096  1
  O  O575  1  0.82423078  0.97983099  0.79967220  1
  O  O576  1  0.42629514  0.14589264  0.17440529  1
  O  O577  1  0.42605435  0.14729861  0.42414688  1
  O  O578  1  0.42616937  0.14687516  0.67553583  1
  O  O579  1  0.42792478  0.14693950  0.92764274  1
  O  O580  1  0.42758298  0.48073441  0.17547203  1
  O  O581  1  0.42626434  0.48015723  0.42381304  1
  O  O582  1  0.42639313  0.48137535  0.67684579  1
  O  O583  1  0.42830925  0.48110362  0.92736878  1
  O  O584  1  0.42645218  0.81297553  0.17273781  1
  O  O585  1  0.42614952  0.81342060  0.42464074  1
  O  O586  1  0.42724451  0.81202642  0.67632678  1
  O  O587  1  0.42716766  0.81136008  0.92412148  1
  O  O588  1  0.92602406  0.14657779  0.17455876  1
  O  O589  1  0.92710683  0.14823962  0.42608789  1
  O  O590  1  0.92756224  0.14731153  0.67615362  1
  O  O591  1  0.92634327  0.14628248  0.92437286  1
  O  O592  1  0.92859713  0.48036554  0.17732318  1
  O  O593  1  0.92717535  0.47976323  0.42504093  1
  O  O594  1  0.92726297  0.48192509  0.67588973  1
  O  O595  1  0.92759707  0.48022865  0.92742648  1
  O  O596  1  0.92743182  0.81279457  0.17706941  1
  O  O597  1  0.92777382  0.81334758  0.42647545  1
  O  O598  1  0.92726742  0.81458452  0.67541398  1
  O  O599  1  0.92700654  0.81446253  0.92634325  1
  O  O600  1  0.07297575  0.18772327  0.07520176  1
  O  O601  1  0.07267188  0.18771265  0.32531726  1
  O  O602  1  0.07139976  0.18651453  0.57299850  1
  O  O603  1  0.07369519  0.18584453  0.82377885  1
  O  O604  1  0.07306061  0.51856577  0.07467950  1
  O  O605  1  0.07151763  0.51968921  0.32395583  1
  O  O606  1  0.07342104  0.52157570  0.57432278  1
  O  O607  1  0.07233289  0.51845665  0.82427683  1
  O  O608  1  0.07244648  0.85094322  0.07372792  1
  O  O609  1  0.07287397  0.85148525  0.32439103  1
  O  O610  1  0.07265978  0.85236769  0.57400688  1
  O  O611  1  0.07243873  0.85263631  0.82277237  1
  O  O612  1  0.57098188  0.18668656  0.07414375  1
  O  O613  1  0.57360548  0.18816178  0.32354962  1
  O  O614  1  0.57418294  0.18719219  0.57478293  1
  O  O615  1  0.57373011  0.18692640  0.82680757  1
  O  O616  1  0.57211302  0.51917211  0.07279874  1
  O  O617  1  0.57364005  0.51873948  0.32294547  1
  O  O618  1  0.57363962  0.51986897  0.57551883  1
  O  O619  1  0.57255651  0.51944439  0.82429893  1
  O  O620  1  0.57338264  0.85440438  0.07521139  1
  O  O621  1  0.57339651  0.85469077  0.32369454  1
  O  O622  1  0.57371942  0.85257923  0.57493157  1
  O  O623  1  0.57462600  0.85318818  0.82657426  1
  O  O624  1  0.32346743  0.18640564  0.05027178  1
  O  O625  1  0.32280521  0.18719980  0.30042159  1
  O  O626  1  0.32298030  0.18524638  0.55031480  1
  O  O627  1  0.32396453  0.18563442  0.80024357  1
  O  O628  1  0.32265370  0.52146855  0.05014135  1
  O  O629  1  0.32285135  0.52152118  0.29915974  1
  O  O630  1  0.32344158  0.51985830  0.54872102  1
  O  O631  1  0.32213493  0.52010693  0.80184911  1
  O  O632  1  0.32289984  0.85092289  0.05041186  1
  O  O633  1  0.32302062  0.85111523  0.30056047  1
  O  O634  1  0.32257476  0.85196256  0.55145743  1
  O  O635  1  0.32319956  0.85162716  0.80038999  1
  O  O636  1  0.82363016  0.18568945  0.05154883  1
  O  O637  1  0.82359341  0.18844019  0.30032015  1
  O  O638  1  0.82357207  0.18689064  0.54867081  1
  O  O639  1  0.82338589  0.18565361  0.80109313  1
  O  O640  1  0.82351140  0.51874859  0.05139435  1
  O  O641  1  0.82375530  0.51964515  0.30162094  1
  O  O642  1  0.82316954  0.51970113  0.55203571  1
  O  O643  1  0.82351594  0.52196185  0.80038318  1
  O  O644  1  0.82249212  0.85299392  0.05207773  1
  O  O645  1  0.82323517  0.85508330  0.30016480  1
  O  O646  1  0.82360887  0.85219320  0.55063682  1
  O  O647  1  0.82417910  0.85302039  0.80067830  1
  O  O648  1  0.17535177  0.14615054  0.20039857  1
  O  O649  1  0.17552723  0.14553635  0.45077683  1
  O  O650  1  0.17744590  0.14597391  0.69806656  1
  O  O651  1  0.17569103  0.14579572  0.94972020  1
  O  O652  1  0.17612839  0.48059094  0.20136190  1
  O  O653  1  0.17601126  0.47876385  0.44962604  1
  O  O654  1  0.17605736  0.48057954  0.69975593  1
  O  O655  1  0.17694119  0.48175548  0.94885946  1
  O  O656  1  0.17728921  0.81291711  0.19806675  1
  O  O657  1  0.17715193  0.81331635  0.44772691  1
  O  O658  1  0.17656398  0.81399494  0.69861443  1
  O  O659  1  0.17723971  0.81323691  0.94791730  1
  O  O660  1  0.67777673  0.14798584  0.19898176  1
  O  O661  1  0.67637874  0.14556226  0.44914057  1
  O  O662  1  0.67640467  0.14717954  0.70003824  1
  O  O663  1  0.67738176  0.14817870  0.94988230  1
  O  O664  1  0.67754933  0.48183698  0.19925904  1
  O  O665  1  0.67755493  0.48090049  0.44856885  1
  O  O666  1  0.67739612  0.48183348  0.69970703  1
  O  O667  1  0.67637788  0.48019150  0.95038479  1
  O  O668  1  0.67713907  0.81526462  0.19914536  1
  O  O669  1  0.67617025  0.81318618  0.45070893  1
  O  O670  1  0.67798638  0.81375749  0.69925686  1
  O  O671  1  0.67707414  0.81203840  0.95004267  1
