# generated using pymatgen
data_Na2MnFe(PO4)2
_symmetry_space_group_name_H-M   'P 1'
_cell_length_a   22.34962010
_cell_length_b   20.10085799
_cell_length_c   19.44339226
_cell_angle_alpha   89.95607010
_cell_angle_beta   90.04477480
_cell_angle_gamma   90.05285917
_symmetry_Int_Tables_number   1
_chemical_formula_structural   Na2MnFe(PO4)2
_chemical_formula_sum   'Na96 Mn48 Fe48 P96 O384'
_cell_volume   8734.86774474
_cell_formula_units_Z   48
loop_
 _symmetry_equiv_pos_site_id
 _symmetry_equiv_pos_as_xyz
  1  'x, y, z'
loop_
 _atom_site_type_symbol
 _atom_site_label
 _atom_site_symmetry_multiplicity
 _atom_site_fract_x
 _atom_site_fract_y
 _atom_site_fract_z
 _atom_site_occupancy
  Na  Na0  1  0.14018952  0.25020812  0.24392909  1
  Na  Na1  1  0.13981627  0.24927144  0.49342793  1
  Na  Na2  1  0.13999694  0.24985673  0.74490992  1
  Na  Na3  1  0.14096026  0.24953746  0.99559639  1
  Na  Na4  1  0.13994858  0.58415582  0.24284345  1
  Na  Na5  1  0.13956306  0.58440640  0.49426764  1
  Na  Na6  1  0.13950601  0.58406460  0.74294747  1
  Na  Na7  1  0.13984787  0.58132593  0.99380049  1
  Na  Na8  1  0.14029237  0.91728074  0.24416379  1
  Na  Na9  1  0.14001981  0.91679629  0.49333454  1
  Na  Na10  1  0.14048500  0.91701310  0.74336984  1
  Na  Na11  1  0.14033009  0.91721439  0.99452032  1
  Na  Na12  1  0.64048578  0.24974705  0.24334449  1
  Na  Na13  1  0.63998556  0.24886784  0.49188752  1
  Na  Na14  1  0.63996682  0.25015186  0.74309516  1
  Na  Na15  1  0.64083243  0.25010862  0.99401648  1
  Na  Na16  1  0.63978327  0.58348747  0.24261297  1
  Na  Na17  1  0.63957222  0.58186760  0.49252763  1
  Na  Na18  1  0.64001268  0.58277193  0.74380017  1
  Na  Na19  1  0.64028814  0.58356640  0.99507864  1
  Na  Na20  1  0.64085559  0.91863875  0.24355652  1
  Na  Na21  1  0.63998813  0.91765521  0.49221174  1
  Na  Na22  1  0.64037617  0.91742948  0.74443381  1
  Na  Na23  1  0.64063447  0.91741789  0.99487029  1
  Na  Na24  1  0.35985518  0.08279376  0.00597384  1
  Na  Na25  1  0.36085113  0.08321353  0.25688101  1
  Na  Na26  1  0.36064712  0.08337193  0.50643442  1
  Na  Na27  1  0.35982593  0.08465111  0.75512360  1
  Na  Na28  1  0.35944747  0.41512446  0.00564400  1
  Na  Na29  1  0.36000767  0.41679086  0.25689049  1
  Na  Na30  1  0.36001857  0.41612452  0.50690211  1
  Na  Na31  1  0.35962102  0.41541335  0.75538778  1
  Na  Na32  1  0.35990323  0.74890630  0.00682770  1
  Na  Na33  1  0.36011464  0.74987358  0.25553044  1
  Na  Na34  1  0.36022008  0.75005543  0.50694673  1
  Na  Na35  1  0.35971478  0.75005320  0.75453492  1
  Na  Na36  1  0.85898347  0.08345298  0.00716309  1
  Na  Na37  1  0.85978857  0.08470925  0.25686093  1
  Na  Na38  1  0.86025022  0.08356410  0.50539720  1
  Na  Na39  1  0.85954343  0.08340122  0.75615670  1
  Na  Na40  1  0.85934435  0.41664581  0.00703088  1
  Na  Na41  1  0.85973516  0.41601351  0.25592186  1
  Na  Na42  1  0.85929924  0.41596916  0.50519378  1
  Na  Na43  1  0.85914362  0.41693661  0.75639814  1
  Na  Na44  1  0.85940202  0.75038392  0.00744079  1
  Na  Na45  1  0.86039653  0.75140699  0.25704802  1
  Na  Na46  1  0.86022252  0.74930680  0.50689769  1
  Na  Na47  1  0.85929127  0.74935930  0.75629011  1
  Na  Na48  1  0.10986090  0.08439409  0.11955362  1
  Na  Na49  1  0.10984942  0.08393200  0.36900596  1
  Na  Na50  1  0.10946929  0.08328612  0.61786568  1
  Na  Na51  1  0.10971482  0.08349859  0.86970058  1
  Na  Na52  1  0.10972049  0.41690795  0.11939058  1
  Na  Na53  1  0.10886010  0.41687207  0.36777963  1
  Na  Na54  1  0.10857550  0.41729977  0.61934096  1
  Na  Na55  1  0.10933604  0.41756813  0.86896097  1
  Na  Na56  1  0.10934797  0.75032681  0.11889720  1
  Na  Na57  1  0.10928537  0.74950429  0.36949519  1
  Na  Na58  1  0.10925921  0.75025159  0.61805665  1
  Na  Na59  1  0.10927323  0.74944181  0.86857459  1
  Na  Na60  1  0.61068853  0.08248594  0.11883746  1
  Na  Na61  1  0.61001818  0.08329377  0.36778900  1
  Na  Na62  1  0.60931074  0.08419313  0.61797671  1
  Na  Na63  1  0.61033127  0.08422145  0.86827020  1
  Na  Na64  1  0.60993222  0.41776975  0.11824994  1
  Na  Na65  1  0.60928979  0.41602711  0.36801709  1
  Na  Na66  1  0.60912043  0.41630785  0.61741946  1
  Na  Na67  1  0.60959651  0.41649883  0.86856302  1
  Na  Na68  1  0.60963928  0.75006590  0.11917678  1
  Na  Na69  1  0.60944121  0.74958208  0.36869091  1
  Na  Na70  1  0.60913349  0.75010223  0.61755384  1
  Na  Na71  1  0.60942133  0.74996855  0.87078069  1
  Na  Na72  1  0.39077615  0.24895256  0.13190278  1
  Na  Na73  1  0.39093367  0.24880059  0.38216718  1
  Na  Na74  1  0.39060644  0.24949720  0.63039867  1
  Na  Na75  1  0.38987650  0.24975196  0.88031145  1
  Na  Na76  1  0.39055396  0.58327989  0.13164836  1
  Na  Na77  1  0.39107156  0.58307037  0.38110265  1
  Na  Na78  1  0.39057005  0.58280850  0.63031498  1
  Na  Na79  1  0.39038991  0.58359696  0.88072594  1
  Na  Na80  1  0.39077999  0.91568417  0.13184847  1
  Na  Na81  1  0.39130933  0.91685649  0.38188261  1
  Na  Na82  1  0.39092892  0.91701713  0.63019239  1
  Na  Na83  1  0.39060711  0.91575323  0.88091227  1
  Na  Na84  1  0.89000431  0.25073187  0.13278985  1
  Na  Na85  1  0.88988111  0.24947169  0.38068024  1
  Na  Na86  1  0.89016829  0.24997462  0.63025430  1
  Na  Na87  1  0.89002754  0.24991070  0.88262653  1
  Na  Na88  1  0.89101149  0.58279581  0.13225722  1
  Na  Na89  1  0.89065795  0.58401548  0.38030794  1
  Na  Na90  1  0.88981905  0.58340129  0.63137617  1
  Na  Na91  1  0.89005986  0.58313173  0.88082949  1
  Na  Na92  1  0.89019723  0.91726403  0.13264274  1
  Na  Na93  1  0.89101803  0.91658541  0.38188519  1
  Na  Na94  1  0.89047657  0.91612039  0.63025538  1
  Na  Na95  1  0.89011468  0.91690404  0.88216322  1
  Mn  Mn96  1  0.49969123  0.66665065  0.74953026  1
  Mn  Mn97  1  -0.00025973  -0.00039138  0.74942386  1
  Mn  Mn98  1  -0.00052538  0.83404902  0.00003979  1
  Mn  Mn99  1  0.24893830  0.33219287  0.62533528  1
  Mn  Mn100  1  0.25051952  0.49866313  0.87415121  1
  Mn  Mn101  1  0.75018992  0.33333252  0.62484549  1
  Mn  Mn102  1  0.50045866  0.16644993  0.00001884  1
  Mn  Mn103  1  0.50071052  0.00056741  0.74996608  1
  Mn  Mn104  1  0.24980450  0.33258264  0.37550487  1
  Mn  Mn105  1  0.24962540  0.00069700  0.62486779  1
  Mn  Mn106  1  -0.00011735  0.33441696  0.75061025  1
  Mn  Mn107  1  0.24992228  0.83298840  0.87432728  1
  Mn  Mn108  1  -0.00104323  0.50103504  0.49913363  1
  Mn  Mn109  1  0.74969368  0.16660556  0.62428119  1
  Mn  Mn110  1  0.74885582  0.66521159  0.62607036  1
  Mn  Mn111  1  0.25094758  0.00098707  0.37466463  1
  Mn  Mn112  1  0.25058119  0.00034114  0.12485620  1
  Mn  Mn113  1  0.00047839  0.83264933  0.75018847  1
  Mn  Mn114  1  0.49961304  -0.00062640  -0.00030707  1
  Mn  Mn115  1  0.75007259  0.66657208  0.37488816  1
  Mn  Mn116  1  0.74945927  0.83440399  0.87589974  1
  Mn  Mn117  1  0.24888052  0.50026269  0.62559263  1
  Mn  Mn118  1  -0.00029586  0.66611527  0.00007679  1
  Mn  Mn119  1  -0.00075031  0.33304718  0.49941313  1
  Mn  Mn120  1  0.74955239  0.33357349  0.87510291  1
  Mn  Mn121  1  0.50038615  0.49904747  0.74953901  1
  Mn  Mn122  1  0.24994398  0.66628257  0.12455292  1
  Mn  Mn123  1  0.24956442  0.66611910  0.87516699  1
  Mn  Mn124  1  0.74966367  0.83365339  0.62531744  1
  Mn  Mn125  1  0.00019162  0.33454527  0.00111479  1
  Mn  Mn126  1  0.25094991  0.33267652  0.12545524  1
  Mn  Mn127  1  0.25072664  0.00076931  0.87431276  1
  Mn  Mn128  1  0.74939069  0.66592890  0.87623150  1
  Mn  Mn129  1  0.50014303  0.83316003  0.74955797  1
  Mn  Mn130  1  -0.00071506  0.16642328  0.75028024  1
  Mn  Mn131  1  0.50028731  0.33322851  0.00008682  1
  Mn  Mn132  1  0.25012174  0.83372806  0.37514124  1
  Mn  Mn133  1  0.74954235  0.00061763  0.62499829  1
  Mn  Mn134  1  0.24987034  0.50032036  0.37559386  1
  Mn  Mn135  1  0.75009772  0.49880648  0.37400382  1
  Mn  Mn136  1  0.74986446  0.83439282  0.37533102  1
  Mn  Mn137  1  0.50011205  0.33338142  0.25035620  1
  Mn  Mn138  1  0.75065341  0.66711946  0.12519331  1
  Mn  Mn139  1  0.00023079  0.16661989  0.00104480  1
  Mn  Mn140  1  0.49924705  0.50067282  -0.00066359  1
  Mn  Mn141  1  0.50053626  0.83300626  0.25081289  1
  Mn  Mn142  1  0.25005216  0.66722601  0.37434338  1
  Mn  Mn143  1  0.00024340  0.00011090  0.25116759  1
  Fe  Fe144  1  0.50016007  0.83278658  0.00094353  1
  Fe  Fe145  1  0.00002114  0.66691674  0.25033531  1
  Fe  Fe146  1  -0.00011368  0.33332339  0.25018692  1
  Fe  Fe147  1  0.49964988  0.49955167  0.49943159  1
  Fe  Fe148  1  0.75029266  0.83456341  0.12574490  1
  Fe  Fe149  1  0.74959816  0.49974841  0.87558081  1
  Fe  Fe150  1  0.50080283  -0.00026355  0.25064942  1
  Fe  Fe151  1  0.75026534  0.49980200  0.12506128  1
  Fe  Fe152  1  -0.00053781  0.83263261  0.50030680  1
  Fe  Fe153  1  -0.00088782  0.66659452  0.74972805  1
  Fe  Fe154  1  0.74944236  0.33295633  0.37418254  1
  Fe  Fe155  1  0.75027939  0.00074257  0.87577058  1
  Fe  Fe156  1  0.25029747  0.16672580  0.37503242  1
  Fe  Fe157  1  0.24968507  0.16667091  0.87548353  1
  Fe  Fe158  1  -0.00023680  0.50047407  0.00061388  1
  Fe  Fe159  1  0.25016551  0.66697009  0.62467545  1
  Fe  Fe160  1  0.75014349  0.16706416  0.87564640  1
  Fe  Fe161  1  0.75100031  0.00070989  0.37372527  1
  Fe  Fe162  1  0.50061223  0.00058457  0.49996720  1
  Fe  Fe163  1  0.50023411  0.83355331  0.49936732  1
  Fe  Fe164  1  0.50025004  0.66669790  0.00062619  1
  Fe  Fe165  1  0.00004168  0.00039408  0.00132307  1
  Fe  Fe166  1  0.50005173  0.33276320  0.49918379  1
  Fe  Fe167  1  0.50012761  0.66609741  0.49901955  1
  Fe  Fe168  1  0.25103436  0.16646510  0.12504821  1
  Fe  Fe169  1  0.00030462  0.50010337  0.25036454  1
  Fe  Fe170  1  0.49979012  0.66660116  0.25035463  1
  Fe  Fe171  1  0.75015809  0.16699749  0.12502506  1
  Fe  Fe172  1  0.25030076  0.83345507  0.12471547  1
  Fe  Fe173  1  0.24950067  0.33224805  0.87566718  1
  Fe  Fe174  1  0.50037499  0.16653158  0.49957001  1
  Fe  Fe175  1  0.74940166  0.49914822  0.62448648  1
  Fe  Fe176  1  0.50072991  0.16590963  0.25103025  1
  Fe  Fe177  1  0.49973666  0.16724408  0.74856764  1
  Fe  Fe178  1  0.25029003  0.49918930  0.12461438  1
  Fe  Fe179  1  -0.00063942  0.50089656  0.74951302  1
  Fe  Fe180  1  -0.00017323  0.66674827  0.49973415  1
  Fe  Fe181  1  0.75010993  0.16669408  0.37361946  1
  Fe  Fe182  1  0.00026860  0.16663967  0.49990137  1
  Fe  Fe183  1  0.50002411  0.50012125  0.24999562  1
  Fe  Fe184  1  0.00002068  -0.00043080  0.49933666  1
  Fe  Fe185  1  0.75007388  0.33318405  0.12472212  1
  Fe  Fe186  1  -0.00020744  0.16663434  0.25043892  1
  Fe  Fe187  1  0.75058771  0.00112174  0.12496185  1
  Fe  Fe188  1  0.00059543  0.83325447  0.25088079  1
  Fe  Fe189  1  0.25020971  0.83355283  0.62460394  1
  Fe  Fe190  1  0.24964277  0.16692385  0.62556654  1
  Fe  Fe191  1  0.49954188  0.33267979  0.74851507  1
  P  P192  1  0.04227804  0.25057888  0.10485923  1
  P  P193  1  0.04107490  0.24961636  0.35195618  1
  P  P194  1  0.04196240  0.24928890  0.60239612  1
  P  P195  1  0.04222905  0.25028093  0.85377216  1
  P  P196  1  0.04202917  0.58229815  0.10358653  1
  P  P197  1  0.04147075  0.58392376  0.35170445  1
  P  P198  1  0.04132259  0.58470923  0.60280757  1
  P  P199  1  0.04127413  0.58349341  0.85149685  1
  P  P200  1  0.04211685  0.91778776  0.10352338  1
  P  P201  1  0.04216427  0.91518248  0.35382894  1
  P  P202  1  0.04125166  0.91648555  0.60111460  1
  P  P203  1  0.04294417  0.91694544  0.85349788  1
  P  P204  1  0.54307937  0.24961300  0.10386439  1
  P  P205  1  0.54208753  0.24860190  0.35313646  1
  P  P206  1  0.54148241  0.25001641  0.60131743  1
  P  P207  1  0.54135825  0.25005660  0.85072604  1
  P  P208  1  0.54195008  0.58437386  0.10339406  1
  P  P209  1  0.54140526  0.58314965  0.35201224  1
  P  P210  1  0.54131877  0.58297424  0.60075126  1
  P  P211  1  0.54261706  0.58352771  0.85317610  1
  P  P212  1  0.54211842  0.91562993  0.10320509  1
  P  P213  1  0.54261411  0.91782585  0.35349373  1
  P  P214  1  0.54190193  0.91712775  0.60106105  1
  P  P215  1  0.54271740  0.91605962  0.85365935  1
  P  P216  1  0.45950329  0.08273216  0.14896775  1
  P  P217  1  0.45925014  0.08302836  0.39772003  1
  P  P218  1  0.45832288  0.08453891  0.64618263  1
  P  P219  1  0.45748479  0.08375340  0.89608964  1
  P  P220  1  0.45796765  0.41783336  0.14779252  1
  P  P221  1  0.45861760  0.41638667  0.39783682  1
  P  P222  1  0.45779940  0.41496472  0.64587873  1
  P  P223  1  0.45716169  0.41587936  0.89593159  1
  P  P224  1  0.45835533  0.74888130  0.14738205  1
  P  P225  1  0.45879677  0.74953478  0.39801191  1
  P  P226  1  0.45764039  0.75000950  0.64513906  1
  P  P227  1  0.45831615  0.74981142  0.89895121  1
  P  P228  1  0.95793576  0.08421520  0.14820543  1
  P  P229  1  0.95910213  0.08376987  0.39798081  1
  P  P230  1  0.95735323  0.08322945  0.64554235  1
  P  P231  1  0.95754758  0.08203046  0.89851957  1
  P  P232  1  0.95874047  0.41723263  0.14871874  1
  P  P233  1  0.95725791  0.41671636  0.39545090  1
  P  P234  1  0.95699657  0.41808556  0.64743381  1
  P  P235  1  0.95778754  0.41889083  0.89780647  1
  P  P236  1  0.95870540  0.75048968  0.14895382  1
  P  P237  1  0.95862675  0.74976459  0.39782841  1
  P  P238  1  0.95742655  0.74882947  0.64684562  1
  P  P239  1  0.95670561  0.74955828  0.89692497  1
  P  P240  1  0.20841556  0.08507965  0.22783962  1
  P  P241  1  0.20820274  0.08484930  0.47771050  1
  P  P242  1  0.20728027  0.08513042  0.72794363  1
  P  P243  1  0.20821203  0.08439999  0.97807777  1
  P  P244  1  0.20807965  0.41744795  0.22745170  1
  P  P245  1  0.20646821  0.41639298  0.47836951  1
  P  P246  1  0.20654433  0.41558181  0.72884114  1
  P  P247  1  0.20792371  0.41495839  0.97792050  1
  P  P248  1  0.20785170  0.75139256  0.22694677  1
  P  P249  1  0.20773379  0.75014967  0.47900164  1
  P  P250  1  0.20814727  0.75018473  0.72594936  1
  P  P251  1  0.20706107  0.74999601  0.97852416  1
  P  P252  1  0.70936972  0.08404422  0.22696856  1
  P  P253  1  0.70897753  0.08327061  0.47518544  1
  P  P254  1  0.70698510  0.08394062  0.72893313  1
  P  P255  1  0.70869735  0.08384775  0.97753750  1
  P  P256  1  0.70849687  0.41586390  0.22633236  1
  P  P257  1  0.70734513  0.41505212  0.47699479  1
  P  P258  1  0.70728655  0.41771123  0.72753616  1
  P  P259  1  0.70765557  0.41784000  0.97839387  1
  P  P260  1  0.70826459  0.75196813  0.22757391  1
  P  P261  1  0.70708090  0.74970308  0.47821151  1
  P  P262  1  0.70649282  0.75006727  0.72870460  1
  P  P263  1  0.70759360  0.75077288  0.97956226  1
  P  P264  1  0.29297303  0.24829389  0.02220091  1
  P  P265  1  0.29279609  0.24851185  0.27258496  1
  P  P266  1  0.29203093  0.24819237  0.52239678  1
  P  P267  1  0.29092089  0.24944581  0.77343287  1
  P  P268  1  0.29235366  0.58121109  0.02232219  1
  P  P269  1  0.29278273  0.58301482  0.27120516  1
  P  P270  1  0.29198784  0.58433228  0.52273034  1
  P  P271  1  0.29259247  0.58367802  0.77110068  1
  P  P272  1  0.29274838  0.91561273  0.02235488  1
  P  P273  1  0.29328950  0.91671135  0.27135105  1
  P  P274  1  0.29235093  0.91635287  0.52261988  1
  P  P275  1  0.29299982  0.91670563  0.77084708  1
  P  P276  1  0.79156918  0.24990500  0.02336679  1
  P  P277  1  0.79100627  0.25036753  0.27207010  1
  P  P278  1  0.79217124  0.24994957  0.52034219  1
  P  P279  1  0.79228662  0.24905678  0.77300385  1
  P  P280  1  0.79246187  0.58178690  0.02270184  1
  P  P281  1  0.79253638  0.58291564  0.27110983  1
  P  P282  1  0.79169503  0.58146772  0.52248015  1
  P  P283  1  0.79135020  0.58146319  0.77273922  1
  P  P284  1  0.79159646  0.91766845  0.02383674  1
  P  P285  1  0.79268788  0.91843587  0.27168722  1
  P  P286  1  0.79247036  0.91747670  0.52141385  1
  P  P287  1  0.79227259  0.91834617  0.77324115  1
  O  O288  1  0.03675080  0.25045980  0.18477849  1
  O  O289  1  0.03589608  0.24901466  0.43195242  1
  O  O290  1  0.03679021  0.24967659  0.68237122  1
  O  O291  1  0.03721627  0.25040693  0.93377012  1
  O  O292  1  0.03678610  0.58250390  0.18346516  1
  O  O293  1  0.03627285  0.58460585  0.43164648  1
  O  O294  1  0.03580771  0.58427405  0.68268303  1
  O  O295  1  0.03650574  0.58322024  0.93151960  1
  O  O296  1  0.03701917  0.91708783  0.18350655  1
  O  O297  1  0.03639896  0.91537506  0.43366166  1
  O  O298  1  0.03686846  0.91612641  0.68116098  1
  O  O299  1  0.03792575  0.91745546  0.93348928  1
  O  O300  1  0.53811346  0.24942710  0.18383348  1
  O  O301  1  0.53672969  0.24866859  0.43302565  1
  O  O302  1  0.53585929  0.24994808  0.68123354  1
  O  O303  1  0.53658906  0.25000224  0.93078413  1
  O  O304  1  0.53658236  0.58397934  0.18330382  1
  O  O305  1  0.53609916  0.58294469  0.43194209  1
  O  O306  1  0.53659961  0.58258755  0.68076451  1
  O  O307  1  0.53734306  0.58396839  0.93313967  1
  O  O308  1  0.53716693  0.91622331  0.18321002  1
  O  O309  1  0.53718085  0.91793534  0.43337176  1
  O  O310  1  0.53706736  0.91686467  0.68109880  1
  O  O311  1  0.53720413  0.91543253  0.93362314  1
  O  O312  1  0.46411431  0.08291862  0.06893952  1
  O  O313  1  0.46467567  0.08294039  0.31780013  1
  O  O314  1  0.46400550  0.08430241  0.56627104  1
  O  O315  1  0.46265990  0.08429075  0.81612085  1
  O  O316  1  0.46283362  0.41769562  0.06779445  1
  O  O317  1  0.46362447  0.41720689  0.31785777  1
  O  O318  1  0.46316575  0.41508126  0.56596810  1
  O  O319  1  0.46249904  0.41508712  0.81594157  1
  O  O320  1  0.46387346  0.74936047  0.06750804  1
  O  O321  1  0.46386911  0.74944645  0.31801793  1
  O  O322  1  0.46293572  0.75002317  0.56524763  1
  O  O323  1  0.46324536  0.74998050  0.81888712  1
  O  O324  1  0.96320294  0.08346853  0.06830662  1
  O  O325  1  0.96411921  0.08392900  0.31797877  1
  O  O326  1  0.96297501  0.08340090  0.56561969  1
  O  O327  1  0.96231426  0.08217004  0.81848239  1
  O  O328  1  0.96359514  0.41770402  0.06871441  1
  O  O329  1  0.96312486  0.41663076  0.31558717  1
  O  O330  1  0.96193929  0.41758165  0.56741520  1
  O  O331  1  0.96297263  0.41897584  0.81782060  1
  O  O332  1  0.96329863  0.75019627  0.06895177  1
  O  O333  1  0.96377832  0.75038641  0.31791312  1
  O  O334  1  0.96265434  0.74895706  0.56691886  1
  O  O335  1  0.96170349  0.74926022  0.81693759  1
  O  O336  1  0.21381147  0.08426779  0.05803012  1
  O  O337  1  0.21373242  0.08513247  0.30784282  1
  O  O338  1  0.21290948  0.08491389  0.55773463  1
  O  O339  1  0.21266259  0.08495595  0.80793451  1
  O  O340  1  0.21375912  0.41582008  0.05787517  1
  O  O341  1  0.21291454  0.41706621  0.30745342  1
  O  O342  1  0.21119945  0.41621447  0.55840999  1
  O  O343  1  0.21205461  0.41498225  0.80879153  1
  O  O344  1  0.21239010  0.75056607  0.05850076  1
  O  O345  1  0.21286786  0.75105611  0.30696427  1
  O  O346  1  0.21310907  0.75005522  0.55893737  1
  O  O347  1  0.21281170  0.74983922  0.80603334  1
  O  O348  1  0.71419900  0.08405266  0.05744347  1
  O  O349  1  0.71448088  0.08342661  0.30685241  1
  O  O350  1  0.71312708  0.08356187  0.55522492  1
  O  O351  1  0.71205959  0.08407370  0.80887197  1
  O  O352  1  0.71330875  0.41752797  0.05827101  1
  O  O353  1  0.71352007  0.41504782  0.30633291  1
  O  O354  1  0.71244303  0.41581304  0.55697112  1
  O  O355  1  0.71239746  0.41780212  0.80755091  1
  O  O356  1  0.71337256  0.75128243  0.05947707  1
  O  O357  1  0.71327655  0.75149484  0.30759354  1
  O  O358  1  0.71165404  0.74942941  0.55825636  1
  O  O359  1  0.71167422  0.75009230  0.80873969  1
  O  O360  1  0.28813383  0.24858059  0.19255603  1
  O  O361  1  0.28704249  0.24823210  0.44238178  1
  O  O362  1  0.28539503  0.24911899  0.69348360  1
  O  O363  1  0.28711615  0.24869097  0.94235747  1
  O  O364  1  0.28764270  0.58220538  0.19120240  1
  O  O365  1  0.28715962  0.58424452  0.44268226  1
  O  O366  1  0.28710167  0.58437913  0.69114588  1
  O  O367  1  0.28732479  0.58157216  0.94229997  1
  O  O368  1  0.28810150  0.91614321  0.19134887  1
  O  O369  1  0.28764009  0.91677219  0.44258634  1
  O  O370  1  0.28744462  0.91634477  0.69088630  1
  O  O371  1  0.28780948  0.91601496  0.94233036  1
  O  O372  1  0.78614871  0.25005299  0.19212955  1
  O  O373  1  0.78696007  0.25028220  0.44039576  1
  O  O374  1  0.78741054  0.24938272  0.69296972  1
  O  O375  1  0.78640617  0.24994176  0.94337749  1
  O  O376  1  0.78747443  0.58279971  0.19113570  1
  O  O377  1  0.78689321  0.58194147  0.44243513  1
  O  O378  1  0.78578862  0.58125277  0.69275836  1
  O  O379  1  0.78692824  0.58176437  0.94273416  1
  O  O380  1  0.78727314  0.91799196  0.19179327  1
  O  O381  1  0.78763286  0.91790396  0.44138449  1
  O  O382  1  0.78695921  0.91786121  0.69324519  1
  O  O383  1  0.78660756  0.91825318  0.94387756  1
  O  O384  1  0.22894170  0.24803475  0.05864080  1
  O  O385  1  0.22831816  0.24850955  0.30771423  1
  O  O386  1  0.22763864  0.24777717  0.55775037  1
  O  O387  1  0.22698608  0.24967086  0.80999686  1
  O  O388  1  0.22803615  0.58124917  0.05771886  1
  O  O389  1  0.22835005  0.58337079  0.30626894  1
  O  O390  1  0.22759798  0.58472465  0.55791063  1
  O  O391  1  0.22828415  0.58285726  0.80644810  1
  O  O392  1  0.22842442  0.91589826  0.05771502  1
  O  O393  1  0.22894652  0.91732215  0.30652918  1
  O  O394  1  0.22795648  0.91609875  0.55775963  1
  O  O395  1  0.22874359  0.91706318  0.80632941  1
  O  O396  1  0.72745715  0.24975555  0.05934873  1
  O  O397  1  0.72700599  0.25043588  0.30831265  1
  O  O398  1  0.72796761  0.25020444  0.55606313  1
  O  O399  1  0.72789925  0.24884072  0.80828402  1
  O  O400  1  0.72830275  0.58225158  0.05856943  1
  O  O401  1  0.72818230  0.58289072  0.30623829  1
  O  O402  1  0.72727023  0.58084430  0.55771197  1
  O  O403  1  0.72721512  0.58141939  0.80875005  1
  O  O404  1  0.72754132  0.91699158  0.05989733  1
  O  O405  1  0.72850447  0.91916379  0.30763132  1
  O  O406  1  0.72801318  0.91716392  0.55638907  1
  O  O407  1  0.72800254  0.91915078  0.80886128  1
  O  O408  1  0.27268582  0.08483325  0.19215645  1
  O  O409  1  0.27261910  0.08499852  0.44246052  1
  O  O410  1  0.27153793  0.08513345  0.69220946  1
  O  O411  1  0.27234306  0.08490621  0.94207088  1
  O  O412  1  0.27245953  0.41772030  0.19218834  1
  O  O413  1  0.27108379  0.41639551  0.44387222  1
  O  O414  1  0.27076589  0.41597187  0.69331213  1
  O  O415  1  0.27198151  0.41407225  0.94171044  1
  O  O416  1  0.27216647  0.75099597  0.19160575  1
  O  O417  1  0.27199596  0.75010249  0.44343484  1
  O  O418  1  0.27243701  0.75050800  0.69043740  1
  O  O419  1  0.27142874  0.74960316  0.94329833  1
  O  O420  1  0.77334703  0.08472005  0.19068918  1
  O  O421  1  0.77331430  0.08299100  0.43992001  1
  O  O422  1  0.77132559  0.08381443  0.69350545  1
  O  O423  1  0.77262439  0.08388962  0.94081415  1
  O  O424  1  0.77264315  0.41631040  0.19044905  1
  O  O425  1  0.77163136  0.41441185  0.44140316  1
  O  O426  1  0.77161958  0.41816177  0.69194811  1
  O  O427  1  0.77170780  0.41786418  0.94208714  1
  O  O428  1  0.77258141  0.75215488  0.19222526  1
  O  O429  1  0.77163651  0.75006925  0.44356562  1
  O  O430  1  0.77088998  0.74960296  0.69362793  1
  O  O431  1  0.77165344  0.75041823  0.94369398  1
  O  O432  1  0.02216224  0.08475861  0.18403680  1
  O  O433  1  0.02313541  0.08386264  0.43413574  1
  O  O434  1  0.02154000  0.08345772  0.68143714  1
  O  O435  1  0.02197843  0.08185778  0.93383467  1
  O  O436  1  0.02286905  0.41686817  0.18475924  1
  O  O437  1  0.02124951  0.41702013  0.43169546  1
  O  O438  1  0.02133917  0.41855731  0.68293206  1
  O  O439  1  0.02205705  0.41894395  0.93362953  1
  O  O440  1  0.02292282  0.75085163  0.18470544  1
  O  O441  1  0.02255967  0.74908143  0.43435209  1
  O  O442  1  0.02162829  0.74805108  0.68295637  1
  O  O443  1  0.02110820  0.75001209  0.93208585  1
  O  O444  1  0.52370533  0.08245036  0.18478012  1
  O  O445  1  0.52325804  0.08293501  0.43423322  1
  O  O446  1  0.52232950  0.08519029  0.68264408  1
  O  O447  1  0.52183062  0.08307226  0.93147071  1
  O  O448  1  0.52233112  0.41762722  0.18315304  1
  O  O449  1  0.52270569  0.41568664  0.43384992  1
  O  O450  1  0.52188594  0.41453841  0.68221917  1
  O  O451  1  0.52142616  0.41682105  0.93153140  1
  O  O452  1  0.52235597  0.74838203  0.18390831  1
  O  O453  1  0.52288676  0.74911542  0.43404770  1
  O  O454  1  0.52183945  0.74981045  0.68102686  1
  O  O455  1  0.52249693  0.74963496  0.93493861  1
  O  O456  1  0.47867775  0.24969035  0.06864277  1
  O  O457  1  0.47803662  0.24856152  0.31696308  1
  O  O458  1  0.47755927  0.24989294  0.56456446  1
  O  O459  1  0.47714861  0.25003443  0.81479443  1
  O  O460  1  0.47785957  0.58502076  0.06703555  1
  O  O461  1  0.47738723  0.58334673  0.31554828  1
  O  O462  1  0.47712824  0.58381819  0.56495476  1
  O  O463  1  0.47834204  0.58287396  0.81761240  1
  O  O464  1  0.47788928  0.91514276  0.06741965  1
  O  O465  1  0.47852759  0.91789724  0.31726487  1
  O  O466  1  0.47774746  0.91771395  0.56519191  1
  O  O467  1  0.47853336  0.91660064  0.81787466  1
  O  O468  1  0.97814740  0.25051382  0.06894454  1
  O  O469  1  0.97699012  0.24994381  0.31574376  1
  O  O470  1  0.97766265  0.24864866  0.56677078  1
  O  O471  1  0.97784636  0.25042988  0.81856731  1
  O  O472  1  0.97784385  0.58196714  0.06743783  1
  O  O473  1  0.97741496  0.58319513  0.31554027  1
  O  O474  1  0.97721186  0.58535265  0.56648534  1
  O  O475  1  0.97703294  0.58365135  0.81554199  1
  O  O476  1  0.97781425  0.91836048  0.06776318  1
  O  O477  1  0.97817622  0.91501383  0.31732193  1
  O  O478  1  0.97704226  0.91724530  0.56557133  1
  O  O479  1  0.97851820  0.91621057  0.81835832  1
  O  O480  1  0.07352841  0.31400182  0.07658484  1
  O  O481  1  0.07206820  0.31348566  0.32435652  1
  O  O482  1  0.07263314  0.31316596  0.57446006  1
  O  O483  1  0.07332434  0.31373593  0.82562744  1
  O  O484  1  0.07299045  0.64595553  0.07534891  1
  O  O485  1  0.07203091  0.64763536  0.32300150  1
  O  O486  1  0.07267030  0.64789940  0.57419720  1
  O  O487  1  0.07187069  0.64740595  0.82333151  1
  O  O488  1  0.07284189  0.98159431  0.07544618  1
  O  O489  1  0.07345775  0.97886514  0.32606235  1
  O  O490  1  0.07273200  0.97985071  0.57310413  1
  O  O491  1  0.07384471  0.98022228  0.82453744  1
  O  O492  1  0.57387354  0.31327382  0.07552399  1
  O  O493  1  0.57341114  0.31211102  0.32517668  1
  O  O494  1  0.57254932  0.31356053  0.57300409  1
  O  O495  1  0.57211724  0.31380933  0.82263595  1
  O  O496  1  0.57317909  0.64773550  0.07491610  1
  O  O497  1  0.57254983  0.64671960  0.32381213  1
  O  O498  1  0.57288617  0.64623417  0.57282568  1
  O  O499  1  0.57354158  0.64696795  0.82470382  1
  O  O500  1  0.57316831  0.97917460  0.07502773  1
  O  O501  1  0.57363521  0.98107705  0.32438601  1
  O  O502  1  0.57334959  0.98065056  0.57346187  1
  O  O503  1  0.57396197  0.97966187  0.82587439  1
  O  O504  1  0.42844094  0.01907930  0.17682315  1
  O  O505  1  0.42797009  0.01963194  0.42611108  1
  O  O506  1  0.42739166  0.02081542  0.67416505  1
  O  O507  1  0.42614378  0.02026434  0.92410108  1
  O  O508  1  0.42670926  0.35426931  0.17558775  1
  O  O509  1  0.42733034  0.35268518  0.42531261  1
  O  O510  1  0.42658205  0.35164553  0.67451801  1
  O  O511  1  0.42642195  0.35251545  0.92490538  1
  O  O512  1  0.42711316  0.68554260  0.17584872  1
  O  O513  1  0.42718659  0.68631637  0.42606140  1
  O  O514  1  0.42637648  0.68669760  0.67375672  1
  O  O515  1  0.42753484  0.68599677  0.92686708  1
  O  O516  1  0.92685033  0.02084980  0.17662385  1
  O  O517  1  0.92869141  0.01959090  0.42580615  1
  O  O518  1  0.92633271  0.01963465  0.67379115  1
  O  O519  1  0.92697175  0.01855893  0.92740560  1
  O  O520  1  0.92785671  0.35330635  0.17644636  1
  O  O521  1  0.92605815  0.35326961  0.42371235  1
  O  O522  1  0.92620081  0.35432308  0.67548952  1
  O  O523  1  0.92682714  0.35504164  0.92563406  1
  O  O524  1  0.92834260  0.68650552  0.17727578  1
  O  O525  1  0.92707442  0.68632080  0.42568203  1
  O  O526  1  0.92596935  0.68576448  0.67565279  1
  O  O527  1  0.92571425  0.68622795  0.92559875  1
  O  O528  1  0.17722893  0.02132213  0.20028094  1
  O  O529  1  0.17750821  0.02092347  0.44985362  1
  O  O530  1  0.17629984  0.02137972  0.70002079  1
  O  O531  1  0.17753588  0.02047996  0.95025344  1
  O  O532  1  0.17725089  0.35368011  0.19960446  1
  O  O533  1  0.17566368  0.35287495  0.44991113  1
  O  O534  1  0.17524732  0.35241921  0.70035656  1
  O  O535  1  0.17674999  0.35133425  0.95027537  1
  O  O536  1  0.17638761  0.68795076  0.19929842  1
  O  O537  1  0.17643767  0.68694927  0.45023082  1
  O  O538  1  0.17760328  0.68638058  0.69771720  1
  O  O539  1  0.17602455  0.68620692  0.95076304  1
  O  O540  1  0.67898002  0.02028260  0.19794285  1
  O  O541  1  0.67803250  0.01977822  0.44697084  1
  O  O542  1  0.67577660  0.02061537  0.70025486  1
  O  O543  1  0.67785257  0.02005570  0.94952686  1
  O  O544  1  0.67762414  0.35243437  0.19761067  1
  O  O545  1  0.67638168  0.35162324  0.44859999  1
  O  O546  1  0.67688425  0.35356063  0.69983516  1
  O  O547  1  0.67643049  0.35422884  0.95030390  1
  O  O548  1  0.67717619  0.68832441  0.19987867  1
  O  O549  1  0.67639133  0.68614397  0.44969245  1
  O  O550  1  0.67513799  0.68670792  0.70071583  1
  O  O551  1  0.67634413  0.68709765  0.95204937  1
  O  O552  1  0.32418931  0.31183237  0.05034635  1
  O  O553  1  0.32355830  0.31237062  0.30055127  1
  O  O554  1  0.32255870  0.31222143  0.55024673  1
  O  O555  1  0.32176701  0.31330611  0.80119584  1
  O  O556  1  0.32347550  0.64482344  0.05008505  1
  O  O557  1  0.32368259  0.64685169  0.29885061  1
  O  O558  1  0.32296475  0.64771790  0.55113714  1
  O  O559  1  0.32355479  0.64698971  0.79987800  1
  O  O560  1  0.32416522  0.97908130  0.05014489  1
  O  O561  1  0.32441885  0.98030298  0.29932816  1
  O  O562  1  0.32331375  0.98000208  0.55048564  1
  O  O563  1  0.32417672  0.98031877  0.79866452  1
  O  O564  1  0.82219950  0.31383322  0.05148485  1
  O  O565  1  0.82208776  0.31382874  0.30037984  1
  O  O566  1  0.82365565  0.31300182  0.54924121  1
  O  O567  1  0.82317333  0.31279197  0.80093354  1
  O  O568  1  0.82395034  0.64542557  0.05012564  1
  O  O569  1  0.82345943  0.64654227  0.29928011  1
  O  O570  1  0.82233358  0.64517480  0.55072678  1
  O  O571  1  0.82229707  0.64539015  0.80023956  1
  O  O572  1  0.82199003  0.98148140  0.05252903  1
  O  O573  1  0.82402493  0.98174550  0.30006702  1
  O  O574  1  0.82356070  0.98070798  0.55000618  1
  O  O575  1  0.82346133  0.98164263  0.80155553  1
  O  O576  1  0.42916613  0.14659628  0.17729293  1
  O  O577  1  0.42848571  0.14669921  0.42599534  1
  O  O578  1  0.42704686  0.14780948  0.67456716  1
  O  O579  1  0.42669490  0.14702355  0.92489537  1
  O  O580  1  0.42752001  0.48139813  0.17636573  1
  O  O581  1  0.42816474  0.48004531  0.42668034  1
  O  O582  1  0.42692011  0.47865160  0.67387009  1
  O  O583  1  0.42571495  0.47934831  0.92340896  1
  O  O584  1  0.42736608  0.81240119  0.17564128  1
  O  O585  1  0.42877480  0.81380164  0.42602315  1
  O  O586  1  0.42674255  0.81346075  0.67366178  1
  O  O587  1  0.42767218  0.81351184  0.92711615  1
  O  O588  1  0.92708507  0.14785143  0.17629327  1
  O  O589  1  0.92777560  0.14703943  0.42604140  1
  O  O590  1  0.92592877  0.14635245  0.67418640  1
  O  O591  1  0.92671692  0.14578308  0.92622021  1
  O  O592  1  0.92787383  0.48061291  0.17722013  1
  O  O593  1  0.92576521  0.47999113  0.42349255  1
  O  O594  1  0.92623290  0.48156903  0.67564844  1
  O  O595  1  0.92695300  0.48207473  0.92671776  1
  O  O596  1  0.92775821  0.81401128  0.17696685  1
  O  O597  1  0.92822457  0.81347251  0.42684660  1
  O  O598  1  0.92688290  0.81272103  0.67489806  1
  O  O599  1  0.92557904  0.81296804  0.92517258  1
  O  O600  1  0.07362271  0.18734741  0.07651956  1
  O  O601  1  0.07193986  0.18615535  0.32348576  1
  O  O602  1  0.07303422  0.18600725  0.57402462  1
  O  O603  1  0.07300641  0.18668383  0.82581005  1
  O  O604  1  0.07286622  0.51900050  0.07465505  1
  O  O605  1  0.07274008  0.52031604  0.32420488  1
  O  O606  1  0.07214312  0.52105038  0.57456303  1
  O  O607  1  0.07214079  0.52006298  0.82300711  1
  O  O608  1  0.07304470  0.85440153  0.07515994  1
  O  O609  1  0.07323510  0.85194220  0.32515488  1
  O  O610  1  0.07112541  0.85233151  0.57281496  1
  O  O611  1  0.07416078  0.85346595  0.82545791  1
  O  O612  1  0.57416350  0.18638441  0.07531140  1
  O  O613  1  0.57288955  0.18514489  0.32447962  1
  O  O614  1  0.57260227  0.18647606  0.57314600  1
  O  O615  1  0.57207968  0.18639978  0.82262674  1
  O  O616  1  0.57278908  0.52079063  0.07511574  1
  O  O617  1  0.57212739  0.51946420  0.32352383  1
  O  O618  1  0.57117230  0.51880527  0.57235499  1
  O  O619  1  0.57381417  0.52008805  0.82517149  1
  O  O620  1  0.57279820  0.85200124  0.07500897  1
  O  O621  1  0.57377015  0.85418837  0.32582093  1
  O  O622  1  0.57195443  0.85315945  0.57257419  1
  O  O623  1  0.57376003  0.85281287  0.82513013  1
  O  O624  1  0.32409672  0.18498145  0.05082568  1
  O  O625  1  0.32355527  0.18523359  0.30159011  1
  O  O626  1  0.32319774  0.18519956  0.55137860  1
  O  O627  1  0.32193379  0.18592094  0.80157069  1
  O  O628  1  0.32292302  0.51753326  0.05059174  1
  O  O629  1  0.32392768  0.52001846  0.30037940  1
  O  O630  1  0.32261702  0.52043490  0.55046252  1
  O  O631  1  0.32401403  0.52011999  0.79858861  1
  O  O632  1  0.32301289  0.85182292  0.05085096  1
  O  O633  1  0.32435055  0.85349435  0.30006934  1
  O  O634  1  0.32302269  0.85274771  0.55088476  1
  O  O635  1  0.32411735  0.85340448  0.79935999  1
  O  O636  1  0.82282814  0.18658973  0.05162008  1
  O  O637  1  0.82160984  0.18662542  0.30087142  1
  O  O638  1  0.82302259  0.18632566  0.54858971  1
  O  O639  1  0.82304916  0.18567609  0.80170370  1
  O  O640  1  0.82304172  0.51833222  0.05149262  1
  O  O641  1  0.82369900  0.51961970  0.29939669  1
  O  O642  1  0.82255330  0.51789991  0.55060672  1
  O  O643  1  0.82243527  0.51830211  0.80150650  1
  O  O644  1  0.82287915  0.85412885  0.05171935  1
  O  O645  1  0.82339430  0.85481173  0.30025944  1
  O  O646  1  0.82329353  0.85380486  0.54962541  1
  O  O647  1  0.82288063  0.85444617  0.80108628  1
  O  O648  1  0.17761432  0.14834681  0.19902309  1
  O  O649  1  0.17724743  0.14794562  0.44852584  1
  O  O650  1  0.17631739  0.14838373  0.69932599  1
  O  O651  1  0.17682689  0.14758449  0.94979506  1
  O  O652  1  0.17731587  0.48091201  0.19895628  1
  O  O653  1  0.17553272  0.47990223  0.45027423  1
  O  O654  1  0.17542957  0.47924266  0.70111814  1
  O  O655  1  0.17698409  0.47848137  0.94965594  1
  O  O656  1  0.17760571  0.81524018  0.19860460  1
  O  O657  1  0.17667579  0.81361830  0.45065080  1
  O  O658  1  0.17736421  0.81397790  0.69800888  1
  O  O659  1  0.17594978  0.81312900  0.94970182  1
  O  O660  1  0.67785460  0.14736841  0.19896034  1
  O  O661  1  0.67875272  0.14715949  0.44648647  1
  O  O662  1  0.67605922  0.14720151  0.69977367  1
  O  O663  1  0.67766734  0.14739650  0.94912695  1
  O  O664  1  0.67770677  0.47985854  0.19883466  1
  O  O665  1  0.67650343  0.47857448  0.44847394  1
  O  O666  1  0.67601702  0.48062574  0.69841952  1
  O  O667  1  0.67660991  0.48116168  0.94979775  1
  O  O668  1  0.67757241  0.81564296  0.19948742  1
  O  O669  1  0.67607101  0.81313808  0.45003111  1
  O  O670  1  0.67590005  0.81376889  0.70045310  1
  O  O671  1  0.67629990  0.81398444  0.95122698  1
