# generated using pymatgen
data_Na2MnFe(PO4)2
_symmetry_space_group_name_H-M   'P 1'
_cell_length_a   22.34378622
_cell_length_b   20.09224054
_cell_length_c   19.44951095
_cell_angle_alpha   90.00544719
_cell_angle_beta   89.98991224
_cell_angle_gamma   89.98418803
_symmetry_Int_Tables_number   1
_chemical_formula_structural   Na2MnFe(PO4)2
_chemical_formula_sum   'Na96 Mn48 Fe48 P96 O384'
_cell_volume   8731.59928599
_cell_formula_units_Z   48
loop_
 _symmetry_equiv_pos_site_id
 _symmetry_equiv_pos_as_xyz
  1  'x, y, z'
loop_
 _atom_site_type_symbol
 _atom_site_label
 _atom_site_symmetry_multiplicity
 _atom_site_fract_x
 _atom_site_fract_y
 _atom_site_fract_z
 _atom_site_occupancy
  Na  Na0  1  0.14049191  0.24993536  0.24477249  1
  Na  Na1  1  0.14028026  0.24906466  0.49441246  1
  Na  Na2  1  0.13973773  0.25059393  0.74344032  1
  Na  Na3  1  0.14117790  0.24990425  0.99279628  1
  Na  Na4  1  0.14058607  0.58210187  0.24470270  1
  Na  Na5  1  0.14044621  0.58340384  0.49372146  1
  Na  Na6  1  0.14027730  0.58503344  0.74399072  1
  Na  Na7  1  0.14012125  0.58305781  0.99344487  1
  Na  Na8  1  0.14036132  0.91533981  0.24422800  1
  Na  Na9  1  0.13995982  0.91413600  0.49396474  1
  Na  Na10  1  0.14036002  0.91742401  0.74280542  1
  Na  Na11  1  0.14080815  0.91647036  0.99316373  1
  Na  Na12  1  0.64017173  0.25024517  0.24293844  1
  Na  Na13  1  0.63976642  0.25023299  0.49294035  1
  Na  Na14  1  0.64057942  0.25138726  0.74338256  1
  Na  Na15  1  0.64086382  0.25059486  0.99428293  1
  Na  Na16  1  0.64068969  0.58360430  0.24377196  1
  Na  Na17  1  0.64083123  0.58313954  0.49330104  1
  Na  Na18  1  0.64064204  0.58400699  0.74443854  1
  Na  Na19  1  0.64058973  0.58276110  0.99377334  1
  Na  Na20  1  0.64016409  0.91684333  0.24352296  1
  Na  Na21  1  0.63992229  0.91584217  0.49384638  1
  Na  Na22  1  0.63977191  0.91788940  0.74322043  1
  Na  Na23  1  0.64020711  0.91652588  0.99366457  1
  Na  Na24  1  0.35923478  0.08433587  0.00541697  1
  Na  Na25  1  0.36018881  0.08320327  0.25712542  1
  Na  Na26  1  0.35989937  0.08214733  0.50647666  1
  Na  Na27  1  0.35941564  0.08457913  0.75641429  1
  Na  Na28  1  0.35974827  0.41740033  0.00680003  1
  Na  Na29  1  0.35970430  0.41635994  0.25643744  1
  Na  Na30  1  0.35991007  0.41719051  0.50639751  1
  Na  Na31  1  0.35941407  0.41728219  0.75680063  1
  Na  Na32  1  0.35994330  0.75028648  0.00578817  1
  Na  Na33  1  0.35958350  0.74896427  0.25657671  1
  Na  Na34  1  0.35971105  0.75045813  0.50624584  1
  Na  Na35  1  0.35961386  0.75216704  0.75561181  1
  Na  Na36  1  0.85933202  0.08251663  0.00495543  1
  Na  Na37  1  0.85936313  0.08252092  0.25513293  1
  Na  Na38  1  0.85950078  0.08222123  0.50732711  1
  Na  Na39  1  0.85945783  0.08363739  0.75684429  1
  Na  Na40  1  0.85964796  0.41714780  0.00571115  1
  Na  Na41  1  0.85971479  0.41733599  0.25589907  1
  Na  Na42  1  0.85970511  0.41586345  0.50690114  1
  Na  Na43  1  0.85939763  0.41672111  0.75594195  1
  Na  Na44  1  0.85938736  0.75004226  0.00654438  1
  Na  Na45  1  0.85970509  0.74963288  0.25651805  1
  Na  Na46  1  0.85978617  0.74797208  0.50697404  1
  Na  Na47  1  0.85938547  0.74969114  0.75665323  1
  Na  Na48  1  0.10972915  0.08287962  0.11868841  1
  Na  Na49  1  0.10944584  0.08162536  0.36939219  1
  Na  Na50  1  0.10954122  0.08309417  0.61921054  1
  Na  Na51  1  0.10969651  0.08407930  0.86639011  1
  Na  Na52  1  0.11013117  0.41697669  0.11823150  1
  Na  Na53  1  0.10988624  0.41680587  0.37014382  1
  Na  Na54  1  0.10922009  0.41669452  0.61872000  1
  Na  Na55  1  0.10969355  0.41693557  0.86838600  1
  Na  Na56  1  0.10982363  0.74888183  0.11889975  1
  Na  Na57  1  0.10978577  0.74857703  0.36984276  1
  Na  Na58  1  0.10959471  0.74852679  0.61834962  1
  Na  Na59  1  0.10974722  0.74958028  0.86844568  1
  Na  Na60  1  0.60943153  0.08198683  0.11903103  1
  Na  Na61  1  0.60922562  0.08435308  0.36911457  1
  Na  Na62  1  0.60901978  0.08362028  0.61790036  1
  Na  Na63  1  0.60978179  0.08249406  0.86826055  1
  Na  Na64  1  0.61040021  0.41632903  0.11865909  1
  Na  Na65  1  0.60979009  0.41678318  0.36798212  1
  Na  Na66  1  0.60953979  0.41678577  0.61844595  1
  Na  Na67  1  0.61032640  0.41779913  0.86903890  1
  Na  Na68  1  0.60967900  0.74939528  0.11875388  1
  Na  Na69  1  0.60973158  0.75125702  0.36876952  1
  Na  Na70  1  0.61005603  0.75221658  0.61855952  1
  Na  Na71  1  0.60981083  0.75229933  0.86875450  1
  Na  Na72  1  0.39061170  0.24964671  0.13149442  1
  Na  Na73  1  0.39123563  0.24935367  0.38127019  1
  Na  Na74  1  0.39023768  0.24906590  0.63114080  1
  Na  Na75  1  0.38970737  0.25112455  0.88209837  1
  Na  Na76  1  0.39049967  0.58266209  0.13185075  1
  Na  Na77  1  0.39023749  0.58410253  0.38175963  1
  Na  Na78  1  0.39031481  0.58544528  0.63102129  1
  Na  Na79  1  0.39047320  0.58524454  0.88166832  1
  Na  Na80  1  0.39071162  0.91643186  0.13153143  1
  Na  Na81  1  0.39053850  0.91849534  0.38188371  1
  Na  Na82  1  0.39021603  0.91715286  0.63041898  1
  Na  Na83  1  0.39019797  0.91755626  0.88020405  1
  Na  Na84  1  0.89046524  0.25061464  0.13028111  1
  Na  Na85  1  0.89040723  0.25023812  0.38121477  1
  Na  Na86  1  0.89051048  0.24911478  0.63209819  1
  Na  Na87  1  0.89005746  0.25116908  0.88057348  1
  Na  Na88  1  0.89012102  0.58339915  0.13114618  1
  Na  Na89  1  0.88994545  0.58278171  0.38334371  1
  Na  Na90  1  0.89014119  0.58150175  0.63085889  1
  Na  Na91  1  0.89029027  0.58311227  0.88124192  1
  Na  Na92  1  0.88982982  0.91599070  0.13102396  1
  Na  Na93  1  0.89049863  0.91469451  0.38100403  1
  Na  Na94  1  0.89020311  0.91505263  0.63260217  1
  Na  Na95  1  0.88969158  0.91649777  0.88158832  1
  Mn  Mn96  1  -0.00036010  0.83191295  0.75047807  1
  Mn  Mn97  1  0.50063397  0.66871057  0.50072195  1
  Mn  Mn98  1  0.74981419  0.66685562  0.87513391  1
  Mn  Mn99  1  0.24967982  0.33307669  0.62563674  1
  Mn  Mn100  1  0.49933539  0.33372338  0.75017248  1
  Mn  Mn101  1  0.74999294  -0.00011947  0.62543177  1
  Mn  Mn102  1  0.24951401  0.16719974  0.12508525  1
  Mn  Mn103  1  0.49969115  0.50096731  0.74961747  1
  Mn  Mn104  1  -0.00002357  0.50013099  0.25045650  1
  Mn  Mn105  1  0.25021745  0.83219609  0.37446038  1
  Mn  Mn106  1  0.74964183  0.16734243  0.87558390  1
  Mn  Mn107  1  0.50025035  0.66716557  -0.00010954  1
  Mn  Mn108  1  0.49926850  -0.00056667  -0.00024263  1
  Mn  Mn109  1  0.00031534  0.66675106  0.25103290  1
  Mn  Mn110  1  0.50072022  0.66886115  0.75077425  1
  Mn  Mn111  1  -0.00041036  -0.00166690  0.24970002  1
  Mn  Mn112  1  0.74924595  0.33375470  0.62442394  1
  Mn  Mn113  1  0.49996038  0.83379818  0.25014913  1
  Mn  Mn114  1  0.75005693  0.16625440  0.37406814  1
  Mn  Mn115  1  0.50049778  0.16635697  0.74963496  1
  Mn  Mn116  1  0.00036518  0.50009959  0.74945872  1
  Mn  Mn117  1  0.24964658  0.83360364  0.87472228  1
  Mn  Mn118  1  0.75011750  0.66613603  0.62574903  1
  Mn  Mn119  1  0.75083629  0.83204485  0.37470932  1
  Mn  Mn120  1  0.25075346  0.83230764  0.12443766  1
  Mn  Mn121  1  0.24999650  0.50155377  0.62614996  1
  Mn  Mn122  1  0.25048552  0.50102327  0.87553919  1
  Mn  Mn123  1  0.75006815  0.16640564  0.12399937  1
  Mn  Mn124  1  0.25053780  0.33347387  0.37547779  1
  Mn  Mn125  1  0.00043173  0.33362999  0.25006181  1
  Mn  Mn126  1  0.50014072  0.16636283  0.00033124  1
  Mn  Mn127  1  0.75078999  0.33390347  0.37467273  1
  Mn  Mn128  1  0.00092393  0.33410336  -0.00015686  1
  Mn  Mn129  1  0.25007569  0.00015088  0.12438535  1
  Mn  Mn130  1  -0.00067134  0.16637717  0.50016292  1
  Mn  Mn131  1  0.00023938  0.16618629  0.25040648  1
  Mn  Mn132  1  0.75006566  0.66651978  0.12494977  1
  Mn  Mn133  1  0.00018428  -0.00015935  -0.00021274  1
  Mn  Mn134  1  -0.00062705  -0.00191852  0.49963873  1
  Mn  Mn135  1  0.50097603  0.33402427  0.00064808  1
  Mn  Mn136  1  0.25022184  0.16545463  0.37471697  1
  Mn  Mn137  1  0.50008738  0.49987363  0.25068526  1
  Mn  Mn138  1  0.75001563  -0.00089290  0.37559062  1
  Mn  Mn139  1  0.24967390  0.00024872  0.62496161  1
  Mn  Mn140  1  0.00059866  0.83256070  -0.00045874  1
  Mn  Mn141  1  0.50047874  0.50020912  0.49991138  1
  Mn  Mn142  1  0.25009902  0.49978337  0.12466932  1
  Mn  Mn143  1  -0.00013337  0.16686770  -0.00107296  1
  Fe  Fe144  1  -0.00000131  0.49920330  0.50111533  1
  Fe  Fe145  1  -0.00012767  0.83179006  0.50118805  1
  Fe  Fe146  1  0.24987560  0.83338775  0.62457295  1
  Fe  Fe147  1  0.25036349  0.66742263  0.62449765  1
  Fe  Fe148  1  0.74948144  0.49986941  0.62492589  1
  Fe  Fe149  1  0.49962218  0.33315797  0.49930604  1
  Fe  Fe150  1  0.50020446  0.33292622  0.24992616  1
  Fe  Fe151  1  0.25017699  0.66597696  0.12522602  1
  Fe  Fe152  1  0.74963127  0.66601823  0.37517924  1
  Fe  Fe153  1  0.24994083  0.00084188  0.87390424  1
  Fe  Fe154  1  -0.00007546  0.16667587  0.74919632  1
  Fe  Fe155  1  0.50009220  0.00071025  0.49993449  1
  Fe  Fe156  1  0.75022567  0.49970992  0.87509000  1
  Fe  Fe157  1  0.74989050  0.33414270  0.87458381  1
  Fe  Fe158  1  0.49986992  0.83500649  0.74913873  1
  Fe  Fe159  1  0.49954619  0.83491998  0.49922963  1
  Fe  Fe160  1  0.75033014  0.50011400  0.12489999  1
  Fe  Fe161  1  0.74960371  0.16706623  0.62546143  1
  Fe  Fe162  1  0.74977245  0.83395176  0.87581433  1
  Fe  Fe163  1  0.50026767  0.16656156  0.25070306  1
  Fe  Fe164  1  -0.00007596  0.66589587  0.50009005  1
  Fe  Fe165  1  0.25011276  0.66584635  0.37544076  1
  Fe  Fe166  1  -0.00031672  0.66580168  0.74958213  1
  Fe  Fe167  1  0.24990445  0.16777025  0.87537394  1
  Fe  Fe168  1  -0.00000526  -0.00084190  0.74972689  1
  Fe  Fe169  1  0.25016696  0.49996984  0.37519743  1
  Fe  Fe170  1  0.00040794  0.33287654  0.50056858  1
  Fe  Fe171  1  0.74933692  0.00008014  0.87479631  1
  Fe  Fe172  1  0.24955233  -0.00101274  0.37548190  1
  Fe  Fe173  1  0.50017741  0.50027922  0.00067921  1
  Fe  Fe174  1  0.75062206  0.33402595  0.12438713  1
  Fe  Fe175  1  0.00015729  0.83209543  0.25014060  1
  Fe  Fe176  1  0.24997760  0.66770162  0.87434579  1
  Fe  Fe177  1  -0.00020593  0.50069961  -0.00076123  1
  Fe  Fe178  1  0.49922576  -0.00002534  0.74895272  1
  Fe  Fe179  1  0.25023525  0.33345318  0.12524790  1
  Fe  Fe180  1  0.50029515  0.00057756  0.25102848  1
  Fe  Fe181  1  0.74989083  0.83317559  0.62544688  1
  Fe  Fe182  1  0.50016719  0.83383746  -0.00011945  1
  Fe  Fe183  1  0.74989795  -0.00068908  0.12466318  1
  Fe  Fe184  1  0.49992929  0.16711468  0.49949643  1
  Fe  Fe185  1  0.49997472  0.66693823  0.24987972  1
  Fe  Fe186  1  0.74980136  0.83334152  0.12508160  1
  Fe  Fe187  1  -0.00074987  0.33354212  0.74970434  1
  Fe  Fe188  1  0.24967802  0.33385503  0.87502299  1
  Fe  Fe189  1  0.25005435  0.16673361  0.62570728  1
  Fe  Fe190  1  -0.00041844  0.66653855  -0.00004223  1
  Fe  Fe191  1  0.74995376  0.49988500  0.37480224  1
  P  P192  1  0.04345852  0.24990356  0.10269555  1
  P  P193  1  0.04290763  0.25022785  0.35401780  1
  P  P194  1  0.04179251  0.25067056  0.60338616  1
  P  P195  1  0.04094998  0.25050236  0.85077852  1
  P  P196  1  0.04138011  0.58339433  0.10135210  1
  P  P197  1  0.04234743  0.58291379  0.35480878  1
  P  P198  1  0.04137656  0.58329178  0.60197879  1
  P  P199  1  0.04196846  0.58456126  0.85289063  1
  P  P200  1  0.04311063  0.91559933  0.10327052  1
  P  P201  1  0.04211215  0.91369067  0.35305642  1
  P  P202  1  0.04184755  0.91478204  0.60327442  1
  P  P203  1  0.04231061  0.91707306  0.85201161  1
  P  P204  1  0.54303208  0.24949092  0.10431399  1
  P  P205  1  0.54167742  0.25021778  0.35220138  1
  P  P206  1  0.54119707  0.25032504  0.60113069  1
  P  P207  1  0.54299730  0.25023580  0.85302524  1
  P  P208  1  0.54242415  0.58234647  0.10297155  1
  P  P209  1  0.54231790  0.58516669  0.35248092  1
  P  P210  1  0.54318518  0.58436430  0.60321876  1
  P  P211  1  0.54282887  0.58405624  0.85380256  1
  P  P212  1  0.54212876  0.91553864  0.10275394  1
  P  P213  1  0.54220887  0.91857813  0.35330701  1
  P  P214  1  0.54116187  0.91745733  0.60164991  1
  P  P215  1  0.54129506  0.91730715  0.85123496  1
  P  P216  1  0.45856636  0.08300459  0.14902642  1
  P  P217  1  0.45895549  0.08377819  0.39794590  1
  P  P218  1  0.45773225  0.08230803  0.64637983  1
  P  P219  1  0.45712736  0.08318251  0.89626563  1
  P  P220  1  0.45817360  0.41566886  0.14774604  1
  P  P221  1  0.45809897  0.41545115  0.39707183  1
  P  P222  1  0.45679464  0.41658852  0.64616309  1
  P  P223  1  0.45766842  0.41857134  0.89809080  1
  P  P224  1  0.45774991  0.74892586  0.14738182  1
  P  P225  1  0.45785824  0.75198181  0.39714753  1
  P  P226  1  0.45807074  0.75276266  0.64708510  1
  P  P227  1  0.45813602  0.75262267  0.89706529  1
  P  P228  1  0.95699787  0.08300312  0.14665521  1
  P  P229  1  0.95662377  0.08227595  0.39708799  1
  P  P230  1  0.95837487  0.08233328  0.64849769  1
  P  P231  1  0.95763268  0.08307633  0.89512291  1
  P  P232  1  0.95768891  0.41745272  0.14626666  1
  P  P233  1  0.95854640  0.41615242  0.39924892  1
  P  P234  1  0.95780799  0.41534066  0.64684554  1
  P  P235  1  0.95819700  0.41790710  0.89687102  1
  P  P236  1  0.95780432  0.75007075  0.14744021  1
  P  P237  1  0.95835386  0.74964200  0.39871671  1
  P  P238  1  0.95764882  0.74751655  0.64692391  1
  P  P239  1  0.95747689  0.74815524  0.89714519  1
  P  P240  1  0.20710774  0.08265094  0.22840026  1
  P  P241  1  0.20761880  0.08139982  0.47791685  1
  P  P242  1  0.20785741  0.08511387  0.72824570  1
  P  P243  1  0.20829355  0.08353765  0.97583119  1
  P  P244  1  0.20783615  0.41578645  0.22786873  1
  P  P245  1  0.20811993  0.41804900  0.47796026  1
  P  P246  1  0.20716072  0.41714498  0.72899249  1
  P  P247  1  0.20796022  0.41564569  0.97774179  1
  P  P248  1  0.20811579  0.74777460  0.22772324  1
  P  P249  1  0.20828569  0.74835854  0.47795730  1
  P  P250  1  0.20845277  0.75044951  0.72638213  1
  P  P251  1  0.20780042  0.74841372  0.97758862  1
  P  P252  1  0.70770948  0.08197207  0.22688024  1
  P  P253  1  0.70739766  0.08346741  0.47870047  1
  P  P254  1  0.70741010  0.08477993  0.72772033  1
  P  P255  1  0.70763836  0.08165690  0.97770681  1
  P  P256  1  0.70888300  0.41736129  0.22656826  1
  P  P257  1  0.70760304  0.41799600  0.47728272  1
  P  P258  1  0.70746805  0.41824100  0.72788786  1
  P  P259  1  0.70892862  0.41676058  0.97737532  1
  P  P260  1  0.70790355  0.75054487  0.22760158  1
  P  P261  1  0.70796672  0.74835577  0.47780120  1
  P  P262  1  0.70786677  0.75167049  0.72818561  1
  P  P263  1  0.70784549  0.75149597  0.97800099  1
  P  P264  1  0.29218142  0.25169539  0.02204089  1
  P  P265  1  0.29307409  0.25016580  0.27179762  1
  P  P266  1  0.29209531  0.24837895  0.52297546  1
  P  P267  1  0.29115074  0.25052171  0.77341646  1
  P  P268  1  0.29253833  0.58481885  0.02234385  1
  P  P269  1  0.29172173  0.58300705  0.27333547  1
  P  P270  1  0.29234738  0.58473796  0.52206935  1
  P  P271  1  0.29256302  0.58596789  0.77236020  1
  P  P272  1  0.29296642  0.91697259  0.02091595  1
  P  P273  1  0.29251129  0.91732153  0.27263662  1
  P  P274  1  0.29172308  0.91540475  0.52209864  1
  P  P275  1  0.29169636  0.91807462  0.77177305  1
  P  P276  1  0.79224359  0.25167799  0.02169367  1
  P  P277  1  0.79285439  0.25047826  0.27074971  1
  P  P278  1  0.79222065  0.24869069  0.52271936  1
  P  P279  1  0.79163183  0.25139248  0.77222619  1
  P  P280  1  0.79202352  0.58187318  0.02214633  1
  P  P281  1  0.79172474  0.58306405  0.27340330  1
  P  P282  1  0.79182000  0.58166967  0.52214751  1
  P  P283  1  0.79206511  0.58185449  0.77255296  1
  P  P284  1  0.79117264  0.91632120  0.02263418  1
  P  P285  1  0.79259420  0.91621676  0.27104654  1
  P  P286  1  0.79249337  0.91471419  0.52312822  1
  P  P287  1  0.79086947  0.91658478  0.77340560  1
  O  O288  1  0.03855395  0.24982040  0.18269751  1
  O  O289  1  0.03755562  0.25052191  0.43398725  1
  O  O290  1  0.03596249  0.25067971  0.68323663  1
  O  O291  1  0.03650972  0.25027922  0.93077294  1
  O  O292  1  0.03676585  0.58336846  0.18140510  1
  O  O293  1  0.03709204  0.58280100  0.43467936  1
  O  O294  1  0.03666095  0.58350175  0.68197513  1
  O  O295  1  0.03628794  0.58437957  0.93274782  1
  O  O296  1  0.03791139  0.91492187  0.18324904  1
  O  O297  1  0.03656297  0.91350427  0.43302831  1
  O  O298  1  0.03642765  0.91570233  0.68321771  1
  O  O299  1  0.03768085  0.91692401  0.93201727  1
  O  O300  1  0.53763481  0.24941542  0.18424337  1
  O  O301  1  0.53624864  0.25044871  0.43211551  1
  O  O302  1  0.53655519  0.25005095  0.68112957  1
  O  O303  1  0.53828188  0.25029079  0.93301666  1
  O  O304  1  0.53710215  0.58284974  0.18290084  1
  O  O305  1  0.53725564  0.58504233  0.43241744  1
  O  O306  1  0.53798916  0.58438013  0.68317834  1
  O  O307  1  0.53747171  0.58343704  0.93377343  1
  O  O308  1  0.53721274  0.91614166  0.18263426  1
  O  O309  1  0.53671936  0.91833275  0.43316934  1
  O  O310  1  0.53574187  0.91734566  0.68154380  1
  O  O311  1  0.53642823  0.91671177  0.93120392  1
  O  O312  1  0.46342259  0.08282393  0.06901010  1
  O  O313  1  0.46411305  0.08409861  0.31806062  1
  O  O314  1  0.46320597  0.08267715  0.56652753  1
  O  O315  1  0.46216597  0.08283381  0.81631610  1
  O  O316  1  0.46348006  0.41659938  0.06782120  1
  O  O317  1  0.46357408  0.41526524  0.31714529  1
  O  O318  1  0.46226565  0.41583378  0.56620595  1
  O  O319  1  0.46236563  0.41834452  0.81805331  1
  O  O320  1  0.46295484  0.74936280  0.06747204  1
  O  O321  1  0.46310667  0.75100096  0.31722925  1
  O  O322  1  0.46318520  0.75286646  0.56712975  1
  O  O323  1  0.46346821  0.75305150  0.81712491  1
  O  O324  1  0.96208158  0.08311488  0.06662552  1
  O  O325  1  0.96182022  0.08221354  0.31715082  1
  O  O326  1  0.96274373  0.08228261  0.56847086  1
  O  O327  1  0.96306943  0.08275254  0.81520449  1
  O  O328  1  0.96297693  0.41817389  0.06633670  1
  O  O329  1  0.96320253  0.41666548  0.31920384  1
  O  O330  1  0.96325103  0.41543149  0.56700236  1
  O  O331  1  0.96321478  0.41734836  0.81691212  1
  O  O332  1  0.96292204  0.74919972  0.06749620  1
  O  O333  1  0.96358140  0.75017045  0.31874091  1
  O  O334  1  0.96322889  0.74792698  0.56704187  1
  O  O335  1  0.96244110  0.74793668  0.81716508  1
  O  O336  1  0.21290564  0.08394915  0.05584302  1
  O  O337  1  0.21215782  0.08176944  0.30836511  1
  O  O338  1  0.21281609  0.08227813  0.55784183  1
  O  O339  1  0.21318456  0.08488914  0.80808423  1
  O  O340  1  0.21321557  0.41543278  0.05771503  1
  O  O341  1  0.21331550  0.41675744  0.30779731  1
  O  O342  1  0.21308682  0.41808028  0.55790871  1
  O  O343  1  0.21247696  0.41684862  0.80893679  1
  O  O344  1  0.21317622  0.74825535  0.05750589  1
  O  O345  1  0.21355219  0.74772243  0.30765629  1
  O  O346  1  0.21362415  0.74895400  0.55781988  1
  O  O347  1  0.21329034  0.75039134  0.80638476  1
  O  O348  1  0.71317354  0.08121288  0.05759314  1
  O  O349  1  0.71276617  0.08218612  0.30687351  1
  O  O350  1  0.71270014  0.08412542  0.55867072  1
  O  O351  1  0.71255002  0.08433524  0.80766780  1
  O  O352  1  0.71443668  0.41660337  0.05726346  1
  O  O353  1  0.71396034  0.41761366  0.30654606  1
  O  O354  1  0.71228888  0.41791357  0.55726323  1
  O  O355  1  0.71305294  0.41782219  0.80775574  1
  O  O356  1  0.71326974  0.75148692  0.05791661  1
  O  O357  1  0.71310041  0.74954316  0.30752515  1
  O  O358  1  0.71298111  0.74883345  0.55774450  1
  O  O359  1  0.71320471  0.75195108  0.80812309  1
  O  O360  1  0.28782486  0.25067064  0.19186642  1
  O  O361  1  0.28713157  0.24836467  0.44304935  1
  O  O362  1  0.28643508  0.24954645  0.69343401  1
  O  O363  1  0.28662407  0.25166721  0.94214039  1
  O  O364  1  0.28658970  0.58311447  0.19335774  1
  O  O365  1  0.28699638  0.58408821  0.44217105  1
  O  O366  1  0.28728077  0.58608731  0.69241913  1
  O  O367  1  0.28753652  0.58477541  0.94241555  1
  O  O368  1  0.28755662  0.91701795  0.19264586  1
  O  O369  1  0.28657885  0.91582728  0.44218135  1
  O  O370  1  0.28618490  0.91726305  0.69189371  1
  O  O371  1  0.28739949  0.91740143  0.94098118  1
  O  O372  1  0.78757815  0.25119493  0.19080612  1
  O  O373  1  0.78753517  0.24898823  0.44269462  1
  O  O374  1  0.78608606  0.25061166  0.69230253  1
  O  O375  1  0.78664770  0.25192177  0.94176001  1
  O  O376  1  0.78671822  0.58280239  0.19341182  1
  O  O377  1  0.78637238  0.58214359  0.44229030  1
  O  O378  1  0.78656987  0.58184399  0.69264549  1
  O  O379  1  0.78660919  0.58203036  0.94226527  1
  O  O380  1  0.78713674  0.91633756  0.19113750  1
  O  O381  1  0.78768384  0.91493601  0.44316182  1
  O  O382  1  0.78600963  0.91613913  0.69341877  1
  O  O383  1  0.78581305  0.91637898  0.94268379  1
  O  O384  1  0.22804015  0.25210167  0.05829799  1
  O  O385  1  0.22877216  0.24983269  0.30720149  1
  O  O386  1  0.22775471  0.24823725  0.55848269  1
  O  O387  1  0.22691635  0.25131464  0.80910620  1
  O  O388  1  0.22818438  0.58472131  0.05794736  1
  O  O389  1  0.22760781  0.58265707  0.30952603  1
  O  O390  1  0.22817081  0.58531718  0.55817797  1
  O  O391  1  0.22830531  0.58560950  0.80815510  1
  O  O392  1  0.22869016  0.91620177  0.05642344  1
  O  O393  1  0.22814515  0.91732933  0.30809762  1
  O  O394  1  0.22755111  0.91521457  0.55800294  1
  O  O395  1  0.22757474  0.91849511  0.80789265  1
  O  O396  1  0.72818587  0.25145384  0.05786531  1
  O  O397  1  0.72856787  0.25061845  0.30629480  1
  O  O398  1  0.72770486  0.24846938  0.55780868  1
  O  O399  1  0.72754207  0.25192869  0.80836778  1
  O  O400  1  0.72790638  0.58176446  0.05826383  1
  O  O401  1  0.72749959  0.58324634  0.30939227  1
  O  O402  1  0.72773905  0.58161677  0.55849602  1
  O  O403  1  0.72795858  0.58198929  0.80865362  1
  O  O404  1  0.72718331  0.91626084  0.05918025  1
  O  O405  1  0.72841298  0.91582256  0.30688928  1
  O  O406  1  0.72805274  0.91510591  0.55834016  1
  O  O407  1  0.72670002  0.91670693  0.80933057  1
  O  O408  1  0.27152450  0.08346578  0.19322873  1
  O  O409  1  0.27190352  0.08086728  0.44211719  1
  O  O410  1  0.27200977  0.08486690  0.69211431  1
  O  O411  1  0.27256638  0.08302665  0.94029687  1
  O  O412  1  0.27203904  0.41530973  0.19182586  1
  O  O413  1  0.27240123  0.41832946  0.44233011  1
  O  O414  1  0.27146001  0.41719562  0.69360789  1
  O  O415  1  0.27220371  0.41563826  0.94194833  1
  O  O416  1  0.27234632  0.74757538  0.19175525  1
  O  O417  1  0.27234988  0.74816317  0.44168431  1
  O  O418  1  0.27265249  0.75079991  0.69046548  1
  O  O419  1  0.27202559  0.74897045  0.94170769  1
  O  O420  1  0.77194510  0.08179994  0.19118624  1
  O  O421  1  0.77173719  0.08319492  0.44331560  1
  O  O422  1  0.77173321  0.08489430  0.69206895  1
  O  O423  1  0.77172733  0.08193575  0.94156991  1
  O  O424  1  0.77301062  0.41765916  0.19042117  1
  O  O425  1  0.77207758  0.41834327  0.44203887  1
  O  O426  1  0.77153843  0.41828995  0.69149934  1
  O  O427  1  0.77283584  0.41648464  0.94055596  1
  O  O428  1  0.77212538  0.75110277  0.19178722  1
  O  O429  1  0.77226748  0.74747062  0.44214485  1
  O  O430  1  0.77205942  0.75139043  0.69224747  1
  O  O431  1  0.77200000  0.75133143  0.94199092  1
  O  O432  1  0.02141892  0.08255991  0.18172002  1
  O  O433  1  0.02102338  0.08236251  0.43219014  1
  O  O434  1  0.02267382  0.08205474  0.68382178  1
  O  O435  1  0.02188343  0.08326304  0.93084466  1
  O  O436  1  0.02204729  0.41719212  0.18160846  1
  O  O437  1  0.02277686  0.41565657  0.43491478  1
  O  O438  1  0.02193502  0.41501465  0.68295461  1
  O  O439  1  0.02246470  0.41853379  0.93252959  1
  O  O440  1  0.02212954  0.75062669  0.18313330  1
  O  O441  1  0.02247094  0.74960247  0.43487788  1
  O  O442  1  0.02178713  0.74752437  0.68310097  1
  O  O443  1  0.02185305  0.74789354  0.93255269  1
  O  O444  1  0.52276485  0.08304121  0.18486834  1
  O  O445  1  0.52289843  0.08335327  0.43435976  1
  O  O446  1  0.52185840  0.08167319  0.68258989  1
  O  O447  1  0.52148798  0.08294051  0.93153042  1
  O  O448  1  0.52238486  0.41558318  0.18351460  1
  O  O449  1  0.52230190  0.41523478  0.43295426  1
  O  O450  1  0.52113963  0.41682808  0.68153686  1
  O  O451  1  0.52217062  0.41895997  0.93321252  1
  O  O452  1  0.52200248  0.74885574  0.18318066  1
  O  O453  1  0.52211716  0.75289936  0.43289200  1
  O  O454  1  0.52234796  0.75289019  0.68275746  1
  O  O455  1  0.52233210  0.75225153  0.93296033  1
  O  O456  1  0.47883079  0.25008996  0.06853340  1
  O  O457  1  0.47771127  0.25015872  0.31563048  1
  O  O458  1  0.47696028  0.25088155  0.56555961  1
  O  O459  1  0.47842653  0.24973915  0.81833389  1
  O  O460  1  0.47819300  0.58227616  0.06712652  1
  O  O461  1  0.47798489  0.58497845  0.31701699  1
  O  O462  1  0.47881824  0.58441667  0.56809524  1
  O  O463  1  0.47853908  0.58483563  0.81836151  1
  O  O464  1  0.47778298  0.91506278  0.06712804  1
  O  O465  1  0.47807354  0.91866033  0.31717055  1
  O  O466  1  0.47717516  0.91759753  0.56507133  1
  O  O467  1  0.47708062  0.91774563  0.81526110  1
  O  O468  1  0.97893022  0.25034899  0.06789579  1
  O  O469  1  0.97860881  0.25017011  0.31855178  1
  O  O470  1  0.97772470  0.25129616  0.56702157  1
  O  O471  1  0.97668556  0.25062769  0.81530786  1
  O  O472  1  0.97707920  0.58319987  0.06583647  1
  O  O473  1  0.97811967  0.58318058  0.31909881  1
  O  O474  1  0.97723239  0.58337601  0.56619725  1
  O  O475  1  0.97789327  0.58450129  0.81654545  1
  O  O476  1  0.97871569  0.91580781  0.06804455  1
  O  O477  1  0.97794983  0.91349298  0.31700196  1
  O  O478  1  0.97761151  0.91407804  0.56752257  1
  O  O479  1  0.97781950  0.91680212  0.81705883  1
  O  O480  1  0.07458779  0.31331764  0.07449559  1
  O  O481  1  0.07416339  0.31349567  0.32556709  1
  O  O482  1  0.07334038  0.31373109  0.57478085  1
  O  O483  1  0.07186344  0.31421394  0.82297619  1
  O  O484  1  0.07187445  0.64727839  0.07324074  1
  O  O485  1  0.07355596  0.64626984  0.32631623  1
  O  O486  1  0.07264605  0.64647852  0.57346187  1
  O  O487  1  0.07283470  0.64792798  0.82401125  1
  O  O488  1  0.07409575  0.97927890  0.07536614  1
  O  O489  1  0.07288851  0.97769129  0.32556752  1
  O  O490  1  0.07290708  0.97819082  0.57484707  1
  O  O491  1  0.07282011  0.98058689  0.82324944  1
  O  O492  1  0.57461756  0.31270036  0.07602373  1
  O  O493  1  0.57281368  0.31367385  0.32369579  1
  O  O494  1  0.57255771  0.31368298  0.57308015  1
  O  O495  1  0.57345278  0.31401072  0.82475161  1
  O  O496  1  0.57382700  0.64567589  0.07488600  1
  O  O497  1  0.57272732  0.64882146  0.32388970  1
  O  O498  1  0.57432587  0.64790743  0.57546363  1
  O  O499  1  0.57409815  0.64776960  0.82629546  1
  O  O500  1  0.57299991  0.97902811  0.07426305  1
  O  O501  1  0.57305152  0.98206998  0.32467558  1
  O  O502  1  0.57237195  0.98098508  0.57356935  1
  O  O503  1  0.57201500  0.98103376  0.82301941  1
  O  O504  1  0.42787472  0.01924168  0.17719182  1
  O  O505  1  0.42747399  0.02048279  0.42613523  1
  O  O506  1  0.42646458  0.01905504  0.67492385  1
  O  O507  1  0.42572158  0.02010370  0.92485746  1
  O  O508  1  0.42765011  0.35183444  0.17586075  1
  O  O509  1  0.42684059  0.35230798  0.42568453  1
  O  O510  1  0.42557651  0.35344764  0.67505438  1
  O  O511  1  0.42706334  0.35470420  0.92597312  1
  O  O512  1  0.42737955  0.68509655  0.17588583  1
  O  O513  1  0.42701303  0.68850164  0.42565121  1
  O  O514  1  0.42729048  0.68894269  0.67498574  1
  O  O515  1  0.42695794  0.68888821  0.92453030  1
  O  O516  1  0.92584592  0.01951619  0.17461413  1
  O  O517  1  0.92571948  0.01869164  0.42522303  1
  O  O518  1  0.92722667  0.01888124  0.67670639  1
  O  O519  1  0.92651075  0.01976700  0.92385109  1
  O  O520  1  0.92680080  0.35373625  0.17416359  1
  O  O521  1  0.92742314  0.35255173  0.42698811  1
  O  O522  1  0.92651622  0.35221119  0.67569034  1
  O  O523  1  0.92724367  0.35436105  0.92502923  1
  O  O524  1  0.92680935  0.68663922  0.17607499  1
  O  O525  1  0.92775926  0.68556303  0.42639551  1
  O  O526  1  0.92673970  0.68401991  0.67533261  1
  O  O527  1  0.92626687  0.68517101  0.92616752  1
  O  O528  1  0.17622024  0.01940531  0.19941772  1
  O  O529  1  0.17694491  0.01757265  0.44986251  1
  O  O530  1  0.17637508  0.02177820  0.70009871  1
  O  O531  1  0.17711192  0.02006989  0.94782045  1
  O  O532  1  0.17698110  0.35215581  0.19989227  1
  O  O533  1  0.17731733  0.35409541  0.45059031  1
  O  O534  1  0.17591942  0.35398894  0.70035173  1
  O  O535  1  0.17675963  0.35262615  0.94874904  1
  O  O536  1  0.17695500  0.68449509  0.19926593  1
  O  O537  1  0.17739832  0.68487445  0.44943516  1
  O  O538  1  0.17772201  0.68679958  0.69806397  1
  O  O539  1  0.17721143  0.68503076  0.94856549  1
  O  O540  1  0.67688576  0.01842785  0.19865057  1
  O  O541  1  0.67659840  0.01952656  0.45117185  1
  O  O542  1  0.67626810  0.02127584  0.69965498  1
  O  O543  1  0.67669259  0.01847484  0.94861274  1
  O  O544  1  0.67852018  0.35333218  0.19847184  1
  O  O545  1  0.67717069  0.35397695  0.44926240  1
  O  O546  1  0.67623989  0.35471061  0.69962377  1
  O  O547  1  0.67764285  0.35337890  0.94890722  1
  O  O548  1  0.67695057  0.68703815  0.19916516  1
  O  O549  1  0.67697912  0.68496169  0.44921477  1
  O  O550  1  0.67679973  0.68782863  0.70081250  1
  O  O551  1  0.67679398  0.68767933  0.95047273  1
  O  O552  1  0.32343792  0.31479600  0.05091019  1
  O  O553  1  0.32417257  0.31338512  0.30049570  1
  O  O554  1  0.32289184  0.31225187  0.55056255  1
  O  O555  1  0.32239410  0.31418889  0.80103925  1
  O  O556  1  0.32346860  0.64804035  0.05117331  1
  O  O557  1  0.32259060  0.64657363  0.30164946  1
  O  O558  1  0.32345071  0.64819590  0.55046246  1
  O  O559  1  0.32326121  0.64946708  0.80095993  1
  O  O560  1  0.32390206  0.98042272  0.04933592  1
  O  O561  1  0.32303814  0.98086263  0.30129478  1
  O  O562  1  0.32299902  0.97877933  0.55020869  1
  O  O563  1  0.32254244  0.98178403  0.79967939  1
  O  O564  1  0.82324112  0.31493083  0.05042130  1
  O  O565  1  0.82434781  0.31348762  0.29959530  1
  O  O566  1  0.82286626  0.31256592  0.55056483  1
  O  O567  1  0.82255155  0.31508272  0.80011565  1
  O  O568  1  0.82277414  0.64580742  0.04991879  1
  O  O569  1  0.82229396  0.64697840  0.30144910  1
  O  O570  1  0.82303442  0.64510886  0.55052679  1
  O  O571  1  0.82304133  0.64575089  0.80004566  1
  O  O572  1  0.82214287  0.98002676  0.05075667  1
  O  O573  1  0.82360018  0.97958846  0.29970624  1
  O  O574  1  0.82379685  0.97813855  0.55113255  1
  O  O575  1  0.82139328  0.98066132  0.80124747  1
  O  O576  1  0.42775936  0.14677916  0.17693779  1
  O  O577  1  0.42843040  0.14761926  0.42668639  1
  O  O578  1  0.42692531  0.14605394  0.67465745  1
  O  O579  1  0.42648602  0.14692315  0.92461801  1
  O  O580  1  0.42658380  0.47889151  0.17600015  1
  O  O581  1  0.42735148  0.47953131  0.42451818  1
  O  O582  1  0.42577422  0.48039867  0.67372135  1
  O  O583  1  0.42685778  0.48204211  0.92665278  1
  O  O584  1  0.42633681  0.81226575  0.17546134  1
  O  O585  1  0.42684837  0.81567613  0.42499719  1
  O  O586  1  0.42695427  0.81603315  0.67568043  1
  O  O587  1  0.42738348  0.81597316  0.92601363  1
  O  O588  1  0.92620612  0.14662945  0.17479319  1
  O  O589  1  0.92548678  0.14572009  0.42521918  1
  O  O590  1  0.92817813  0.14648330  0.67667577  1
  O  O591  1  0.92634449  0.14660354  0.92318522  1
  O  O592  1  0.92646814  0.48058515  0.17517068  1
  O  O593  1  0.92828904  0.48006681  0.42787930  1
  O  O594  1  0.92693708  0.47912134  0.67488668  1
  O  O595  1  0.92741550  0.48153961  0.92522500  1
  O  O596  1  0.92699713  0.81367971  0.17565188  1
  O  O597  1  0.92711537  0.81284860  0.42737449  1
  O  O598  1  0.92638690  0.81097456  0.67524213  1
  O  O599  1  0.92694729  0.81227901  0.92479437  1
  O  O600  1  0.07412554  0.18635773  0.07410544  1
  O  O601  1  0.07384850  0.18645830  0.32621489  1
  O  O602  1  0.07254968  0.18668945  0.57561799  1
  O  O603  1  0.07141062  0.18665721  0.82224770  1
  O  O604  1  0.07234258  0.51983944  0.07301303  1
  O  O605  1  0.07346307  0.51959582  0.32606750  1
  O  O606  1  0.07173343  0.51907838  0.57411126  1
  O  O607  1  0.07337739  0.52109416  0.82484798  1
  O  O608  1  0.07434974  0.85243327  0.07447562  1
  O  O609  1  0.07332134  0.85049964  0.32440720  1
  O  O610  1  0.07278208  0.85106874  0.57535615  1
  O  O611  1  0.07341829  0.85334052  0.82439742  1
  O  O612  1  0.57382364  0.18589235  0.07579505  1
  O  O613  1  0.57258005  0.18641053  0.32417922  1
  O  O614  1  0.57131658  0.18622104  0.57272376  1
  O  O615  1  0.57428215  0.18696084  0.82468184  1
  O  O616  1  0.57296148  0.51853791  0.07467571  1
  O  O617  1  0.57357817  0.52150334  0.32498671  1
  O  O618  1  0.57409428  0.52083473  0.57493677  1
  O  O619  1  0.57380166  0.52079030  0.82509070  1
  O  O620  1  0.57273962  0.85185178  0.07425753  1
  O  O621  1  0.57350418  0.85511743  0.32514715  1
  O  O622  1  0.57203861  0.85384451  0.57312274  1
  O  O623  1  0.57208417  0.85378532  0.82256440  1
  O  O624  1  0.32301449  0.18770379  0.04978938  1
  O  O625  1  0.32416400  0.18653686  0.29969647  1
  O  O626  1  0.32278154  0.18482266  0.55151653  1
  O  O627  1  0.32155182  0.18686469  0.80256806  1
  O  O628  1  0.32337051  0.52098306  0.05032732  1
  O  O629  1  0.32257247  0.51920991  0.30139467  1
  O  O630  1  0.32337994  0.52125531  0.55055848  1
  O  O631  1  0.32373246  0.52225720  0.80002533  1
  O  O632  1  0.32429995  0.85353169  0.04894638  1
  O  O633  1  0.32359629  0.85357072  0.30016800  1
  O  O634  1  0.32238103  0.85172042  0.55046195  1
  O  O635  1  0.32286581  0.85463352  0.79993428  1
  O  O636  1  0.82339357  0.18769006  0.04871360  1
  O  O637  1  0.82359649  0.18656654  0.29839586  1
  O  O638  1  0.82302333  0.18533411  0.55150730  1
  O  O639  1  0.82281028  0.18797720  0.80044753  1
  O  O640  1  0.82322704  0.51872994  0.05075605  1
  O  O641  1  0.82270102  0.51957235  0.30187001  1
  O  O642  1  0.82271603  0.51817541  0.55066011  1
  O  O643  1  0.82313910  0.51860599  0.80118657  1
  O  O644  1  0.82222543  0.85273110  0.05100258  1
  O  O645  1  0.82404210  0.85286456  0.29930544  1
  O  O646  1  0.82273153  0.85091828  0.55166006  1
  O  O647  1  0.82204699  0.85324353  0.80194580  1
  O  O648  1  0.17589629  0.14629047  0.20061778  1
  O  O649  1  0.17648034  0.14483778  0.44969023  1
  O  O650  1  0.17731663  0.14872788  0.69939394  1
  O  O651  1  0.17811606  0.14765172  0.94748498  1
  O  O652  1  0.17673064  0.47926107  0.19944154  1
  O  O653  1  0.17730384  0.48144328  0.44928799  1
  O  O654  1  0.17616143  0.48086030  0.70115236  1
  O  O655  1  0.17717665  0.47972162  0.95040989  1
  O  O656  1  0.17745703  0.81174516  0.19998450  1
  O  O657  1  0.17699025  0.81177363  0.44967136  1
  O  O658  1  0.17762499  0.81421994  0.69823857  1
  O  O659  1  0.17642304  0.81203572  0.94991923  1
  O  O660  1  0.67677340  0.14571410  0.19912805  1
  O  O661  1  0.67612947  0.14652131  0.44979295  1
  O  O662  1  0.67677055  0.14846922  0.69932341  1
  O  O663  1  0.67646291  0.14560322  0.95067610  1
  O  O664  1  0.67758964  0.48076392  0.19834695  1
  O  O665  1  0.67650283  0.48107623  0.44827995  1
  O  O666  1  0.67645991  0.48164254  0.69938499  1
  O  O667  1  0.67817607  0.48061048  0.94927685  1
  O  O668  1  0.67687521  0.81411949  0.19958591  1
  O  O669  1  0.67718437  0.81204911  0.44963908  1
  O  O670  1  0.67707704  0.81499098  0.69915177  1
  O  O671  1  0.67684664  0.81479924  0.94935355  1
