# generated using pymatgen
data_Na2MnFe(PO4)2
_symmetry_space_group_name_H-M   'P 1'
_cell_length_a   22.34607542
_cell_length_b   20.09750100
_cell_length_c   19.44749708
_cell_angle_alpha   89.96228652
_cell_angle_beta   90.01173333
_cell_angle_gamma   90.02688901
_symmetry_Int_Tables_number   1
_chemical_formula_structural   Na2MnFe(PO4)2
_chemical_formula_sum   'Na96 Mn48 Fe48 P96 O384'
_cell_volume   8733.87321650
_cell_formula_units_Z   48
loop_
 _symmetry_equiv_pos_site_id
 _symmetry_equiv_pos_as_xyz
  1  'x, y, z'
loop_
 _atom_site_type_symbol
 _atom_site_label
 _atom_site_symmetry_multiplicity
 _atom_site_fract_x
 _atom_site_fract_y
 _atom_site_fract_z
 _atom_site_occupancy
  Na  Na0  1  0.13990303  0.25073287  0.24453821  1
  Na  Na1  1  0.14031960  0.25127165  0.49516792  1
  Na  Na2  1  0.14021637  0.25191801  0.74340621  1
  Na  Na3  1  0.13973711  0.25094127  0.99262199  1
  Na  Na4  1  0.13954251  0.58210877  0.24474578  1
  Na  Na5  1  0.14048946  0.58221273  0.49397811  1
  Na  Na6  1  0.14067763  0.58309869  0.74393666  1
  Na  Na7  1  0.14016885  0.58292483  0.99360777  1
  Na  Na8  1  0.14004788  0.91632485  0.24525068  1
  Na  Na9  1  0.13966249  0.91629603  0.49478509  1
  Na  Na10  1  0.13981820  0.91813446  0.74331112  1
  Na  Na11  1  0.14018279  0.91670052  0.99393604  1
  Na  Na12  1  0.64009150  0.25171762  0.24327155  1
  Na  Na13  1  0.64046734  0.25094428  0.49231491  1
  Na  Na14  1  0.64096844  0.25043277  0.74252315  1
  Na  Na15  1  0.64033902  0.25058316  0.99379461  1
  Na  Na16  1  0.64014814  0.58427775  0.24319014  1
  Na  Na17  1  0.64038598  0.58319023  0.49315924  1
  Na  Na18  1  0.64066705  0.58165431  0.74266987  1
  Na  Na19  1  0.64055208  0.58165080  0.99295204  1
  Na  Na20  1  0.64058067  0.91817301  0.24381268  1
  Na  Na21  1  0.64048944  0.91715558  0.49327354  1
  Na  Na22  1  0.64087881  0.91485133  0.74258188  1
  Na  Na23  1  0.64040958  0.91566381  0.99426501  1
  Na  Na24  1  0.35974441  0.08386401  0.00644715  1
  Na  Na25  1  0.36016873  0.08444773  0.25723423  1
  Na  Na26  1  0.35975956  0.08421408  0.50654792  1
  Na  Na27  1  0.35956938  0.08495411  0.75494126  1
  Na  Na28  1  0.36081407  0.41676122  0.00519508  1
  Na  Na29  1  0.36027951  0.41668425  0.25621559  1
  Na  Na30  1  0.35960594  0.41632604  0.50537425  1
  Na  Na31  1  0.36022362  0.41748331  0.75566748  1
  Na  Na32  1  0.36006245  0.74944367  0.00532707  1
  Na  Na33  1  0.35989521  0.74869471  0.25706663  1
  Na  Na34  1  0.36055917  0.74932465  0.50725390  1
  Na  Na35  1  0.36017624  0.74980325  0.75547814  1
  Na  Na36  1  0.85933299  0.08310697  0.00581425  1
  Na  Na37  1  0.85937957  0.08466281  0.25640950  1
  Na  Na38  1  0.85871991  0.08440859  0.50802800  1
  Na  Na39  1  0.85965662  0.08308100  0.75673252  1
  Na  Na40  1  0.85987195  0.41537482  0.00598041  1
  Na  Na41  1  0.85917931  0.41746835  0.25760575  1
  Na  Na42  1  0.85883168  0.41598213  0.50659999  1
  Na  Na43  1  0.85945302  0.41561358  0.75559328  1
  Na  Na44  1  0.85985248  0.74950002  0.00687165  1
  Na  Na45  1  0.85927659  0.74978975  0.25645916  1
  Na  Na46  1  0.85951357  0.74884348  0.50767999  1
  Na  Na47  1  0.85942738  0.74819457  0.75645561  1
  Na  Na48  1  0.10915765  0.08356200  0.11872125  1
  Na  Na49  1  0.10911406  0.08275391  0.37094793  1
  Na  Na50  1  0.10906983  0.08405946  0.61905105  1
  Na  Na51  1  0.10880523  0.08457247  0.86838527  1
  Na  Na52  1  0.10892943  0.41697124  0.11890033  1
  Na  Na53  1  0.10974697  0.41603431  0.36949857  1
  Na  Na54  1  0.11028081  0.41660923  0.61853540  1
  Na  Na55  1  0.11001329  0.41541446  0.86771427  1
  Na  Na56  1  0.10909360  0.74981607  0.11911164  1
  Na  Na57  1  0.10891459  0.74883447  0.37079029  1
  Na  Na58  1  0.10901647  0.75101044  0.61814375  1
  Na  Na59  1  0.10915076  0.75117961  0.86940244  1
  Na  Na60  1  0.60973321  0.08492332  0.11959960  1
  Na  Na61  1  0.60956835  0.08561038  0.36815560  1
  Na  Na62  1  0.61036742  0.08283178  0.61714712  1
  Na  Na63  1  0.60954724  0.08238625  0.86834909  1
  Na  Na64  1  0.61016105  0.41712502  0.11852300  1
  Na  Na65  1  0.61008846  0.41739761  0.36659344  1
  Na  Na66  1  0.61040682  0.41769693  0.61714044  1
  Na  Na67  1  0.61065428  0.41739145  0.86783662  1
  Na  Na68  1  0.60971545  0.74897432  0.11891565  1
  Na  Na69  1  0.60967584  0.75002694  0.36865110  1
  Na  Na70  1  0.60985295  0.74935100  0.61857847  1
  Na  Na71  1  0.60993907  0.74908709  0.86767577  1
  Na  Na72  1  0.39120935  0.25114243  0.13150321  1
  Na  Na73  1  0.39034244  0.25099005  0.38117284  1
  Na  Na74  1  0.39036634  0.25056878  0.63101657  1
  Na  Na75  1  0.39067475  0.25153418  0.88045514  1
  Na  Na76  1  0.39104228  0.58191225  0.13069613  1
  Na  Na77  1  0.39067571  0.58375622  0.38117939  1
  Na  Na78  1  0.39085757  0.58393721  0.63128887  1
  Na  Na79  1  0.39092746  0.58220633  0.88023896  1
  Na  Na80  1  0.39073746  0.91703258  0.13193865  1
  Na  Na81  1  0.39134102  0.91742705  0.38146901  1
  Na  Na82  1  0.39089976  0.91507033  0.63100331  1
  Na  Na83  1  0.39087678  0.91595022  0.87991338  1
  Na  Na84  1  0.89010388  0.25034159  0.13109303  1
  Na  Na85  1  0.88937793  0.24909003  0.38271135  1
  Na  Na86  1  0.88985092  0.24963054  0.63227360  1
  Na  Na87  1  0.88980406  0.24979538  0.88079813  1
  Na  Na88  1  0.88996252  0.58328659  0.13143633  1
  Na  Na89  1  0.88938910  0.58252860  0.38262551  1
  Na  Na90  1  0.88949057  0.58251037  0.63139672  1
  Na  Na91  1  0.89033207  0.58248903  0.88171511  1
  Na  Na92  1  0.89000459  0.91592349  0.13087877  1
  Na  Na93  1  0.89036351  0.91569930  0.38270451  1
  Na  Na94  1  0.89003892  0.91758970  0.63200140  1
  Na  Na95  1  0.89017079  0.91660681  0.88181543  1
  Mn  Mn96  1  0.24951477  0.66617695  0.87458845  1
  Mn  Mn97  1  0.49956672  0.16775180  -0.00024669  1
  Mn  Mn98  1  0.75021268  0.83211820  0.62468706  1
  Mn  Mn99  1  -0.00052788  0.49916277  0.50094821  1
  Mn  Mn100  1  0.75023308  0.66491369  0.87538088  1
  Mn  Mn101  1  0.24994277  0.16756711  0.12515428  1
  Mn  Mn102  1  0.49981161  0.33340184  0.49884432  1
  Mn  Mn103  1  0.25010888  0.00046867  0.62533666  1
  Mn  Mn104  1  -0.00126592  0.66553206  0.25030372  1
  Mn  Mn105  1  -0.00045944  0.16646545  0.50096773  1
  Mn  Mn106  1  0.00071426  0.49919141  0.75056233  1
  Mn  Mn107  1  0.25023797  0.83268622  0.37527497  1
  Mn  Mn108  1  0.50006461  0.00037606  0.49986327  1
  Mn  Mn109  1  0.25017929  0.00041479  0.12538228  1
  Mn  Mn110  1  0.75026149  0.00178245  0.37438005  1
  Mn  Mn111  1  0.50134127  0.33429189  0.74952239  1
  Mn  Mn112  1  0.24966258  0.33400949  0.12463021  1
  Mn  Mn113  1  0.75009210  0.00025773  0.12519955  1
  Mn  Mn114  1  0.24984982  0.16839627  0.87506324  1
  Mn  Mn115  1  0.50021399  0.83260181  0.00041802  1
  Mn  Mn116  1  0.75024889  0.33377010  0.12518300  1
  Mn  Mn117  1  0.25014245  0.83370589  0.87512564  1
  Mn  Mn118  1  -0.00038260  -0.00062851  0.24985931  1
  Mn  Mn119  1  0.25020546  0.66595820  0.62531584  1
  Mn  Mn120  1  -0.00021844  0.33351322  0.25028595  1
  Mn  Mn121  1  0.24919293  0.16795719  0.37584664  1
  Mn  Mn122  1  -0.00009919  0.49946952  0.00000584  1
  Mn  Mn123  1  -0.00040014  0.00035577  0.00000091  1
  Mn  Mn124  1  0.50028934  0.83325113  0.25016396  1
  Mn  Mn125  1  0.25006457  0.00015378  0.37619859  1
  Mn  Mn126  1  0.49978277  -0.00131897  0.74854404  1
  Mn  Mn127  1  -0.00024391  0.83239301  0.25114295  1
  Mn  Mn128  1  0.25022050  0.66572139  0.12524850  1
  Mn  Mn129  1  0.50012934  0.66501525  -0.00104433  1
  Mn  Mn130  1  0.75043838  0.83323751  0.37548586  1
  Mn  Mn131  1  0.50010747  0.50131950  0.49864463  1
  Mn  Mn132  1  0.24937185  0.66526685  0.37618430  1
  Mn  Mn133  1  0.25029242  0.83302886  0.12538686  1
  Mn  Mn134  1  0.74903874  0.16651055  0.87451657  1
  Mn  Mn135  1  -0.00021596  0.66695163  0.75048142  1
  Mn  Mn136  1  -0.00043187  0.16660646  0.25035740  1
  Mn  Mn137  1  0.74918780  -0.00164099  0.87563033  1
  Mn  Mn138  1  0.24977855  0.49932455  0.12468316  1
  Mn  Mn139  1  0.50076333  0.16656801  0.74997825  1
  Mn  Mn140  1  0.25032207  0.00101788  0.87441438  1
  Mn  Mn141  1  -0.00099694  0.83432114  0.74963277  1
  Mn  Mn142  1  0.50042169  0.00007921  0.00003505  1
  Mn  Mn143  1  0.74998465  0.66652114  0.12439080  1
  Fe  Fe144  1  0.50126618  0.33444333  0.00022936  1
  Fe  Fe145  1  0.50067721  0.50044681  0.24911752  1
  Fe  Fe146  1  0.74988841  0.83308116  0.12522374  1
  Fe  Fe147  1  0.24971355  0.16825130  0.62546416  1
  Fe  Fe148  1  0.75023362  0.83188198  0.87461549  1
  Fe  Fe149  1  0.50083760  0.83230246  0.74974804  1
  Fe  Fe150  1  0.50064491  0.66721624  0.50016570  1
  Fe  Fe151  1  0.74973397  0.50073191  0.37529152  1
  Fe  Fe152  1  0.49966266  0.66682914  0.25005733  1
  Fe  Fe153  1  0.50002402  0.16769003  0.24938819  1
  Fe  Fe154  1  0.25063448  0.49965532  0.87397656  1
  Fe  Fe155  1  0.75076116  0.49860887  0.87392344  1
  Fe  Fe156  1  0.24989420  0.83323610  0.62529476  1
  Fe  Fe157  1  -0.00033209  0.33279759  0.75015896  1
  Fe  Fe158  1  -0.00069230  0.16704917  -0.00091850  1
  Fe  Fe159  1  0.74992402  0.66503562  0.62515476  1
  Fe  Fe160  1  0.75040751  0.49999116  0.12525057  1
  Fe  Fe161  1  0.75002090  -0.00012138  0.62519050  1
  Fe  Fe162  1  -0.00014629  0.83353616  0.00025790  1
  Fe  Fe163  1  0.74982383  0.49908318  0.62405795  1
  Fe  Fe164  1  0.25045416  0.49939795  0.62462785  1
  Fe  Fe165  1  0.74999051  0.16748802  0.12515535  1
  Fe  Fe166  1  -0.00017649  0.33270200  -0.00059226  1
  Fe  Fe167  1  -0.00104288  0.00010796  0.50079362  1
  Fe  Fe168  1  0.24984496  0.33365760  0.37563641  1
  Fe  Fe169  1  0.50012819  0.33405346  0.24940424  1
  Fe  Fe170  1  -0.00013792  0.16710359  0.74982038  1
  Fe  Fe171  1  0.50042161  0.66639297  0.74960318  1
  Fe  Fe172  1  0.25024953  0.33446175  0.62492641  1
  Fe  Fe173  1  0.25103504  0.33434999  0.87382016  1
  Fe  Fe174  1  0.50039825  0.00078402  0.25076725  1
  Fe  Fe175  1  0.75021131  0.33300987  0.87411260  1
  Fe  Fe176  1  -0.00036387  0.33292679  0.50034220  1
  Fe  Fe177  1  -0.00068739  0.83338309  0.50073093  1
  Fe  Fe178  1  0.00009165  0.66658133  0.00066802  1
  Fe  Fe179  1  0.74983962  0.33394051  0.37517137  1
  Fe  Fe180  1  0.50116218  0.49941307  -0.00002234  1
  Fe  Fe181  1  0.50053208  0.50025788  0.74924708  1
  Fe  Fe182  1  0.74967073  0.66664908  0.37485580  1
  Fe  Fe183  1  -0.00024294  0.66578345  0.50044026  1
  Fe  Fe184  1  -0.00069070  0.49960896  0.25037986  1
  Fe  Fe185  1  0.25002128  0.49907852  0.37521555  1
  Fe  Fe186  1  0.74966663  0.16801913  0.37581604  1
  Fe  Fe187  1  0.50047110  0.83306595  0.49980305  1
  Fe  Fe188  1  0.50005186  0.16725025  0.49898795  1
  Fe  Fe189  1  0.74944920  0.33362490  0.62401090  1
  Fe  Fe190  1  -0.00001488  0.00053587  0.75077270  1
  Fe  Fe191  1  0.74944636  0.16715581  0.62501938  1
  P  P192  1  0.04106602  0.25008805  0.10114944  1
  P  P193  1  0.04212643  0.24990505  0.35405109  1
  P  P194  1  0.04164547  0.25145381  0.60357158  1
  P  P195  1  0.04089818  0.24987476  0.85204119  1
  P  P196  1  0.04192200  0.58385605  0.10291843  1
  P  P197  1  0.04119545  0.58164135  0.35344068  1
  P  P198  1  0.04215907  0.58403342  0.60278630  1
  P  P199  1  0.04264298  0.58352952  0.85401542  1
  P  P200  1  0.04213256  0.91555526  0.10249783  1
  P  P201  1  0.04191759  0.91635179  0.35481088  1
  P  P202  1  0.04075895  0.91749685  0.60230328  1
  P  P203  1  0.04178574  0.91780355  0.85292047  1
  P  P204  1  0.54217113  0.25201384  0.10304583  1
  P  P205  1  0.54111545  0.25067834  0.35111668  1
  P  P206  1  0.54262922  0.24930433  0.60143295  1
  P  P207  1  0.54345213  0.25090701  0.85330889  1
  P  P208  1  0.54262423  0.58147196  0.10270944  1
  P  P209  1  0.54150020  0.58408215  0.35130782  1
  P  P210  1  0.54227774  0.58478836  0.60264148  1
  P  P211  1  0.54208325  0.58269351  0.85103465  1
  P  P212  1  0.54287971  0.91691752  0.10400053  1
  P  P213  1  0.54263301  0.91799739  0.35296893  1
  P  P214  1  0.54248258  0.91468803  0.60225443  1
  P  P215  1  0.54297192  0.91499777  0.85180837  1
  P  P216  1  0.45879476  0.08362872  0.14868189  1
  P  P217  1  0.45796675  0.08523232  0.39659716  1
  P  P218  1  0.45762799  0.08366991  0.64582540  1
  P  P219  1  0.45721018  0.08324672  0.89660169  1
  P  P220  1  0.45921026  0.41703483  0.14747044  1
  P  P221  1  0.45807151  0.41734545  0.39520882  1
  P  P222  1  0.45838870  0.41834936  0.64690836  1
  P  P223  1  0.45971423  0.41713955  0.89771641  1
  P  P224  1  0.45760297  0.74837168  0.14757396  1
  P  P225  1  0.45880342  0.74993448  0.39828385  1
  P  P226  1  0.45924124  0.74957259  0.64754492  1
  P  P227  1  0.45805557  0.74930579  0.89572551  1
  P  P228  1  0.95686120  0.08375879  0.14629115  1
  P  P229  1  0.95666877  0.08196766  0.39843664  1
  P  P230  1  0.95850026  0.08307883  0.64870598  1
  P  P231  1  0.95741196  0.08479952  0.89666357  1
  P  P232  1  0.95719574  0.41769060  0.14751489  1
  P  P233  1  0.95718181  0.41516125  0.39789438  1
  P  P234  1  0.95804634  0.41499512  0.64759545  1
  P  P235  1  0.95805615  0.41452703  0.89703090  1
  P  P236  1  0.95694304  0.74972461  0.14650716  1
  P  P237  1  0.95796381  0.74918112  0.39952545  1
  P  P238  1  0.95705374  0.75005292  0.64619742  1
  P  P239  1  0.95839514  0.75005391  0.89894024  1
  P  P240  1  0.20687437  0.08399346  0.22872859  1
  P  P241  1  0.20722772  0.08440470  0.47965375  1
  P  P242  1  0.20759664  0.08585723  0.72731439  1
  P  P243  1  0.20676844  0.08407672  0.97796240  1
  P  P244  1  0.20688910  0.41657225  0.22907186  1
  P  P245  1  0.20848898  0.41650427  0.47760651  1
  P  P246  1  0.20881052  0.41718478  0.72697612  1
  P  P247  1  0.20863171  0.41668313  0.97547178  1
  P  P248  1  0.20695410  0.74907717  0.22868973  1
  P  P249  1  0.20750640  0.74974375  0.47947698  1
  P  P250  1  0.20735932  0.75099200  0.72730295  1
  P  P251  1  0.20704081  0.74969159  0.97821146  1
  P  P252  1  0.70814177  0.08586894  0.22788374  1
  P  P253  1  0.70776171  0.08544093  0.47817272  1
  P  P254  1  0.70852875  0.08310461  0.72635767  1
  P  P255  1  0.70685988  0.08322224  0.97847640  1
  P  P256  1  0.70826293  0.41861201  0.22818120  1
  P  P257  1  0.70839161  0.41725116  0.47663663  1
  P  P258  1  0.70881054  0.41636998  0.72631256  1
  P  P259  1  0.70917510  0.41624312  0.97616427  1
  P  P260  1  0.70777313  0.75082363  0.22763575  1
  P  P261  1  0.70825252  0.74806705  0.47785010  1
  P  P262  1  0.70837146  0.74736124  0.72750331  1
  P  P263  1  0.70792588  0.75047063  0.97751756  1
  P  P264  1  0.29324281  0.25112300  0.02126461  1
  P  P265  1  0.29215251  0.25187005  0.27305762  1
  P  P266  1  0.29138789  0.25129445  0.52344616  1
  P  P267  1  0.29235702  0.25231135  0.77127327  1
  P  P268  1  0.29300818  0.58236226  0.02097132  1
  P  P269  1  0.29217658  0.58146285  0.27312876  1
  P  P270  1  0.29245331  0.58114980  0.52231191  1
  P  P271  1  0.29241406  0.58184570  0.77161994  1
  P  P272  1  0.29342777  0.91691221  0.02199105  1
  P  P273  1  0.29329413  0.91683344  0.27254562  1
  P  P274  1  0.29235433  0.91556135  0.52315756  1
  P  P275  1  0.29265437  0.91682837  0.77098084  1
  P  P276  1  0.79200113  0.24921324  0.02225497  1
  P  P277  1  0.79109796  0.25059411  0.27361812  1
  P  P278  1  0.79076123  0.25023250  0.52298495  1
  P  P279  1  0.79154689  0.25080347  0.77134792  1
  P  P280  1  0.79217914  0.58097035  0.02210198  1
  P  P281  1  0.79123416  0.58356462  0.27337264  1
  P  P282  1  0.79105125  0.58237871  0.52254664  1
  P  P283  1  0.79238598  0.58093027  0.77162143  1
  P  P284  1  0.79190157  0.91474573  0.02242525  1
  P  P285  1  0.79289808  0.91684754  0.27186613  1
  P  P286  1  0.79181401  0.91788989  0.52297991  1
  P  P287  1  0.79205646  0.91467122  0.77242284  1
  O  O288  1  0.03627019  0.25025001  0.18117822  1
  O  O289  1  0.03690287  0.25014365  0.43398614  1
  O  O290  1  0.03627337  0.25154880  0.68345650  1
  O  O291  1  0.03604661  0.24949010  0.93196758  1
  O  O292  1  0.03635571  0.58302115  0.18286114  1
  O  O293  1  0.03610124  0.58224133  0.43341085  1
  O  O294  1  0.03752108  0.58375056  0.68278074  1
  O  O295  1  0.03718387  0.58376332  0.93394495  1
  O  O296  1  0.03711507  0.91560702  0.18250999  1
  O  O297  1  0.03612291  0.91639352  0.43471128  1
  O  O298  1  0.03581614  0.91789081  0.68231323  1
  O  O299  1  0.03653607  0.91694740  0.93284971  1
  O  O300  1  0.53658042  0.25202942  0.18292689  1
  O  O301  1  0.53632820  0.24971862  0.43109291  1
  O  O302  1  0.53795327  0.24977364  0.68143684  1
  O  O303  1  0.53815990  0.25159797  0.93326346  1
  O  O304  1  0.53727552  0.58161329  0.18253928  1
  O  O305  1  0.53662439  0.58467843  0.43127632  1
  O  O306  1  0.53691875  0.58425945  0.68249926  1
  O  O307  1  0.53731873  0.58197575  0.93101927  1
  O  O308  1  0.53763714  0.91746303  0.18398550  1
  O  O309  1  0.53698517  0.91721916  0.43289622  1
  O  O310  1  0.53709888  0.91431914  0.68219735  1
  O  O311  1  0.53806764  0.91543968  0.93182379  1
  O  O312  1  0.46345453  0.08382343  0.06865675  1
  O  O313  1  0.46335990  0.08487537  0.31671141  1
  O  O314  1  0.46277315  0.08431306  0.56584791  1
  O  O315  1  0.46238345  0.08305292  0.81662079  1
  O  O316  1  0.46473448  0.41696858  0.06755689  1
  O  O317  1  0.46353718  0.41724479  0.31535097  1
  O  O318  1  0.46307487  0.41819784  0.56693864  1
  O  O319  1  0.46489413  0.41764098  0.81775795  1
  O  O320  1  0.46272606  0.74839615  0.06760713  1
  O  O321  1  0.46362618  0.74966953  0.31830921  1
  O  O322  1  0.46440016  0.74980567  0.56760511  1
  O  O323  1  0.46369577  0.74939232  0.81581381  1
  O  O324  1  0.96209224  0.08449155  0.06631805  1
  O  O325  1  0.96167641  0.08223626  0.31845416  1
  O  O326  1  0.96327664  0.08280434  0.56871336  1
  O  O327  1  0.96284323  0.08458442  0.81679348  1
  O  O328  1  0.96229103  0.41724556  0.06761353  1
  O  O329  1  0.96230943  0.41602684  0.31795194  1
  O  O330  1  0.96303742  0.41496310  0.56763033  1
  O  O331  1  0.96358612  0.41442380  0.81712751  1
  O  O332  1  0.96234131  0.74981301  0.06660676  1
  O  O333  1  0.96268184  0.74902268  0.31949395  1
  O  O334  1  0.96250743  0.74975691  0.56631781  1
  O  O335  1  0.96323597  0.75050401  0.81889878  1
  O  O336  1  0.21165915  0.08410206  0.05799691  1
  O  O337  1  0.21181287  0.08404104  0.30879401  1
  O  O338  1  0.21272194  0.08504326  0.55957261  1
  O  O339  1  0.21275677  0.08563145  0.80728318  1
  O  O340  1  0.21303807  0.41666805  0.05551255  1
  O  O341  1  0.21175891  0.41641660  0.30902015  1
  O  O342  1  0.21390732  0.41669817  0.55750784  1
  O  O343  1  0.21413843  0.41719764  0.80685207  1
  O  O344  1  0.21216297  0.74947401  0.05820021  1
  O  O345  1  0.21192067  0.74886401  0.30874618  1
  O  O346  1  0.21293288  0.75026293  0.55943381  1
  O  O347  1  0.21227315  0.75068915  0.80731218  1
  O  O348  1  0.71229760  0.08373530  0.05838657  1
  O  O349  1  0.71357509  0.08621068  0.30783261  1
  O  O350  1  0.71302353  0.08523721  0.55806044  1
  O  O351  1  0.71306761  0.08250794  0.80637143  1
  O  O352  1  0.71421311  0.41658253  0.05610902  1
  O  O353  1  0.71344532  0.41851653  0.30802412  1
  O  O354  1  0.71313267  0.41687818  0.55654859  1
  O  O355  1  0.71404932  0.41595444  0.80616035  1
  O  O356  1  0.71307550  0.75070909  0.05751041  1
  O  O357  1  0.71312326  0.75001110  0.30758240  1
  O  O358  1  0.71351739  0.74753714  0.55778396  1
  O  O359  1  0.71363820  0.74772347  0.80743036  1
  O  O360  1  0.28738074  0.25152181  0.19306000  1
  O  O361  1  0.28611537  0.25157486  0.44350175  1
  O  O362  1  0.28666698  0.25198202  0.69140142  1
  O  O363  1  0.28863069  0.25160411  0.94122487  1
  O  O364  1  0.28735900  0.58198777  0.19311180  1
  O  O365  1  0.28697488  0.58107326  0.44239460  1
  O  O366  1  0.28721443  0.58162512  0.69164795  1
  O  O367  1  0.28789587  0.58206972  0.94097426  1
  O  O368  1  0.28844307  0.91683908  0.19252578  1
  O  O369  1  0.28741994  0.91575641  0.44317403  1
  O  O370  1  0.28715893  0.91616983  0.69102120  1
  O  O371  1  0.28836403  0.91723097  0.94194586  1
  O  O372  1  0.78649384  0.25056473  0.19360576  1
  O  O373  1  0.78588558  0.25030854  0.44306195  1
  O  O374  1  0.78609521  0.25051380  0.69149573  1
  O  O375  1  0.78682553  0.24954359  0.94234905  1
  O  O376  1  0.78647399  0.58356284  0.19338801  1
  O  O377  1  0.78569036  0.58318870  0.44265406  1
  O  O378  1  0.78699028  0.58141537  0.69174835  1
  O  O379  1  0.78700669  0.58064581  0.94216126  1
  O  O380  1  0.78759461  0.91631513  0.19192131  1
  O  O381  1  0.78709964  0.91831013  0.44304904  1
  O  O382  1  0.78693951  0.91523822  0.69248616  1
  O  O383  1  0.78633253  0.91428653  0.94248272  1
  O  O384  1  0.22859010  0.25061677  0.05586189  1
  O  O385  1  0.22771394  0.25233948  0.30828644  1
  O  O386  1  0.22734020  0.25146050  0.55967572  1
  O  O387  1  0.22827492  0.25305172  0.80754784  1
  O  O388  1  0.22857438  0.58276273  0.05610795  1
  O  O389  1  0.22777675  0.58100527  0.30844964  1
  O  O390  1  0.22824129  0.58134266  0.55812815  1
  O  O391  1  0.22816061  0.58162907  0.80730755  1
  O  O392  1  0.22889790  0.91675816  0.05685347  1
  O  O393  1  0.22872258  0.91667826  0.30723265  1
  O  O394  1  0.22798046  0.91574202  0.55841218  1
  O  O395  1  0.22833969  0.91721417  0.80635915  1
  O  O396  1  0.72783144  0.24921715  0.05823652  1
  O  O397  1  0.72687022  0.25021799  0.30935084  1
  O  O398  1  0.72666626  0.24944624  0.55903333  1
  O  O399  1  0.72747957  0.25123303  0.80759820  1
  O  O400  1  0.72797604  0.58122198  0.05795878  1
  O  O401  1  0.72700852  0.58356524  0.30921414  1
  O  O402  1  0.72710199  0.58148445  0.55908035  1
  O  O403  1  0.72827561  0.58059773  0.80779740  1
  O  O404  1  0.72783918  0.91512914  0.05865138  1
  O  O405  1  0.72860985  0.91702751  0.30730308  1
  O  O406  1  0.72751133  0.91698729  0.55827840  1
  O  O407  1  0.72774368  0.91389305  0.80804426  1
  O  O408  1  0.27144096  0.08419442  0.19392782  1
  O  O409  1  0.27145930  0.08453053  0.44409091  1
  O  O410  1  0.27187713  0.08567930  0.69185565  1
  O  O411  1  0.27133385  0.08443964  0.94324242  1
  O  O412  1  0.27135582  0.41653358  0.19392442  1
  O  O413  1  0.27244039  0.41642319  0.44093260  1
  O  O414  1  0.27291328  0.41711935  0.69066225  1
  O  O415  1  0.27308025  0.41649135  0.94017919  1
  O  O416  1  0.27154061  0.74922196  0.19397343  1
  O  O417  1  0.27177874  0.74907595  0.44405898  1
  O  O418  1  0.27183476  0.75088498  0.69222680  1
  O  O419  1  0.27145529  0.74951270  0.94311495  1
  O  O420  1  0.77225525  0.08557789  0.19186260  1
  O  O421  1  0.77196940  0.08593072  0.44218945  1
  O  O422  1  0.77275093  0.08414698  0.69080096  1
  O  O423  1  0.77104795  0.08293843  0.94281776  1
  O  O424  1  0.77239034  0.41841669  0.19203756  1
  O  O425  1  0.77246889  0.41775954  0.44058496  1
  O  O426  1  0.77274981  0.41705370  0.68976306  1
  O  O427  1  0.77326345  0.41636658  0.93993122  1
  O  O428  1  0.77196170  0.75110983  0.19169160  1
  O  O429  1  0.77247578  0.74818490  0.44211209  1
  O  O430  1  0.77248334  0.74762396  0.69158562  1
  O  O431  1  0.77220370  0.75012196  0.94181682  1
  O  O432  1  0.02118182  0.08337238  0.18175001  1
  O  O433  1  0.02105040  0.08193943  0.43385064  1
  O  O434  1  0.02262170  0.08262496  0.68462901  1
  O  O435  1  0.02150925  0.08486625  0.93287124  1
  O  O436  1  0.02151817  0.41806827  0.18317891  1
  O  O437  1  0.02148446  0.41483637  0.43356587  1
  O  O438  1  0.02234202  0.41488722  0.68317285  1
  O  O439  1  0.02220496  0.41468558  0.93302484  1
  O  O440  1  0.02110269  0.74912188  0.18238408  1
  O  O441  1  0.02215997  0.74966163  0.43518063  1
  O  O442  1  0.02124938  0.75049281  0.68196430  1
  O  O443  1  0.02255307  0.74985589  0.93475704  1
  O  O444  1  0.52299801  0.08318294  0.18440319  1
  O  O445  1  0.52212314  0.08533912  0.43274794  1
  O  O446  1  0.52200759  0.08289161  0.68105593  1
  O  O447  1  0.52161875  0.08385389  0.93172656  1
  O  O448  1  0.52317932  0.41695439  0.18404723  1
  O  O449  1  0.52221374  0.41721391  0.43109529  1
  O  O450  1  0.52287099  0.41868282  0.68199584  1
  O  O451  1  0.52383939  0.41702953  0.93397904  1
  O  O452  1  0.52195640  0.74843691  0.18306166  1
  O  O453  1  0.52305768  0.74995113  0.43414477  1
  O  O454  1  0.52323097  0.74916877  0.68404481  1
  O  O455  1  0.52216458  0.74916080  0.93178034  1
  O  O456  1  0.47817566  0.25268993  0.06657581  1
  O  O457  1  0.47700851  0.25151506  0.31524733  1
  O  O458  1  0.47814569  0.24899377  0.56627752  1
  O  O459  1  0.47917496  0.25086808  0.81781561  1
  O  O460  1  0.47849830  0.58081620  0.06652303  1
  O  O461  1  0.47736243  0.58372455  0.31533836  1
  O  O462  1  0.47814871  0.58527185  0.56649312  1
  O  O463  1  0.47788686  0.58316903  0.81513099  1
  O  O464  1  0.47857358  0.91667502  0.06855402  1
  O  O465  1  0.47854391  0.91835672  0.31680333  1
  O  O466  1  0.47830203  0.91497767  0.56636696  1
  O  O467  1  0.47857237  0.91452974  0.81647271  1
  O  O468  1  0.97679900  0.25017331  0.06547566  1
  O  O469  1  0.97777943  0.24999559  0.31872276  1
  O  O470  1  0.97749623  0.25137768  0.56740185  1
  O  O471  1  0.97682696  0.25017413  0.81590796  1
  O  O472  1  0.97777595  0.58416818  0.06692070  1
  O  O473  1  0.97691840  0.58109254  0.31768544  1
  O  O474  1  0.97765844  0.58389331  0.56780339  1
  O  O475  1  0.97837431  0.58284140  0.81848809  1
  O  O476  1  0.97778975  0.91560231  0.06702964  1
  O  O477  1  0.97777037  0.91629891  0.31880212  1
  O  O478  1  0.97658399  0.91733587  0.56633233  1
  O  O479  1  0.97747960  0.91862648  0.81721889  1
  O  O480  1  0.07185008  0.31392670  0.07303625  1
  O  O481  1  0.07348597  0.31303281  0.32546800  1
  O  O482  1  0.07249632  0.31476223  0.57448874  1
  O  O483  1  0.07218179  0.31337657  0.82389835  1
  O  O484  1  0.07270867  0.64754725  0.07475543  1
  O  O485  1  0.07230017  0.64516844  0.32534551  1
  O  O486  1  0.07261557  0.64764170  0.57408243  1
  O  O487  1  0.07359140  0.64696710  0.82564282  1
  O  O488  1  0.07325447  0.97920337  0.07478415  1
  O  O489  1  0.07318878  0.97967250  0.32626730  1
  O  O490  1  0.07187100  0.98093222  0.57396036  1
  O  O491  1  0.07275355  0.98142945  0.82478443  1
  O  O492  1  0.57370719  0.31515011  0.07441547  1
  O  O493  1  0.57248242  0.31432848  0.32362200  1
  O  O494  1  0.57331383  0.31314981  0.57337257  1
  O  O495  1  0.57485620  0.31392695  0.82439960  1
  O  O496  1  0.57338953  0.64526208  0.07449357  1
  O  O497  1  0.57223180  0.64770618  0.32271228  1
  O  O498  1  0.57340691  0.64812412  0.57401041  1
  O  O499  1  0.57307424  0.64642147  0.82318605  1
  O  O500  1  0.57411476  0.98014401  0.07538596  1
  O  O501  1  0.57345298  0.98180118  0.32512186  1
  O  O502  1  0.57361150  0.97850811  0.57483576  1
  O  O503  1  0.57372714  0.97873320  0.82357635  1
  O  O504  1  0.42767919  0.02025946  0.17705115  1
  O  O505  1  0.42671679  0.02174602  0.42485390  1
  O  O506  1  0.42633187  0.02000685  0.67338683  1
  O  O507  1  0.42657587  0.01958026  0.92488389  1
  O  O508  1  0.42795293  0.35356855  0.17577607  1
  O  O509  1  0.42675382  0.35408302  0.42388860  1
  O  O510  1  0.42774591  0.35452183  0.67490917  1
  O  O511  1  0.42902259  0.35328075  0.92573797  1
  O  O512  1  0.42703070  0.68467380  0.17601230  1
  O  O513  1  0.42784103  0.68649004  0.42690123  1
  O  O514  1  0.42792637  0.68608143  0.67573900  1
  O  O515  1  0.42675267  0.68578513  0.92376675  1
  O  O516  1  0.92582978  0.02003412  0.17398341  1
  O  O517  1  0.92591092  0.01853864  0.42713381  1
  O  O518  1  0.92693337  0.02008215  0.67734721  1
  O  O519  1  0.92605626  0.02131047  0.92475917  1
  O  O520  1  0.92604309  0.35417382  0.17568901  1
  O  O521  1  0.92653251  0.35141780  0.42614000  1
  O  O522  1  0.92689393  0.35182027  0.67632189  1
  O  O523  1  0.92713738  0.35118553  0.92577639  1
  O  O524  1  0.92533246  0.68644467  0.17483918  1
  O  O525  1  0.92755529  0.68514400  0.42759580  1
  O  O526  1  0.92602929  0.68667192  0.67497477  1
  O  O527  1  0.92754465  0.68618618  0.92665115  1
  O  O528  1  0.17603526  0.02041406  0.20057464  1
  O  O529  1  0.17650764  0.02047327  0.45202394  1
  O  O530  1  0.17626427  0.02230030  0.69977963  1
  O  O531  1  0.17607720  0.02046844  0.94968152  1
  O  O532  1  0.17569734  0.35339890  0.20003981  1
  O  O533  1  0.17748058  0.35285306  0.44954847  1
  O  O534  1  0.17772125  0.35371125  0.69851948  1
  O  O535  1  0.17792982  0.35304029  0.94714630  1
  O  O536  1  0.17610995  0.68552382  0.20049010  1
  O  O537  1  0.17620589  0.68609478  0.45188275  1
  O  O538  1  0.17624250  0.68733675  0.69961239  1
  O  O539  1  0.17589029  0.68639664  0.94985161  1
  O  O540  1  0.67696786  0.02204519  0.20068465  1
  O  O541  1  0.67689859  0.02168826  0.45004030  1
  O  O542  1  0.67880697  0.01880686  0.69776730  1
  O  O543  1  0.67582156  0.01947828  0.95070599  1
  O  O544  1  0.67702447  0.35510602  0.20002765  1
  O  O545  1  0.67806520  0.35337387  0.44776576  1
  O  O546  1  0.67831754  0.35262082  0.69739370  1
  O  O547  1  0.67882120  0.35220561  0.94801710  1
  O  O548  1  0.67664825  0.68743134  0.19920763  1
  O  O549  1  0.67719366  0.68499885  0.44872202  1
  O  O550  1  0.67804567  0.68348784  0.69910566  1
  O  O551  1  0.67688955  0.68653494  0.95016206  1
  O  O552  1  0.32402585  0.31447359  0.05008549  1
  O  O553  1  0.32302534  0.31525742  0.30156193  1
  O  O554  1  0.32274132  0.31468799  0.55152237  1
  O  O555  1  0.32375923  0.31559159  0.79967206  1
  O  O556  1  0.32419658  0.64578382  0.04916819  1
  O  O557  1  0.32305682  0.64507876  0.30130092  1
  O  O558  1  0.32360924  0.64483236  0.55003609  1
  O  O559  1  0.32315720  0.64581317  0.79908978  1
  O  O560  1  0.32435274  0.98038169  0.05036922  1
  O  O561  1  0.32402533  0.98037689  0.30099696  1
  O  O562  1  0.32368372  0.97917065  0.55059638  1
  O  O563  1  0.32370573  0.98066578  0.79841462  1
  O  O564  1  0.82332245  0.31258175  0.05038614  1
  O  O565  1  0.82111535  0.31480922  0.30201528  1
  O  O566  1  0.82080969  0.31444467  0.55132782  1
  O  O567  1  0.82258051  0.31416922  0.80005658  1
  O  O568  1  0.82311373  0.64489849  0.04950907  1
  O  O569  1  0.82183091  0.64740672  0.30170658  1
  O  O570  1  0.82130419  0.64611834  0.55174819  1
  O  O571  1  0.82358062  0.64432457  0.80018065  1
  O  O572  1  0.82313669  0.97865939  0.04944548  1
  O  O573  1  0.82386132  0.98060638  0.29952704  1
  O  O574  1  0.82163861  0.98177334  0.55218750  1
  O  O575  1  0.82281352  0.97832797  0.80070493  1
  O  O576  1  0.42857732  0.14784538  0.17660152  1
  O  O577  1  0.42713272  0.14873808  0.42518905  1
  O  O578  1  0.42678449  0.14697152  0.67458199  1
  O  O579  1  0.42592820  0.14665389  0.92455526  1
  O  O580  1  0.42828501  0.48062878  0.17579526  1
  O  O581  1  0.42693804  0.48071953  0.42347026  1
  O  O582  1  0.42759753  0.48169414  0.67561408  1
  O  O583  1  0.42869959  0.48051070  0.92619688  1
  O  O584  1  0.42652875  0.81187870  0.17547034  1
  O  O585  1  0.42822878  0.81383393  0.42635253  1
  O  O586  1  0.42858000  0.81322668  0.67613015  1
  O  O587  1  0.42681578  0.81256028  0.92423047  1
  O  O588  1  0.92585349  0.14698754  0.17513209  1
  O  O589  1  0.92575510  0.14562295  0.42636330  1
  O  O590  1  0.92852065  0.14744922  0.67655915  1
  O  O591  1  0.92651800  0.14822392  0.92534283  1
  O  O592  1  0.92665081  0.48127293  0.17621406  1
  O  O593  1  0.92597206  0.47845219  0.42624351  1
  O  O594  1  0.92733216  0.47892003  0.67528035  1
  O  O595  1  0.92688934  0.47820272  0.92453271  1
  O  O596  1  0.92608249  0.81308600  0.17530399  1
  O  O597  1  0.92684429  0.81268695  0.42750737  1
  O  O598  1  0.92565207  0.81339716  0.67436441  1
  O  O599  1  0.92778485  0.81385046  0.92709185  1
  O  O600  1  0.07172431  0.18644577  0.07292076  1
  O  O601  1  0.07292884  0.18620108  0.32602691  1
  O  O602  1  0.07280936  0.18776064  0.57599272  1
  O  O603  1  0.07141637  0.18626568  0.82296656  1
  O  O604  1  0.07332720  0.52053059  0.07482102  1
  O  O605  1  0.07186450  0.51802671  0.32503912  1
  O  O606  1  0.07322850  0.52045133  0.57496773  1
  O  O607  1  0.07390838  0.52002710  0.82611197  1
  O  O608  1  0.07269846  0.85198724  0.07398790  1
  O  O609  1  0.07316966  0.85287679  0.32669974  1
  O  O610  1  0.07129304  0.85354517  0.57430971  1
  O  O611  1  0.07268378  0.85439427  0.82436844  1
  O  O612  1  0.57289645  0.18813592  0.07526152  1
  O  O613  1  0.57151767  0.18705933  0.32209299  1
  O  O614  1  0.57329892  0.18584598  0.57298464  1
  O  O615  1  0.57427966  0.18707829  0.82564255  1
  O  O616  1  0.57395484  0.51841284  0.07377944  1
  O  O617  1  0.57239557  0.52032814  0.32350131  1
  O  O618  1  0.57322815  0.52128716  0.57413761  1
  O  O619  1  0.57269709  0.51913849  0.82225566  1
  O  O620  1  0.57372336  0.85312906  0.07620505  1
  O  O621  1  0.57391155  0.85456365  0.32505588  1
  O  O622  1  0.57339979  0.85142667  0.57349886  1
  O  O623  1  0.57384021  0.85153135  0.82345741  1
  O  O624  1  0.32421624  0.18763438  0.04971213  1
  O  O625  1  0.32284524  0.18813632  0.30115711  1
  O  O626  1  0.32197040  0.18736363  0.55147542  1
  O  O627  1  0.32327737  0.18866785  0.79943782  1
  O  O628  1  0.32383888  0.51892920  0.04963765  1
  O  O629  1  0.32294542  0.51789463  0.30131754  1
  O  O630  1  0.32340488  0.51779882  0.55083964  1
  O  O631  1  0.32350268  0.51865040  0.80041989  1
  O  O632  1  0.32437982  0.85328781  0.04990247  1
  O  O633  1  0.32437801  0.85332767  0.30060569  1
  O  O634  1  0.32278651  0.85182102  0.55166832  1
  O  O635  1  0.32389457  0.85364088  0.79953275  1
  O  O636  1  0.82250844  0.18553830  0.05082644  1
  O  O637  1  0.82259057  0.18751635  0.30214479  1
  O  O638  1  0.82255616  0.18734819  0.55175721  1
  O  O639  1  0.82254891  0.18720526  0.79955264  1
  O  O640  1  0.82308088  0.51781644  0.05120236  1
  O  O641  1  0.82222586  0.52016315  0.30187775  1
  O  O642  1  0.82272061  0.51900879  0.55029746  1
  O  O643  1  0.82346074  0.51752698  0.80011123  1
  O  O644  1  0.82271654  0.85145246  0.05129017  1
  O  O645  1  0.82410034  0.85366791  0.30066508  1
  O  O646  1  0.82350558  0.85449804  0.55027946  1
  O  O647  1  0.82300373  0.85111366  0.80074915  1
  O  O648  1  0.17590989  0.14751803  0.20050788  1
  O  O649  1  0.17559730  0.14741086  0.45118577  1
  O  O650  1  0.17707581  0.14960246  0.69908300  1
  O  O651  1  0.17564933  0.14745387  0.94965434  1
  O  O652  1  0.17596256  0.47991792  0.20013760  1
  O  O653  1  0.17754731  0.48007183  0.44918341  1
  O  O654  1  0.17783698  0.48072035  0.69848004  1
  O  O655  1  0.17814300  0.48049749  0.94725060  1
  O  O656  1  0.17601614  0.81265758  0.20064893  1
  O  O657  1  0.17639406  0.81297006  0.45095650  1
  O  O658  1  0.17682361  0.81466098  0.69880021  1
  O  O659  1  0.17624142  0.81338081  0.95025671  1
  O  O660  1  0.67734420  0.14922947  0.19907576  1
  O  O661  1  0.67664780  0.14865854  0.44921543  1
  O  O662  1  0.67682606  0.14636190  0.69870974  1
  O  O663  1  0.67556095  0.14634721  0.94983968  1
  O  O664  1  0.67764927  0.48206702  0.19915685  1
  O  O665  1  0.67694576  0.48058933  0.44847533  1
  O  O666  1  0.67730151  0.47961690  0.69801398  1
  O  O667  1  0.67797105  0.47950472  0.94756785  1
  O  O668  1  0.67699382  0.81454900  0.19966325  1
  O  O669  1  0.67739821  0.81210489  0.45056436  1
  O  O670  1  0.67678480  0.81058908  0.69946462  1
  O  O671  1  0.67717029  0.81369201  0.94840638  1
