# generated using pymatgen
data_Na2MnFe(PO4)2
_symmetry_space_group_name_H-M   'P 1'
_cell_length_a   22.34733461
_cell_length_b   20.09642334
_cell_length_c   19.44618376
_cell_angle_alpha   89.98640061
_cell_angle_beta   90.00262447
_cell_angle_gamma   90.04003155
_symmetry_Int_Tables_number   1
_chemical_formula_structural   Na2MnFe(PO4)2
_chemical_formula_sum   'Na96 Mn48 Fe48 P96 O384'
_cell_volume   8733.30784899
_cell_formula_units_Z   48
loop_
 _symmetry_equiv_pos_site_id
 _symmetry_equiv_pos_as_xyz
  1  'x, y, z'
loop_
 _atom_site_type_symbol
 _atom_site_label
 _atom_site_symmetry_multiplicity
 _atom_site_fract_x
 _atom_site_fract_y
 _atom_site_fract_z
 _atom_site_occupancy
  Na  Na0  1  0.14155688  0.25028789  0.24405797  1
  Na  Na1  1  0.14166236  0.24964524  0.49416874  1
  Na  Na2  1  0.14112740  0.25095820  0.74432879  1
  Na  Na3  1  0.14102465  0.24955797  0.99517322  1
  Na  Na4  1  0.14071847  0.58235622  0.24384355  1
  Na  Na5  1  0.14095804  0.58292123  0.49461467  1
  Na  Na6  1  0.14053310  0.58421382  0.74270799  1
  Na  Na7  1  0.14037886  0.58293254  0.99461754  1
  Na  Na8  1  0.14001496  0.91649621  0.24379896  1
  Na  Na9  1  0.14012144  0.91627346  0.49271373  1
  Na  Na10  1  0.14061961  0.91701446  0.74301420  1
  Na  Na11  1  0.14046767  0.91688275  0.99573584  1
  Na  Na12  1  0.64054504  0.25081778  0.24264735  1
  Na  Na13  1  0.64075083  0.24924143  0.49462547  1
  Na  Na14  1  0.64030149  0.25035304  0.74376762  1
  Na  Na15  1  0.64052376  0.25065070  0.99427577  1
  Na  Na16  1  0.63973434  0.58387892  0.24324546  1
  Na  Na17  1  0.63946868  0.58386663  0.49395753  1
  Na  Na18  1  0.63974889  0.58310906  0.74303415  1
  Na  Na19  1  0.64016564  0.58347305  0.99286553  1
  Na  Na20  1  0.63909270  0.91790378  0.24169439  1
  Na  Na21  1  0.63925027  0.91634224  0.49287030  1
  Na  Na22  1  0.63955148  0.91581176  0.74215444  1
  Na  Na23  1  0.63926586  0.91601606  0.99253312  1
  Na  Na24  1  0.36032320  0.08259509  0.00753084  1
  Na  Na25  1  0.36004823  0.08235726  0.25669644  1
  Na  Na26  1  0.36002411  0.08126513  0.50619911  1
  Na  Na27  1  0.35987963  0.08303408  0.75567368  1
  Na  Na28  1  0.36066149  0.41671542  0.00841406  1
  Na  Na29  1  0.36042993  0.41712062  0.25722721  1
  Na  Na30  1  0.36030750  0.41696063  0.50714182  1
  Na  Na31  1  0.36072190  0.41728124  0.75741598  1
  Na  Na32  1  0.35992590  0.75030968  0.00737700  1
  Na  Na33  1  0.35950878  0.74967244  0.25728451  1
  Na  Na34  1  0.35949997  0.74947812  0.50709107  1
  Na  Na35  1  0.36011164  0.75070508  0.75511069  1
  Na  Na36  1  0.85929964  0.08269731  0.00716552  1
  Na  Na37  1  0.85934470  0.08294921  0.25531335  1
  Na  Na38  1  0.85920878  0.08228155  0.50610923  1
  Na  Na39  1  0.85907712  0.08300218  0.75551020  1
  Na  Na40  1  0.85982329  0.41762324  0.00625802  1
  Na  Na41  1  0.85992562  0.41759376  0.25547550  1
  Na  Na42  1  0.85952428  0.41686758  0.50692575  1
  Na  Na43  1  0.85945459  0.41762583  0.75658225  1
  Na  Na44  1  0.85858566  0.74982666  0.00530466  1
  Na  Na45  1  0.85865209  0.75205459  0.25536659  1
  Na  Na46  1  0.85899842  0.75025730  0.50583884  1
  Na  Na47  1  0.85879557  0.74887511  0.75595328  1
  Na  Na48  1  0.11030875  0.08258194  0.11954017  1
  Na  Na49  1  0.10999544  0.08149757  0.36842476  1
  Na  Na50  1  0.10980778  0.08361377  0.61842321  1
  Na  Na51  1  0.11004391  0.08438955  0.87069493  1
  Na  Na52  1  0.11012419  0.41670059  0.11948969  1
  Na  Na53  1  0.11059078  0.41651946  0.36882084  1
  Na  Na54  1  0.11028385  0.41797892  0.61922110  1
  Na  Na55  1  0.10985862  0.41810507  0.86958967  1
  Na  Na56  1  0.10946212  0.74919562  0.11967320  1
  Na  Na57  1  0.10949362  0.75013172  0.36834480  1
  Na  Na58  1  0.10995749  0.75022636  0.61827275  1
  Na  Na59  1  0.10972343  0.74936558  0.86882784  1
  Na  Na60  1  0.60972881  0.08266023  0.11738813  1
  Na  Na61  1  0.60956414  0.08209972  0.36722967  1
  Na  Na62  1  0.60928495  0.08210804  0.61801341  1
  Na  Na63  1  0.60919269  0.08272495  0.86873355  1
  Na  Na64  1  0.60955357  0.41725013  0.11864022  1
  Na  Na65  1  0.60948805  0.41753010  0.36909645  1
  Na  Na66  1  0.60949703  0.41694157  0.61934387  1
  Na  Na67  1  0.60948330  0.41708763  0.86905415  1
  Na  Na68  1  0.60872389  0.75103643  0.11711980  1
  Na  Na69  1  0.60867954  0.75016330  0.36860737  1
  Na  Na70  1  0.60922485  0.75045104  0.61729423  1
  Na  Na71  1  0.60947198  0.75088022  0.86700714  1
  Na  Na72  1  0.39125201  0.25023542  0.13266388  1
  Na  Na73  1  0.39113400  0.25074952  0.38165419  1
  Na  Na74  1  0.39080058  0.24954228  0.63220630  1
  Na  Na75  1  0.39118230  0.25045091  0.88195946  1
  Na  Na76  1  0.39037435  0.58273712  0.13277547  1
  Na  Na77  1  0.39056352  0.58302773  0.38242768  1
  Na  Na78  1  0.39036378  0.58326251  0.63211513  1
  Na  Na79  1  0.39051726  0.58281477  0.88182734  1
  Na  Na80  1  0.39037511  0.91692972  0.13210065  1
  Na  Na81  1  0.38998635  0.91551526  0.38161372  1
  Na  Na82  1  0.39017554  0.91596761  0.63017799  1
  Na  Na83  1  0.39068488  0.91677418  0.88036464  1
  Na  Na84  1  0.89095399  0.24902892  0.13137062  1
  Na  Na85  1  0.89056730  0.24912034  0.38116138  1
  Na  Na86  1  0.89009852  0.25079049  0.63154071  1
  Na  Na87  1  0.89056984  0.25085963  0.88071926  1
  Na  Na88  1  0.88985917  0.58317591  0.13015532  1
  Na  Na89  1  0.89019836  0.58315629  0.37981904  1
  Na  Na90  1  0.88996771  0.58411503  0.63209109  1
  Na  Na91  1  0.88949852  0.58332014  0.88054773  1
  Na  Na92  1  0.88950262  0.91684936  0.13120995  1
  Na  Na93  1  0.88914698  0.91692387  0.38008078  1
  Na  Na94  1  0.88992349  0.91607645  0.63090559  1
  Na  Na95  1  0.88996932  0.91675620  0.88096375  1
  Mn  Mn96  1  0.24987488  0.83297286  0.12583576  1
  Mn  Mn97  1  -0.00099230  0.83390081  0.49934471  1
  Mn  Mn98  1  0.00055173  0.33327552  0.24993693  1
  Mn  Mn99  1  -0.00059306  0.66594618  -0.00032287  1
  Mn  Mn100  1  0.74984716  0.50086979  0.37554276  1
  Mn  Mn101  1  0.00080473  0.83319428  0.74980027  1
  Mn  Mn102  1  0.25080012  0.50059544  0.87573565  1
  Mn  Mn103  1  0.74816675  0.83464962  0.37477809  1
  Mn  Mn104  1  0.75049335  0.33392737  0.12441066  1
  Mn  Mn105  1  0.50000815  0.66697184  0.74994508  1
  Mn  Mn106  1  0.49961202  0.66689268  -0.00006736  1
  Mn  Mn107  1  0.25120802  0.33356455  0.62495600  1
  Mn  Mn108  1  0.74888490  -0.00105972  0.87493495  1
  Mn  Mn109  1  0.00021576  0.33372355  0.00034519  1
  Mn  Mn110  1  0.25082252  0.16608221  0.37490846  1
  Mn  Mn111  1  0.50016755  0.16610637  0.75056065  1
  Mn  Mn112  1  0.74998816  0.16647412  0.87478929  1
  Mn  Mn113  1  0.75011975  0.16604460  0.37424247  1
  Mn  Mn114  1  0.50048031  0.16590690  0.50029480  1
  Mn  Mn115  1  0.25086658  0.33351054  0.87556638  1
  Mn  Mn116  1  0.25074778  0.16672398  0.87564834  1
  Mn  Mn117  1  -0.00004622  0.66651114  0.49914167  1
  Mn  Mn118  1  0.00015804  0.16730775  0.74988142  1
  Mn  Mn119  1  0.00064565  0.16574183  0.50055759  1
  Mn  Mn120  1  0.75020245  0.33349753  0.37454357  1
  Mn  Mn121  1  0.00071745  0.00055624  0.00065237  1
  Mn  Mn122  1  0.74976768  0.50043958  0.62497981  1
  Mn  Mn123  1  0.25053302  0.33344539  0.12572680  1
  Mn  Mn124  1  0.24980468  -0.00034231  0.62465192  1
  Mn  Mn125  1  0.75100334  0.33360731  0.87490405  1
  Mn  Mn126  1  0.50058615  0.16663317  0.24967741  1
  Mn  Mn127  1  -0.00015764  0.83328388  -0.00023831  1
  Mn  Mn128  1  0.25043798  0.66677991  0.87521735  1
  Mn  Mn129  1  0.00007038  0.33359482  0.50022306  1
  Mn  Mn130  1  0.00106732  0.33495352  0.75124156  1
  Mn  Mn131  1  0.25020953  0.66601517  0.37596432  1
  Mn  Mn132  1  0.50006338  0.16680013  0.00016214  1
  Mn  Mn133  1  0.49969370  0.66673444  0.25007872  1
  Mn  Mn134  1  -0.00012094  0.00055474  0.75064131  1
  Mn  Mn135  1  0.50086304  0.33411644  0.50091947  1
  Mn  Mn136  1  -0.00043353  0.66615042  0.24936794  1
  Mn  Mn137  1  0.74939649  0.66772593  0.37398820  1
  Mn  Mn138  1  0.24988833  0.83330394  0.87567615  1
  Mn  Mn139  1  0.00092452  0.16518807  0.25124955  1
  Mn  Mn140  1  0.24983901  0.00046642  0.87482280  1
  Mn  Mn141  1  -0.00013581  0.50011820  0.50015402  1
  Mn  Mn142  1  0.74930299  -0.00080501  0.62504223  1
  Mn  Mn143  1  0.74945722  0.66734111  0.12398628  1
  Fe  Fe144  1  0.74969387  0.16618434  0.62464219  1
  Fe  Fe145  1  0.25115937  0.33330072  0.37535899  1
  Fe  Fe146  1  0.49932341  0.83385030  -0.00098947  1
  Fe  Fe147  1  -0.00004147  0.49963769  0.24985572  1
  Fe  Fe148  1  0.74939448  0.66687439  0.62516305  1
  Fe  Fe149  1  0.25018650  0.49986552  0.12615756  1
  Fe  Fe150  1  0.25104413  0.16654041  0.12606091  1
  Fe  Fe151  1  0.49990650  0.83359206  0.74863972  1
  Fe  Fe152  1  0.50059498  0.33380713  0.25073298  1
  Fe  Fe153  1  0.49973306  -0.00071109  0.74921331  1
  Fe  Fe154  1  0.00024086  0.50046720  -0.00047107  1
  Fe  Fe155  1  -0.00015473  -0.00052215  0.49964019  1
  Fe  Fe156  1  0.50027402  0.33375732  0.75113329  1
  Fe  Fe157  1  0.74857960  0.83379176  0.12409457  1
  Fe  Fe158  1  0.49937782  0.83331311  0.24964143  1
  Fe  Fe159  1  0.50023389  0.49971091  0.00067454  1
  Fe  Fe160  1  0.00005739  0.16673111  0.00060427  1
  Fe  Fe161  1  0.25067931  0.49984542  0.62514743  1
  Fe  Fe162  1  0.74988346  0.33308135  0.62529106  1
  Fe  Fe163  1  0.24936514  0.83253404  0.37504213  1
  Fe  Fe164  1  0.50034515  0.33403258  0.00100326  1
  Fe  Fe165  1  0.25088341  0.49992405  0.37549488  1
  Fe  Fe166  1  0.49961065  -0.00065210  0.24918824  1
  Fe  Fe167  1  0.74917338  0.00045410  0.37403494  1
  Fe  Fe168  1  -0.00015219  0.50094542  0.74989676  1
  Fe  Fe169  1  0.49970150  0.66663102  0.50004549  1
  Fe  Fe170  1  0.25011880  0.83323041  0.62450221  1
  Fe  Fe171  1  0.25000386  0.66612786  0.12647157  1
  Fe  Fe172  1  0.49968117  0.83357319  0.49909344  1
  Fe  Fe173  1  0.74960386  0.83277078  0.62445687  1
  Fe  Fe174  1  0.74970766  0.83295872  0.87426152  1
  Fe  Fe175  1  0.25008599  0.66682807  0.62462878  1
  Fe  Fe176  1  0.49995181  0.50002077  0.75082919  1
  Fe  Fe177  1  -0.00005980  0.66666123  0.74990621  1
  Fe  Fe178  1  0.49973640  -0.00067909  -0.00099054  1
  Fe  Fe179  1  0.74936928  0.50027735  0.87440896  1
  Fe  Fe180  1  0.49967657  0.50017531  0.50064381  1
  Fe  Fe181  1  0.75030037  0.16663071  0.12478192  1
  Fe  Fe182  1  0.25046210  -0.00028635  0.12588982  1
  Fe  Fe183  1  -0.00072380  -0.00064520  0.24981673  1
  Fe  Fe184  1  0.49978121  -0.00068984  0.49908351  1
  Fe  Fe185  1  0.74938127  -0.00006078  0.12424789  1
  Fe  Fe186  1  0.24986529  -0.00059694  0.37523527  1
  Fe  Fe187  1  0.50053939  0.50003765  0.25072419  1
  Fe  Fe188  1  0.74985297  0.50074622  0.12433256  1
  Fe  Fe189  1  0.74879256  0.66694524  0.87453658  1
  Fe  Fe190  1  -0.00069947  0.83325289  0.24968708  1
  Fe  Fe191  1  0.25083894  0.16641032  0.62443564  1
  P  P192  1  0.04272913  0.24860557  0.10295638  1
  P  P193  1  0.04370306  0.24957771  0.35348815  1
  P  P194  1  0.04344195  0.25059411  0.60343880  1
  P  P195  1  0.04331420  0.25024680  0.85420324  1
  P  P196  1  0.04197485  0.58183902  0.10275427  1
  P  P197  1  0.04257842  0.58189922  0.35195621  1
  P  P198  1  0.04260016  0.58393098  0.60382420  1
  P  P199  1  0.04178244  0.58334227  0.85163438  1
  P  P200  1  0.04232835  0.91621275  0.10440912  1
  P  P201  1  0.04085069  0.91661581  0.35153184  1
  P  P202  1  0.04239799  0.91759815  0.60205893  1
  P  P203  1  0.04348351  0.91702717  0.85339572  1
  P  P204  1  0.54230199  0.25157272  0.10306050  1
  P  P205  1  0.54270237  0.25115225  0.35252463  1
  P  P206  1  0.54276580  0.24993085  0.60409450  1
  P  P207  1  0.54225852  0.25146545  0.85337522  1
  P  P208  1  0.54177355  0.58227831  0.10274517  1
  P  P209  1  0.54196053  0.58255865  0.35327191  1
  P  P210  1  0.54099621  0.58324947  0.60209554  1
  P  P211  1  0.54166437  0.58233118  0.85290805  1
  P  P212  1  0.54068278  0.91658960  0.10121634  1
  P  P213  1  0.54069439  0.91617331  0.35130859  1
  P  P214  1  0.54088918  0.91658867  0.60129905  1
  P  P215  1  0.54121880  0.91645686  0.85102058  1
  P  P216  1  0.45822487  0.08198055  0.14706525  1
  P  P217  1  0.45825842  0.08169507  0.39676737  1
  P  P218  1  0.45798302  0.08136374  0.64696690  1
  P  P219  1  0.45799806  0.08192293  0.89721790  1
  P  P220  1  0.45922471  0.41673348  0.14877628  1
  P  P221  1  0.45830837  0.41807957  0.39775605  1
  P  P222  1  0.45900374  0.41692729  0.64913690  1
  P  P223  1  0.45855835  0.41667887  0.89883386  1
  P  P224  1  0.45753654  0.75146680  0.14722430  1
  P  P225  1  0.45829840  0.74985053  0.39819303  1
  P  P226  1  0.45829650  0.75101703  0.64622987  1
  P  P227  1  0.45776083  0.75145355  0.89688616  1
  P  P228  1  0.95801312  0.08232697  0.14756357  1
  P  P229  1  0.95767054  0.08125697  0.39731339  1
  P  P230  1  0.95703773  0.08302498  0.64647304  1
  P  P231  1  0.95728249  0.08491438  0.89808749  1
  P  P232  1  0.95812483  0.41793056  0.14693891  1
  P  P233  1  0.95695358  0.41675423  0.39637227  1
  P  P234  1  0.95758783  0.41825760  0.64811440  1
  P  P235  1  0.95780146  0.41877938  0.89732923  1
  P  P236  1  0.95705463  0.75091358  0.14729285  1
  P  P237  1  0.95673746  0.75025825  0.39570773  1
  P  P238  1  0.95767626  0.74908334  0.64745959  1
  P  P239  1  0.95715272  0.74934824  0.89605785  1
  P  P240  1  0.20926211  0.08297578  0.22754216  1
  P  P241  1  0.20821108  0.08204622  0.47749539  1
  P  P242  1  0.20781387  0.08492009  0.72704868  1
  P  P243  1  0.20814437  0.08329218  0.97983423  1
  P  P244  1  0.20860603  0.41772465  0.22892185  1
  P  P245  1  0.20965507  0.41689362  0.47714940  1
  P  P246  1  0.20851645  0.41803138  0.72761379  1
  P  P247  1  0.20796663  0.41695692  0.97931418  1
  P  P248  1  0.20779921  0.74858262  0.22861056  1
  P  P249  1  0.20778081  0.75064250  0.47821191  1
  P  P250  1  0.20883712  0.75031769  0.72625142  1
  P  P251  1  0.20738291  0.74930785  0.97929965  1
  P  P252  1  0.70804370  0.08331727  0.22595739  1
  P  P253  1  0.70741263  0.08210939  0.47713317  1
  P  P254  1  0.70699232  0.08411751  0.72706890  1
  P  P255  1  0.70714619  0.08302915  0.97874498  1
  P  P256  1  0.70795451  0.41832934  0.22684591  1
  P  P257  1  0.70735985  0.41630680  0.47877145  1
  P  P258  1  0.70804991  0.41607410  0.72766238  1
  P  P259  1  0.70819912  0.41822291  0.97742529  1
  P  P260  1  0.70637499  0.75191528  0.22638928  1
  P  P261  1  0.70655999  0.75015548  0.47851631  1
  P  P262  1  0.70774190  0.74993691  0.72679959  1
  P  P263  1  0.70772343  0.75061448  0.97608556  1
  P  P264  1  0.29335598  0.24877299  0.02364682  1
  P  P265  1  0.29295843  0.25076252  0.27270700  1
  P  P266  1  0.29328440  0.24877647  0.52215340  1
  P  P267  1  0.29373821  0.25004573  0.77171791  1
  P  P268  1  0.29192124  0.58339488  0.02472664  1
  P  P269  1  0.29242391  0.58209495  0.27272020  1
  P  P270  1  0.29182291  0.58289678  0.52355762  1
  P  P271  1  0.29298550  0.58384260  0.77116811  1
  P  P272  1  0.29244311  0.91746622  0.02340243  1
  P  P273  1  0.29086231  0.91627621  0.27354388  1
  P  P274  1  0.29172058  0.91494701  0.52146974  1
  P  P275  1  0.29243474  0.91636352  0.77134968  1
  P  P276  1  0.79281120  0.24898692  0.02248550  1
  P  P277  1  0.79292947  0.24974734  0.27097131  1
  P  P278  1  0.79153172  0.24944450  0.52332129  1
  P  P279  1  0.79276945  0.24987035  0.77072262  1
  P  P280  1  0.79133589  0.58265335  0.02112859  1
  P  P281  1  0.79214327  0.58389434  0.27082684  1
  P  P282  1  0.79215922  0.58518862  0.52274338  1
  P  P283  1  0.79027581  0.58394521  0.77289863  1
  P  P284  1  0.79089721  0.91603187  0.02263323  1
  P  P285  1  0.79058035  0.91855625  0.27109273  1
  P  P286  1  0.79148680  0.91553632  0.52213157  1
  P  P287  1  0.79162002  0.91476202  0.77182317  1
  O  O288  1  0.03756959  0.24878528  0.18293049  1
  O  O289  1  0.03863640  0.24957302  0.43345802  1
  O  O290  1  0.03861764  0.25084836  0.68346745  1
  O  O291  1  0.03773312  0.24974628  0.93415957  1
  O  O292  1  0.03661562  0.58187692  0.18265171  1
  O  O293  1  0.03759491  0.58246340  0.43193985  1
  O  O294  1  0.03748128  0.58416911  0.68379419  1
  O  O295  1  0.03682751  0.58286713  0.93166317  1
  O  O296  1  0.03666305  0.91609140  0.18433705  1
  O  O297  1  0.03598018  0.91703993  0.43154942  1
  O  O298  1  0.03782222  0.91727559  0.68207696  1
  O  O299  1  0.03842293  0.91690491  0.93339873  1
  O  O300  1  0.53700952  0.25163625  0.18301965  1
  O  O301  1  0.53750600  0.25057044  0.43250346  1
  O  O302  1  0.53749583  0.25003027  0.68404097  1
  O  O303  1  0.53664341  0.25167991  0.93332855  1
  O  O304  1  0.53675956  0.58245193  0.18272224  1
  O  O305  1  0.53653399  0.58281722  0.43314216  1
  O  O306  1  0.53619740  0.58353169  0.68207749  1
  O  O307  1  0.53660941  0.58214779  0.93284058  1
  O  O308  1  0.53578890  0.91661960  0.18109914  1
  O  O309  1  0.53578462  0.91656559  0.43118537  1
  O  O310  1  0.53584728  0.91645100  0.68117324  1
  O  O311  1  0.53596487  0.91600202  0.93089916  1
  O  O312  1  0.46304666  0.08202542  0.06710018  1
  O  O313  1  0.46364803  0.08196567  0.31680208  1
  O  O314  1  0.46346404  0.08133982  0.56699944  1
  O  O315  1  0.46339303  0.08193251  0.81726980  1
  O  O316  1  0.46444765  0.41659617  0.06885251  1
  O  O317  1  0.46369647  0.41798463  0.31791446  1
  O  O318  1  0.46383858  0.41762565  0.56919251  1
  O  O319  1  0.46362475  0.41669647  0.81892580  1
  O  O320  1  0.46263723  0.75155152  0.06726114  1
  O  O321  1  0.46281782  0.74987521  0.31818909  1
  O  O322  1  0.46364524  0.75045983  0.56638079  1
  O  O323  1  0.46314814  0.75134513  0.81693209  1
  O  O324  1  0.96331168  0.08344108  0.06764334  1
  O  O325  1  0.96286323  0.08105424  0.31732959  1
  O  O326  1  0.96235349  0.08224124  0.56648693  1
  O  O327  1  0.96226174  0.08467014  0.81807087  1
  O  O328  1  0.96363991  0.41799948  0.06698825  1
  O  O329  1  0.96211811  0.41701047  0.31638236  1
  O  O330  1  0.96224655  0.41772210  0.56808153  1
  O  O331  1  0.96326948  0.41897123  0.81739642  1
  O  O332  1  0.96197736  0.75048291  0.06728491  1
  O  O333  1  0.96196900  0.75072738  0.31575630  1
  O  O334  1  0.96235344  0.74934580  0.56740840  1
  O  O335  1  0.96273087  0.74894611  0.81612820  1
  O  O336  1  0.21366855  0.08310745  0.05975873  1
  O  O337  1  0.21432591  0.08237181  0.30753123  1
  O  O338  1  0.21342429  0.08281173  0.55741414  1
  O  O339  1  0.21293975  0.08460971  0.80706144  1
  O  O340  1  0.21298550  0.41732660  0.05931335  1
  O  O341  1  0.21419903  0.41732247  0.30877990  1
  O  O342  1  0.21488311  0.41720707  0.55714326  1
  O  O343  1  0.21341803  0.41764785  0.80762900  1
  O  O344  1  0.21242129  0.74854181  0.05927587  1
  O  O345  1  0.21314285  0.74911980  0.30855251  1
  O  O346  1  0.21329707  0.75077456  0.55807996  1
  O  O347  1  0.21338650  0.75006090  0.80631276  1
  O  O348  1  0.71258355  0.08299609  0.05867862  1
  O  O349  1  0.71295080  0.08264922  0.30598477  1
  O  O350  1  0.71247423  0.08265585  0.55707246  1
  O  O351  1  0.71209981  0.08356847  0.80704323  1
  O  O352  1  0.71357945  0.41856596  0.05736988  1
  O  O353  1  0.71286841  0.41791470  0.30685788  1
  O  O354  1  0.71264973  0.41561801  0.55874466  1
  O  O355  1  0.71339285  0.41678945  0.80762158  1
  O  O356  1  0.71251368  0.75093833  0.05606027  1
  O  O357  1  0.71124495  0.75182203  0.30636135  1
  O  O358  1  0.71185167  0.74997202  0.55844225  1
  O  O359  1  0.71292942  0.75019207  0.80673849  1
  O  O360  1  0.28753679  0.25018207  0.19277338  1
  O  O361  1  0.28783404  0.24954862  0.44220981  1
  O  O362  1  0.28876452  0.24987157  0.69170617  1
  O  O363  1  0.28833723  0.24928296  0.94363387  1
  O  O364  1  0.28702516  0.58247369  0.19285013  1
  O  O365  1  0.28708778  0.58262352  0.44355634  1
  O  O366  1  0.28789390  0.58367895  0.69126074  1
  O  O367  1  0.28719008  0.58344300  0.94465209  1
  O  O368  1  0.28585727  0.91686974  0.19354821  1
  O  O369  1  0.28619692  0.91496834  0.44159105  1
  O  O370  1  0.28714216  0.91589668  0.69136421  1
  O  O371  1  0.28737747  0.91737035  0.94342171  1
  O  O372  1  0.78780573  0.24934443  0.19101603  1
  O  O373  1  0.78655523  0.24967266  0.44324477  1
  O  O374  1  0.78727614  0.24989664  0.69079440  1
  O  O375  1  0.78784046  0.24926056  0.94248546  1
  O  O376  1  0.78679975  0.58339611  0.19084823  1
  O  O377  1  0.78725916  0.58479054  0.44274219  1
  O  O378  1  0.78551207  0.58468746  0.69293145  1
  O  O379  1  0.78589562  0.58250862  0.94127122  1
  O  O380  1  0.78518002  0.91842354  0.19121042  1
  O  O381  1  0.78636131  0.91635229  0.44220761  1
  O  O382  1  0.78642175  0.91477913  0.69187389  1
  O  O383  1  0.78598247  0.91558356  0.94263718  1
  O  O384  1  0.22902333  0.24841689  0.05908058  1
  O  O385  1  0.22881950  0.25089163  0.30856773  1
  O  O386  1  0.22912634  0.24868748  0.55815772  1
  O  O387  1  0.22933535  0.25027399  0.80691786  1
  O  O388  1  0.22765408  0.58343754  0.06036260  1
  O  O389  1  0.22831802  0.58178249  0.30886434  1
  O  O390  1  0.22767616  0.58222669  0.55937571  1
  O  O391  1  0.22868972  0.58362289  0.80675952  1
  O  O392  1  0.22816041  0.91751612  0.05894308  1
  O  O393  1  0.22673135  0.91611320  0.30949453  1
  O  O394  1  0.22766459  0.91497072  0.55776509  1
  O  O395  1  0.22813841  0.91657248  0.80679753  1
  O  O396  1  0.72846089  0.24907680  0.05783718  1
  O  O397  1  0.72855593  0.24981428  0.30619835  1
  O  O398  1  0.72737743  0.24918116  0.55929370  1
  O  O399  1  0.72859421  0.25028992  0.80654796  1
  O  O400  1  0.72725184  0.58299143  0.05730609  1
  O  O401  1  0.72782775  0.58389715  0.30626372  1
  O  O402  1  0.72773704  0.58508218  0.55803974  1
  O  O403  1  0.72615910  0.58312794  0.80883657  1
  O  O404  1  0.72660286  0.91620167  0.05837521  1
  O  O405  1  0.72643548  0.91909263  0.30728313  1
  O  O406  1  0.72719346  0.91493334  0.55776800  1
  O  O407  1  0.72726770  0.91453761  0.80737937  1
  O  O408  1  0.27338281  0.08332955  0.19151442  1
  O  O409  1  0.27246757  0.08142492  0.44183392  1
  O  O410  1  0.27215912  0.08452625  0.69153135  1
  O  O411  1  0.27231965  0.08299387  0.94391783  1
  O  O412  1  0.27268565  0.41786781  0.19266751  1
  O  O413  1  0.27376663  0.41712325  0.44106753  1
  O  O414  1  0.27292728  0.41817876  0.69230288  1
  O  O415  1  0.27241454  0.41689798  0.94422139  1
  O  O416  1  0.27198549  0.74839943  0.19273639  1
  O  O417  1  0.27191136  0.75095204  0.44206226  1
  O  O418  1  0.27302941  0.75069586  0.69058502  1
  O  O419  1  0.27181302  0.74985261  0.94414855  1
  O  O420  1  0.77223264  0.08332411  0.19007911  1
  O  O421  1  0.77172867  0.08152618  0.44148618  1
  O  O422  1  0.77127281  0.08426053  0.69149291  1
  O  O423  1  0.77131099  0.08241997  0.94295092  1
  O  O424  1  0.77231927  0.41819910  0.19158361  1
  O  O425  1  0.77170052  0.41676437  0.44342293  1
  O  O426  1  0.77217213  0.41608561  0.69174018  1
  O  O427  1  0.77237082  0.41873753  0.94150478  1
  O  O428  1  0.77077222  0.75215358  0.19106396  1
  O  O429  1  0.77072927  0.75086581  0.44272103  1
  O  O430  1  0.77183530  0.74967558  0.69044582  1
  O  O431  1  0.77187426  0.75078160  0.94018973  1
  O  O432  1  0.02224319  0.08109928  0.18332331  1
  O  O433  1  0.02202954  0.08099595  0.43286161  1
  O  O434  1  0.02147195  0.08331390  0.68162636  1
  O  O435  1  0.02175825  0.08540307  0.93333888  1
  O  O436  1  0.02229911  0.41819232  0.18298108  1
  O  O437  1  0.02145319  0.41675327  0.43138527  1
  O  O438  1  0.02211131  0.41918198  0.68310089  1
  O  O439  1  0.02203140  0.41855486  0.93317931  1
  O  O440  1  0.02138700  0.75092574  0.18263620  1
  O  O441  1  0.02108203  0.75045790  0.43102777  1
  O  O442  1  0.02214240  0.74864474  0.68257938  1
  O  O443  1  0.02141689  0.74943810  0.93159528  1
  O  O444  1  0.52250016  0.08212133  0.18257382  1
  O  O445  1  0.52242264  0.08135262  0.43272521  1
  O  O446  1  0.52209496  0.08124268  0.68305122  1
  O  O447  1  0.52212961  0.08209701  0.93323070  1
  O  O448  1  0.52322664  0.41685814  0.18525934  1
  O  O449  1  0.52244962  0.41874223  0.43392465  1
  O  O450  1  0.52310571  0.41622797  0.68514922  1
  O  O451  1  0.52270744  0.41678598  0.93505910  1
  O  O452  1  0.52177453  0.75155162  0.18296785  1
  O  O453  1  0.52243640  0.74974053  0.43390364  1
  O  O454  1  0.52230776  0.75126275  0.68265547  1
  O  O455  1  0.52194486  0.75144102  0.93279101  1
  O  O456  1  0.47811295  0.25157613  0.06721748  1
  O  O457  1  0.47844743  0.25116277  0.31689755  1
  O  O458  1  0.47857295  0.25002097  0.56845322  1
  O  O459  1  0.47819230  0.25129940  0.81716240  1
  O  O460  1  0.47752471  0.58234183  0.06708707  1
  O  O461  1  0.47786323  0.58209921  0.31703692  1
  O  O462  1  0.47689444  0.58274198  0.56603906  1
  O  O463  1  0.47748618  0.58277503  0.81717044  1
  O  O464  1  0.47658545  0.91642736  0.06502085  1
  O  O465  1  0.47660714  0.91573017  0.31507277  1
  O  O466  1  0.47691379  0.91708712  0.56482932  1
  O  O467  1  0.47718194  0.91668642  0.81456726  1
  O  O468  1  0.97845362  0.24862412  0.06729317  1
  O  O469  1  0.97925817  0.24946260  0.31856725  1
  O  O470  1  0.97890202  0.25008348  0.56869701  1
  O  O471  1  0.97903834  0.25079821  0.81868130  1
  O  O472  1  0.97772649  0.58154100  0.06692083  1
  O  O473  1  0.97816214  0.58159397  0.31668334  1
  O  O474  1  0.97822911  0.58375559  0.56843973  1
  O  O475  1  0.97749699  0.58351652  0.81580920  1
  O  O476  1  0.97821104  0.91674129  0.06845255  1
  O  O477  1  0.97663381  0.91679505  0.31569774  1
  O  O478  1  0.97783107  0.91817819  0.56709314  1
  O  O479  1  0.97895445  0.91649540  0.81857881  1
  O  O480  1  0.07381507  0.31239259  0.07548437  1
  O  O481  1  0.07466770  0.31299474  0.32507698  1
  O  O482  1  0.07418339  0.31424108  0.57519749  1
  O  O483  1  0.07453490  0.31400439  0.82662386  1
  O  O484  1  0.07261928  0.64586789  0.07499833  1
  O  O485  1  0.07348327  0.64559631  0.32395955  1
  O  O486  1  0.07369967  0.64716726  0.57486863  1
  O  O487  1  0.07246225  0.64728506  0.82367427  1
  O  O488  1  0.07398420  0.97947941  0.07633059  1
  O  O489  1  0.07216790  0.97984308  0.32294905  1
  O  O490  1  0.07332573  0.98094893  0.57344895  1
  O  O491  1  0.07405815  0.98085615  0.82545249  1
  O  O492  1  0.57340182  0.31482783  0.07440072  1
  O  O493  1  0.57332135  0.31495208  0.32452125  1
  O  O494  1  0.57415160  0.31320362  0.57588115  1
  O  O495  1  0.57321122  0.31480734  0.82465728  1
  O  O496  1  0.57272420  0.64603241  0.07468294  1
  O  O497  1  0.57286239  0.64624841  0.32488615  1
  O  O498  1  0.57113924  0.64726361  0.57343068  1
  O  O499  1  0.57302842  0.64589737  0.82517853  1
  O  O500  1  0.57146456  0.98022971  0.07246039  1
  O  O501  1  0.57119628  0.97988663  0.32227033  1
  O  O502  1  0.57236892  0.97987800  0.57289611  1
  O  O503  1  0.57235423  0.98008601  0.82292129  1
  O  O504  1  0.42749073  0.01853727  0.17597813  1
  O  O505  1  0.42699870  0.01837891  0.42506433  1
  O  O506  1  0.42678432  0.01806412  0.67538266  1
  O  O507  1  0.42713471  0.01842376  0.92568065  1
  O  O508  1  0.42838178  0.35305784  0.17734793  1
  O  O509  1  0.42761023  0.35420951  0.42588912  1
  O  O510  1  0.42783633  0.35329658  0.67700844  1
  O  O511  1  0.42759200  0.35314585  0.92740675  1
  O  O512  1  0.42676897  0.68758476  0.17509979  1
  O  O513  1  0.42757544  0.68611447  0.42671099  1
  O  O514  1  0.42711223  0.68758359  0.67466780  1
  O  O515  1  0.42676707  0.68768568  0.92483518  1
  O  O516  1  0.92667938  0.01878539  0.17535085  1
  O  O517  1  0.92648984  0.01811159  0.42605261  1
  O  O518  1  0.92578325  0.01988067  0.67533056  1
  O  O519  1  0.92666770  0.02092182  0.92586451  1
  O  O520  1  0.92737975  0.35385338  0.17438478  1
  O  O521  1  0.92612342  0.35306431  0.42465103  1
  O  O522  1  0.92718384  0.35443647  0.67638349  1
  O  O523  1  0.92658648  0.35508047  0.92497492  1
  O  O524  1  0.92585308  0.68727833  0.17495064  1
  O  O525  1  0.92604937  0.68637952  0.42357120  1
  O  O526  1  0.92679818  0.68572270  0.67621749  1
  O  O527  1  0.92586446  0.68609078  0.92450641  1
  O  O528  1  0.17838232  0.01941505  0.19912635  1
  O  O529  1  0.17733409  0.01842331  0.44919914  1
  O  O530  1  0.17641636  0.02139853  0.69937776  1
  O  O531  1  0.17660464  0.02014488  0.95120541  1
  O  O532  1  0.17720427  0.35426818  0.20083214  1
  O  O533  1  0.17938089  0.35269275  0.44917348  1
  O  O534  1  0.17748529  0.35448260  0.69952827  1
  O  O535  1  0.17717208  0.35320927  0.95127948  1
  O  O536  1  0.17715960  0.68484525  0.20039973  1
  O  O537  1  0.17678147  0.68677151  0.45058744  1
  O  O538  1  0.17862101  0.68631222  0.69775031  1
  O  O539  1  0.17639628  0.68612415  0.95018593  1
  O  O540  1  0.67686126  0.02007123  0.19719112  1
  O  O541  1  0.67657041  0.01859180  0.44855037  1
  O  O542  1  0.67599316  0.02039046  0.69930373  1
  O  O543  1  0.67553354  0.01985526  0.95027886  1
  O  O544  1  0.67676244  0.35479779  0.19887170  1
  O  O545  1  0.67622774  0.35315151  0.44988272  1
  O  O546  1  0.67753240  0.35226556  0.69943421  1
  O  O547  1  0.67771267  0.35394729  0.95017743  1
  O  O548  1  0.67555476  0.68816920  0.19848905  1
  O  O549  1  0.67576748  0.68664387  0.44981155  1
  O  O550  1  0.67667195  0.68625753  0.69869715  1
  O  O551  1  0.67746188  0.68642904  0.94797363  1
  O  O552  1  0.32426762  0.31248398  0.05151411  1
  O  O553  1  0.32353113  0.31452593  0.30107349  1
  O  O554  1  0.32477281  0.31208724  0.55022608  1
  O  O555  1  0.32458300  0.31367264  0.80011867  1
  O  O556  1  0.32275797  0.64708967  0.05280884  1
  O  O557  1  0.32357666  0.64566761  0.30096078  1
  O  O558  1  0.32157933  0.64740934  0.55153202  1
  O  O559  1  0.32392094  0.64739790  0.79970768  1
  O  O560  1  0.32322124  0.98086857  0.05215303  1
  O  O561  1  0.32185558  0.97971942  0.30213608  1
  O  O562  1  0.32306145  0.97850422  0.54931721  1
  O  O563  1  0.32341270  0.98008760  0.79916610  1
  O  O564  1  0.82404049  0.31267890  0.04995806  1
  O  O565  1  0.82388397  0.31339324  0.29899950  1
  O  O566  1  0.82213867  0.31325822  0.55153982  1
  O  O567  1  0.82430887  0.31309688  0.79921157  1
  O  O568  1  0.82284899  0.64619716  0.04888240  1
  O  O569  1  0.82285683  0.64789871  0.29839866  1
  O  O570  1  0.82269150  0.64881016  0.55118697  1
  O  O571  1  0.82056903  0.64766166  0.80190732  1
  O  O572  1  0.82158713  0.97989998  0.05069038  1
  O  O573  1  0.82175658  0.98174578  0.30004082  1
  O  O574  1  0.82253772  0.97891379  0.55066064  1
  O  O575  1  0.82234405  0.97867794  0.79975833  1
  O  O576  1  0.42717674  0.14556176  0.17508738  1
  O  O577  1  0.42750708  0.14553089  0.42467484  1
  O  O578  1  0.42711411  0.14513468  0.67473188  1
  O  O579  1  0.42687918  0.14557206  0.92498236  1
  O  O580  1  0.42817132  0.48030357  0.17695623  1
  O  O581  1  0.42699193  0.48111430  0.42674303  1
  O  O582  1  0.42868043  0.48071743  0.67796878  1
  O  O583  1  0.42772631  0.48030780  0.92745316  1
  O  O584  1  0.42651276  0.81459774  0.17616476  1
  O  O585  1  0.42755464  0.81349591  0.42653747  1
  O  O586  1  0.42739098  0.81455982  0.67456100  1
  O  O587  1  0.42667912  0.81472166  0.92536662  1
  O  O588  1  0.92733100  0.14582887  0.17614395  1
  O  O589  1  0.92708332  0.14531357  0.42488827  1
  O  O590  1  0.92617736  0.14676892  0.67417913  1
  O  O591  1  0.92644324  0.14828262  0.92660196  1
  O  O592  1  0.92694119  0.48108860  0.17549367  1
  O  O593  1  0.92569980  0.47993422  0.42488819  1
  O  O594  1  0.92649822  0.48166609  0.67632747  1
  O  O595  1  0.92696023  0.48213483  0.92592911  1
  O  O596  1  0.92651904  0.81454276  0.17574484  1
  O  O597  1  0.92523357  0.81326557  0.42435205  1
  O  O598  1  0.92703921  0.81294888  0.67520320  1
  O  O599  1  0.92610622  0.81293307  0.92394852  1
  O  O600  1  0.07335037  0.18500560  0.07473888  1
  O  O601  1  0.07478206  0.18600944  0.32565943  1
  O  O602  1  0.07457380  0.18719278  0.57533103  1
  O  O603  1  0.07443218  0.18709575  0.82552945  1
  O  O604  1  0.07320477  0.51878953  0.07402221  1
  O  O605  1  0.07328028  0.51833757  0.32375443  1
  O  O606  1  0.07373362  0.52049258  0.57549922  1
  O  O607  1  0.07271827  0.51993090  0.82311771  1
  O  O608  1  0.07336343  0.85277590  0.07602843  1
  O  O609  1  0.07118205  0.85250279  0.32363658  1
  O  O610  1  0.07280914  0.85375016  0.57386295  1
  O  O611  1  0.07479015  0.85378788  0.82512902  1
  O  O612  1  0.57317557  0.18774401  0.07538735  1
  O  O613  1  0.57388456  0.18770694  0.32445401  1
  O  O614  1  0.57357895  0.18632396  0.57579961  1
  O  O615  1  0.57336564  0.18762413  0.82608254  1
  O  O616  1  0.57269978  0.51895893  0.07416111  1
  O  O617  1  0.57325193  0.51940377  0.32456139  1
  O  O618  1  0.57238502  0.51987184  0.57420325  1
  O  O619  1  0.57212469  0.51884679  0.82383558  1
  O  O620  1  0.57163978  0.85311420  0.07253117  1
  O  O621  1  0.57180761  0.85267308  0.32301994  1
  O  O622  1  0.57121914  0.85274841  0.57254417  1
  O  O623  1  0.57193381  0.85293723  0.82205175  1
  O  O624  1  0.32417056  0.18528990  0.05198596  1
  O  O625  1  0.32448056  0.18741901  0.30053249  1
  O  O626  1  0.32370558  0.18484120  0.55018429  1
  O  O627  1  0.32485568  0.18675238  0.80014931  1
  O  O628  1  0.32252628  0.51953856  0.05274214  1
  O  O629  1  0.32346388  0.51881158  0.30146282  1
  O  O630  1  0.32352858  0.51996369  0.55207951  1
  O  O631  1  0.32430206  0.52071993  0.80009576  1
  O  O632  1  0.32341708  0.85377192  0.05113881  1
  O  O633  1  0.32159946  0.85230014  0.30113135  1
  O  O634  1  0.32265961  0.85163053  0.55034360  1
  O  O635  1  0.32358606  0.85317666  0.79999587  1
  O  O636  1  0.82322687  0.18535729  0.05104336  1
  O  O637  1  0.82407734  0.18649917  0.29962348  1
  O  O638  1  0.82231290  0.18554844  0.55088353  1
  O  O639  1  0.82367285  0.18635029  0.79913796  1
  O  O640  1  0.82201859  0.51931190  0.05036804  1
  O  O641  1  0.82351241  0.52093183  0.29963704  1
  O  O642  1  0.82330200  0.52167865  0.55075573  1
  O  O643  1  0.82157250  0.52032364  0.80046428  1
  O  O644  1  0.82177627  0.85258688  0.05126388  1
  O  O645  1  0.82141336  0.85482481  0.29913651  1
  O  O646  1  0.82234273  0.85193047  0.55038245  1
  O  O647  1  0.82275422  0.85162323  0.80053993  1
  O  O648  1  0.17855249  0.14693707  0.19985649  1
  O  O649  1  0.17715746  0.14546968  0.44922584  1
  O  O650  1  0.17761111  0.14868735  0.69854145  1
  O  O651  1  0.17725237  0.14687449  0.95152671  1
  O  O652  1  0.17771658  0.48112734  0.20018979  1
  O  O653  1  0.17824746  0.48015836  0.44890771  1
  O  O654  1  0.17787429  0.48158501  0.69918467  1
  O  O655  1  0.17677324  0.48014614  0.95070238  1
  O  O656  1  0.17650921  0.81198722  0.20070387  1
  O  O657  1  0.17657502  0.81368452  0.44902026  1
  O  O658  1  0.17762753  0.81377927  0.69831376  1
  O  O659  1  0.17639453  0.81300713  0.95147140  1
  O  O660  1  0.67756997  0.14744478  0.19832823  1
  O  O661  1  0.67650729  0.14564735  0.44878835  1
  O  O662  1  0.67631154  0.14765421  0.69877587  1
  O  O663  1  0.67628669  0.14664708  0.95052171  1
  O  O664  1  0.67744049  0.48199083  0.19840707  1
  O  O665  1  0.67640588  0.48013887  0.45121530  1
  O  O666  1  0.67649586  0.47935603  0.69964783  1
  O  O667  1  0.67670329  0.48107326  0.94843792  1
  O  O668  1  0.67562023  0.81535309  0.19782915  1
  O  O669  1  0.67494537  0.81330569  0.45014210  1
  O  O670  1  0.67703569  0.81350277  0.69800560  1
  O  O671  1  0.67645573  0.81371844  0.94735498  1
