# generated using pymatgen
data_Na2MnFe(PO4)2
_symmetry_space_group_name_H-M   'P 1'
_cell_length_a   22.34239118
_cell_length_b   20.09367353
_cell_length_c   19.45090235
_cell_angle_alpha   89.98756702
_cell_angle_beta   89.96831624
_cell_angle_gamma   89.98370114
_symmetry_Int_Tables_number   1
_chemical_formula_structural   Na2MnFe(PO4)2
_chemical_formula_sum   'Na96 Mn48 Fe48 P96 O384'
_cell_volume   8732.30009887
_cell_formula_units_Z   48
loop_
 _symmetry_equiv_pos_site_id
 _symmetry_equiv_pos_as_xyz
  1  'x, y, z'
loop_
 _atom_site_type_symbol
 _atom_site_label
 _atom_site_symmetry_multiplicity
 _atom_site_fract_x
 _atom_site_fract_y
 _atom_site_fract_z
 _atom_site_occupancy
  Na  Na0  1  0.14008040  0.24965474  0.24499731  1
  Na  Na1  1  0.14061056  0.24969198  0.49216586  1
  Na  Na2  1  0.14062580  0.25009337  0.74342535  1
  Na  Na3  1  0.13996580  0.25082312  0.99454988  1
  Na  Na4  1  0.14077036  0.58272907  0.24361503  1
  Na  Na5  1  0.14080971  0.58415608  0.49279098  1
  Na  Na6  1  0.14040827  0.58391620  0.74396305  1
  Na  Na7  1  0.14047453  0.58308297  0.99435353  1
  Na  Na8  1  0.14011449  0.91535790  0.24381429  1
  Na  Na9  1  0.14050386  0.91786004  0.49365872  1
  Na  Na10  1  0.13973363  0.91807235  0.74288361  1
  Na  Na11  1  0.13987225  0.91655139  0.99564413  1
  Na  Na12  1  0.64024207  0.24862638  0.24354101  1
  Na  Na13  1  0.64111954  0.25061771  0.49367351  1
  Na  Na14  1  0.64071165  0.25059642  0.74272220  1
  Na  Na15  1  0.63972416  0.25143859  0.99316264  1
  Na  Na16  1  0.64127446  0.58275221  0.24405942  1
  Na  Na17  1  0.64045987  0.58207096  0.49336844  1
  Na  Na18  1  0.64059589  0.58177804  0.74305963  1
  Na  Na19  1  0.64114966  0.58487699  0.99355837  1
  Na  Na20  1  0.64036087  0.91548078  0.24270238  1
  Na  Na21  1  0.64058283  0.91828542  0.49312695  1
  Na  Na22  1  0.64007173  0.91659535  0.74351893  1
  Na  Na23  1  0.63984092  0.91731211  0.99489692  1
  Na  Na24  1  0.35968842  0.08383071  0.00818009  1
  Na  Na25  1  0.35928017  0.08257148  0.25745585  1
  Na  Na26  1  0.35978025  0.08339926  0.50497334  1
  Na  Na27  1  0.35933834  0.08464223  0.75583965  1
  Na  Na28  1  0.35988742  0.41624763  0.00580941  1
  Na  Na29  1  0.35935914  0.41538800  0.25656072  1
  Na  Na30  1  0.36001827  0.41651795  0.50607606  1
  Na  Na31  1  0.36061977  0.41628709  0.75646121  1
  Na  Na32  1  0.35906211  0.75128108  0.00696538  1
  Na  Na33  1  0.35939596  0.75059007  0.25595556  1
  Na  Na34  1  0.35945856  0.75188930  0.50555332  1
  Na  Na35  1  0.36002264  0.75122327  0.75594564  1
  Na  Na36  1  0.85898759  0.08302445  0.00639690  1
  Na  Na37  1  0.85841100  0.08243776  0.25709421  1
  Na  Na38  1  0.85942953  0.08439712  0.50723665  1
  Na  Na39  1  0.85959854  0.08214792  0.75552539  1
  Na  Na40  1  0.85999616  0.41791168  0.00688974  1
  Na  Na41  1  0.85923125  0.41435194  0.25661297  1
  Na  Na42  1  0.85943601  0.41533803  0.50605216  1
  Na  Na43  1  0.86006047  0.41628541  0.75543068  1
  Na  Na44  1  0.85896613  0.75096622  0.00668518  1
  Na  Na45  1  0.85994927  0.74849858  0.25666008  1
  Na  Na46  1  0.85983534  0.74969022  0.50623835  1
  Na  Na47  1  0.85957074  0.74907875  0.75674620  1
  Na  Na48  1  0.10913306  0.08332399  0.11982832  1
  Na  Na49  1  0.10998819  0.08359648  0.36833391  1
  Na  Na50  1  0.11014584  0.08353407  0.61764321  1
  Na  Na51  1  0.10924418  0.08264548  0.86889897  1
  Na  Na52  1  0.10969411  0.41576662  0.11926584  1
  Na  Na53  1  0.11020571  0.41642351  0.36812817  1
  Na  Na54  1  0.10982628  0.41653829  0.61750717  1
  Na  Na55  1  0.10974126  0.41705484  0.86949941  1
  Na  Na56  1  0.11021654  0.74877259  0.11911486  1
  Na  Na57  1  0.10972394  0.74983045  0.36795831  1
  Na  Na58  1  0.10935005  0.75029986  0.61953999  1
  Na  Na59  1  0.10911966  0.75053757  0.86900023  1
  Na  Na60  1  0.60878793  0.08424499  0.11893958  1
  Na  Na61  1  0.61015511  0.08266943  0.36815997  1
  Na  Na62  1  0.61023611  0.08358342  0.61842374  1
  Na  Na63  1  0.60901575  0.08363417  0.86945789  1
  Na  Na64  1  0.61002919  0.41566110  0.11829938  1
  Na  Na65  1  0.61054260  0.41624885  0.36826942  1
  Na  Na66  1  0.61058357  0.41681710  0.61841381  1
  Na  Na67  1  0.60991221  0.41658568  0.86820970  1
  Na  Na68  1  0.61022285  0.75210932  0.11844614  1
  Na  Na69  1  0.61002253  0.75121719  0.36772496  1
  Na  Na70  1  0.60914236  0.75056574  0.61861292  1
  Na  Na71  1  0.60972130  0.75041645  0.86876046  1
  Na  Na72  1  0.39010775  0.24986639  0.13159623  1
  Na  Na73  1  0.39012697  0.24933220  0.38204987  1
  Na  Na74  1  0.39036686  0.25069756  0.63113186  1
  Na  Na75  1  0.39075743  0.25022976  0.88163952  1
  Na  Na76  1  0.39077410  0.58448808  0.13135946  1
  Na  Na77  1  0.39041126  0.58347226  0.38094408  1
  Na  Na78  1  0.39097585  0.58298950  0.63082464  1
  Na  Na79  1  0.39104435  0.58217384  0.88082385  1
  Na  Na80  1  0.38963131  0.91840812  0.13299343  1
  Na  Na81  1  0.38963855  0.91712651  0.38030500  1
  Na  Na82  1  0.39018067  0.91833395  0.63015620  1
  Na  Na83  1  0.39019177  0.91754659  0.88133289  1
  Na  Na84  1  0.88970943  0.25079172  0.13149671  1
  Na  Na85  1  0.88960102  0.25002674  0.38226834  1
  Na  Na86  1  0.88995405  0.24886202  0.63067830  1
  Na  Na87  1  0.89047806  0.25051344  0.88087811  1
  Na  Na88  1  0.89049284  0.58244933  0.13169237  1
  Na  Na89  1  0.89056421  0.58217704  0.38134997  1
  Na  Na90  1  0.89047941  0.58333917  0.63070985  1
  Na  Na91  1  0.89032186  0.58275397  0.88101800  1
  Na  Na92  1  0.88938314  0.91522264  0.13288448  1
  Na  Na93  1  0.88984315  0.91514264  0.38174256  1
  Na  Na94  1  0.89045898  0.91607969  0.63246024  1
  Na  Na95  1  0.88981614  0.91595155  0.88088890  1
  Mn  Mn96  1  0.24947635  0.16662052  0.12583052  1
  Mn  Mn97  1  -0.00111814  0.16772614  0.24945610  1
  Mn  Mn98  1  0.24970364  0.00099237  0.87545296  1
  Mn  Mn99  1  0.50025672  0.50028196  0.24948341  1
  Mn  Mn100  1  0.75020654  -0.00042810  0.37527497  1
  Mn  Mn101  1  0.74908928  -0.00074067  0.87554283  1
  Mn  Mn102  1  -0.00018335  0.50072628  0.74913744  1
  Mn  Mn103  1  -0.00126093  -0.00047649  0.25044511  1
  Mn  Mn104  1  0.25052971  0.66755485  0.62401422  1
  Mn  Mn105  1  0.75007333  0.66592337  0.37515682  1
  Mn  Mn106  1  0.49958929  0.00014502  0.75004928  1
  Mn  Mn107  1  -0.00032183  0.83274217  -0.00004277  1
  Mn  Mn108  1  0.49995447  0.66713400  -0.00069529  1
  Mn  Mn109  1  0.74952517  0.66561515  0.62511860  1
  Mn  Mn110  1  0.74976227  0.16679496  0.87472146  1
  Mn  Mn111  1  0.74986219  0.49975879  0.12501028  1
  Mn  Mn112  1  0.50131729  0.66806285  0.25032063  1
  Mn  Mn113  1  -0.00095760  0.66563491  0.00002034  1
  Mn  Mn114  1  0.49957585  0.33257259  0.24977809  1
  Mn  Mn115  1  0.24957186  0.83443288  0.87552729  1
  Mn  Mn116  1  0.00029653  0.33322617  0.74960825  1
  Mn  Mn117  1  0.25074393  0.49960554  0.87498670  1
  Mn  Mn118  1  0.75076295  0.33440699  0.87371640  1
  Mn  Mn119  1  0.00101535  0.16595968  0.75023113  1
  Mn  Mn120  1  0.24975392  0.33275013  0.62467385  1
  Mn  Mn121  1  0.50003909  0.66681156  0.74946912  1
  Mn  Mn122  1  0.50099849  0.49916754  0.00020434  1
  Mn  Mn123  1  0.00032489  -0.00031240  0.50006465  1
  Mn  Mn124  1  -0.00087137  0.16705287  -0.00021888  1
  Mn  Mn125  1  0.49976644  0.16730377  0.75021125  1
  Mn  Mn126  1  0.50070028  0.33399710  0.50036023  1
  Mn  Mn127  1  -0.00059844  -0.00073040  0.00020757  1
  Mn  Mn128  1  0.24972407  0.83523352  0.62524163  1
  Mn  Mn129  1  0.25027542  0.49995950  0.62464192  1
  Mn  Mn130  1  0.74972781  0.16668992  0.12526772  1
  Mn  Mn131  1  0.25026082  0.66692492  0.37445705  1
  Mn  Mn132  1  -0.00028854  0.49920461  0.25076025  1
  Mn  Mn133  1  0.49980732  0.66676050  0.49964844  1
  Mn  Mn134  1  0.00028781  0.83190429  0.50101556  1
  Mn  Mn135  1  0.25000146  0.49920957  0.12464099  1
  Mn  Mn136  1  0.49897227  0.83481715  -0.00033446  1
  Mn  Mn137  1  0.00089933  0.50018452  0.49945254  1
  Mn  Mn138  1  0.50069073  0.16599405  0.50040054  1
  Mn  Mn139  1  0.74950765  0.83371004  0.62509005  1
  Mn  Mn140  1  0.24989195  0.66710833  0.87519473  1
  Mn  Mn141  1  0.50012005  0.83466956  0.49883052  1
  Mn  Mn142  1  0.24924171  0.16781644  0.87626305  1
  Mn  Mn143  1  0.74993726  0.66684105  0.87491820  1
  Fe  Fe144  1  0.75034117  0.33342525  0.62408252  1
  Fe  Fe145  1  0.24948924  0.83380230  0.37454369  1
  Fe  Fe146  1  0.74968717  0.16657711  0.37570729  1
  Fe  Fe147  1  0.75043850  0.00008559  0.62462932  1
  Fe  Fe148  1  -0.00039512  -0.00036775  0.74961663  1
  Fe  Fe149  1  0.49950122  0.00112214  0.00114116  1
  Fe  Fe150  1  0.50069978  0.49967507  0.75019201  1
  Fe  Fe151  1  0.49997399  0.00066900  0.24959376  1
  Fe  Fe152  1  0.74970168  0.83378076  0.87573745  1
  Fe  Fe153  1  0.24997862  0.33337275  0.87486151  1
  Fe  Fe154  1  0.75002695  0.83266915  0.37461078  1
  Fe  Fe155  1  0.00069286  0.66579084  0.25000207  1
  Fe  Fe156  1  0.25063166  0.49946836  0.37390533  1
  Fe  Fe157  1  0.49940235  0.83475266  0.24946823  1
  Fe  Fe158  1  0.74950121  0.33312981  0.12535226  1
  Fe  Fe159  1  0.24965664  0.83335486  0.12545041  1
  Fe  Fe160  1  0.75028904  0.50012802  0.87479255  1
  Fe  Fe161  1  -0.00023405  0.33323504  0.25013250  1
  Fe  Fe162  1  0.25042552  0.33271022  0.37522266  1
  Fe  Fe163  1  0.24987528  0.16612593  0.37488672  1
  Fe  Fe164  1  0.00018244  0.33356975  0.00027050  1
  Fe  Fe165  1  0.49978601  0.16685908  0.00030517  1
  Fe  Fe166  1  0.49971333  0.33285908  -0.00030072  1
  Fe  Fe167  1  0.75062952  0.66668372  0.12514503  1
  Fe  Fe168  1  0.25027910  0.00154412  0.62396287  1
  Fe  Fe169  1  0.74992474  0.33248398  0.37555113  1
  Fe  Fe170  1  0.24902596  -0.00016784  0.12658839  1
  Fe  Fe171  1  0.24960285  -0.00016872  0.37535207  1
  Fe  Fe172  1  0.50087806  0.33365700  0.75030916  1
  Fe  Fe173  1  -0.00056119  0.83287290  0.75002882  1
  Fe  Fe174  1  0.00046640  0.49957711  0.00032999  1
  Fe  Fe175  1  0.24987533  0.33280035  0.12603169  1
  Fe  Fe176  1  0.75008592  0.16670500  0.62486411  1
  Fe  Fe177  1  0.25055383  0.66641799  0.12532112  1
  Fe  Fe178  1  -0.00016179  0.16641325  0.49973246  1
  Fe  Fe179  1  -0.00000847  0.83204488  0.25095661  1
  Fe  Fe180  1  0.49993231  0.16648900  0.24998572  1
  Fe  Fe181  1  0.74939315  -0.00069153  0.12560904  1
  Fe  Fe182  1  0.49997775  0.83410546  0.74959892  1
  Fe  Fe183  1  -0.00004826  0.33283328  0.49959109  1
  Fe  Fe184  1  0.50060503  0.49986379  0.50028193  1
  Fe  Fe185  1  0.75031693  0.49881636  0.37419022  1
  Fe  Fe186  1  0.75011738  0.83298181  0.12529262  1
  Fe  Fe187  1  0.00010660  0.66663937  0.50021531  1
  Fe  Fe188  1  0.50023433  -0.00011511  0.49897119  1
  Fe  Fe189  1  0.25043934  0.16692252  0.62429740  1
  Fe  Fe190  1  0.75067548  0.49910130  0.62393541  1
  Fe  Fe191  1  0.00011329  0.66654498  0.75050241  1
  P  P192  1  0.04177809  0.25138398  0.10281626  1
  P  P193  1  0.04145752  0.25124677  0.35315239  1
  P  P194  1  0.04178720  0.24965158  0.60093789  1
  P  P195  1  0.04300138  0.25048393  0.85354550  1
  P  P196  1  0.04206988  0.58174003  0.10304535  1
  P  P197  1  0.04265830  0.58431199  0.35273704  1
  P  P198  1  0.04273782  0.58500193  0.60254113  1
  P  P199  1  0.04236374  0.58385720  0.85279551  1
  P  P200  1  0.04168004  0.91553688  0.10431485  1
  P  P201  1  0.04175422  0.91512128  0.35267090  1
  P  P202  1  0.04253270  0.91625935  0.60415167  1
  P  P203  1  0.04098085  0.91651804  0.85125890  1
  P  P204  1  0.54111428  0.24965369  0.10180254  1
  P  P205  1  0.54226422  0.24844677  0.35237792  1
  P  P206  1  0.54323116  0.25056781  0.60357118  1
  P  P207  1  0.54251648  0.25121373  0.85310784  1
  P  P208  1  0.54343117  0.58419611  0.10285500  1
  P  P209  1  0.54335971  0.58316825  0.35350350  1
  P  P210  1  0.54239832  0.58206969  0.60268943  1
  P  P211  1  0.54274441  0.58215220  0.85202495  1
  P  P212  1  0.54126060  0.91895861  0.10338693  1
  P  P213  1  0.54162050  0.91754734  0.35106476  1
  P  P214  1  0.54248313  0.91826482  0.60211053  1
  P  P215  1  0.54207955  0.91614469  0.85274688  1
  P  P216  1  0.45786282  0.08407183  0.14820847  1
  P  P217  1  0.45845074  0.08210060  0.39644540  1
  P  P218  1  0.45723257  0.08367755  0.64657349  1
  P  P219  1  0.45810303  0.08349994  0.89909726  1
  P  P220  1  0.45727825  0.41611634  0.14634563  1
  P  P221  1  0.45815132  0.41782205  0.39765462  1
  P  P222  1  0.45929510  0.41698941  0.64843230  1
  P  P223  1  0.45843269  0.41511589  0.89686810  1
  P  P224  1  0.45778614  0.75221179  0.14752914  1
  P  P225  1  0.45735161  0.75103429  0.39595272  1
  P  P226  1  0.45780650  0.75186088  0.64710533  1
  P  P227  1  0.45677163  0.75062606  0.89611698  1
  P  P228  1  0.95593205  0.08341882  0.14705962  1
  P  P229  1  0.95757806  0.08420334  0.39779883  1
  P  P230  1  0.95835142  0.08246446  0.64702671  1
  P  P231  1  0.95681264  0.08260187  0.89642685  1
  P  P232  1  0.95774719  0.41522232  0.14727075  1
  P  P233  1  0.95805677  0.41518515  0.39740447  1
  P  P234  1  0.95780795  0.41629800  0.64578000  1
  P  P235  1  0.95849557  0.41687794  0.89850519  1
  P  P236  1  0.95864180  0.74886708  0.14895599  1
  P  P237  1  0.95805035  0.74801161  0.39713609  1
  P  P238  1  0.95827568  0.74888128  0.64849046  1
  P  P239  1  0.95680521  0.74949980  0.89620888  1
  P  P240  1  0.20737312  0.08201227  0.22903215  1
  P  P241  1  0.20871286  0.08344674  0.47701491  1
  P  P242  1  0.20837904  0.08437649  0.72613497  1
  P  P243  1  0.20662534  0.08345419  0.97945949  1
  P  P244  1  0.20817831  0.41493711  0.22853102  1
  P  P245  1  0.20888756  0.41653718  0.47598411  1
  P  P246  1  0.20725566  0.41631706  0.72816137  1
  P  P247  1  0.20800163  0.41518194  0.97794819  1
  P  P248  1  0.20896915  0.74971187  0.22698666  1
  P  P249  1  0.20764869  0.75192501  0.47694355  1
  P  P250  1  0.20726320  0.75073919  0.72793882  1
  P  P251  1  0.20703667  0.75037326  0.97939225  1
  P  P252  1  0.70756515  0.08173876  0.22790543  1
  P  P253  1  0.70811501  0.08465888  0.47827234  1
  P  P254  1  0.70852126  0.08303580  0.72630774  1
  P  P255  1  0.70699174  0.08342606  0.97878156  1
  P  P256  1  0.70771465  0.41480874  0.22811255  1
  P  P257  1  0.70921531  0.41648225  0.47683987  1
  P  P258  1  0.70932825  0.41682140  0.72601995  1
  P  P259  1  0.70802585  0.41820169  0.97721066  1
  P  P260  1  0.70886490  0.74943780  0.22697649  1
  P  P261  1  0.70757810  0.75104786  0.47721964  1
  P  P262  1  0.70699469  0.74975834  0.72837043  1
  P  P263  1  0.70780177  0.75177136  0.97834077  1
  P  P264  1  0.29189672  0.25151600  0.02305408  1
  P  P265  1  0.29136089  0.24960797  0.27357392  1
  P  P266  1  0.29237458  0.24871406  0.52140797  1
  P  P267  1  0.29245779  0.25079986  0.77250814  1
  P  P268  1  0.29264185  0.58432560  0.02279913  1
  P  P269  1  0.29238080  0.58222642  0.27174552  1
  P  P270  1  0.29310814  0.58315317  0.52064221  1
  P  P271  1  0.29338450  0.58365001  0.77171320  1
  P  P272  1  0.29100283  0.91755948  0.02458018  1
  P  P273  1  0.29057698  0.91684615  0.27288370  1
  P  P274  1  0.29186483  0.91906044  0.52142255  1
  P  P275  1  0.29250055  0.91834795  0.77165730  1
  P  P276  1  0.79191060  0.25170335  0.02268091  1
  P  P277  1  0.79078762  0.24926396  0.27363582  1
  P  P278  1  0.79111827  0.24973010  0.52263026  1
  P  P279  1  0.79294256  0.24964973  0.77050970  1
  P  P280  1  0.79243608  0.58482334  0.02247246  1
  P  P281  1  0.79257948  0.58156365  0.27220891  1
  P  P282  1  0.79210260  0.58147126  0.52169363  1
  P  P283  1  0.79223560  0.58151146  0.77202071  1
  P  P284  1  0.79131833  0.91643151  0.02374746  1
  P  P285  1  0.79193069  0.91462602  0.27209146  1
  P  P286  1  0.79267696  0.91783987  0.52237277  1
  P  P287  1  0.79172792  0.91552011  0.77248950  1
  O  O288  1  0.03655563  0.25153223  0.18277774  1
  O  O289  1  0.03612069  0.25071145  0.43305077  1
  O  O290  1  0.03755355  0.24938648  0.68099886  1
  O  O291  1  0.03749786  0.25102210  0.93345361  1
  O  O292  1  0.03679914  0.58222088  0.18298745  1
  O  O293  1  0.03749652  0.58464243  0.43266750  1
  O  O294  1  0.03731522  0.58496501  0.68248330  1
  O  O295  1  0.03692959  0.58272833  0.93272603  1
  O  O296  1  0.03631129  0.91505600  0.18423298  1
  O  O297  1  0.03716412  0.91505954  0.43267807  1
  O  O298  1  0.03711024  0.91646051  0.68403396  1
  O  O299  1  0.03613917  0.91634078  0.93131020  1
  O  O300  1  0.53620358  0.24874873  0.18175626  1
  O  O301  1  0.53753598  0.24886311  0.43233867  1
  O  O302  1  0.53808690  0.25118916  0.68350195  1
  O  O303  1  0.53714764  0.25108321  0.93299076  1
  O  O304  1  0.53840762  0.58437489  0.18283035  1
  O  O305  1  0.53801067  0.58259182  0.43347499  1
  O  O306  1  0.53700630  0.58196805  0.68263386  1
  O  O307  1  0.53762054  0.58241727  0.93198003  1
  O  O308  1  0.53584632  0.91848390  0.18326830  1
  O  O309  1  0.53686959  0.91791952  0.43106325  1
  O  O310  1  0.53725435  0.91756896  0.68203443  1
  O  O311  1  0.53681305  0.91684863  0.93262628  1
  O  O312  1  0.46283626  0.08404177  0.06831184  1
  O  O313  1  0.46378925  0.08248759  0.31656076  1
  O  O314  1  0.46244148  0.08329117  0.56668363  1
  O  O315  1  0.46284846  0.08376916  0.81913850  1
  O  O316  1  0.46249785  0.41542835  0.06641182  1
  O  O317  1  0.46293013  0.41723380  0.31768682  1
  O  O318  1  0.46428791  0.41760336  0.56843809  1
  O  O319  1  0.46402804  0.41537231  0.81698822  1
  O  O320  1  0.46253968  0.75203659  0.06753292  1
  O  O321  1  0.46265584  0.75157899  0.31601463  1
  O  O322  1  0.46310150  0.75165962  0.56712427  1
  O  O323  1  0.46206409  0.75103119  0.81616648  1
  O  O324  1  0.96100637  0.08334570  0.06709925  1
  O  O325  1  0.96210004  0.08424565  0.31780385  1
  O  O326  1  0.96358760  0.08324883  0.56707882  1
  O  O327  1  0.96242866  0.08201826  0.81647708  1
  O  O328  1  0.96327894  0.41557339  0.06741036  1
  O  O329  1  0.96298592  0.41503797  0.31743681  1
  O  O330  1  0.96332431  0.41588351  0.56589445  1
  O  O331  1  0.96349197  0.41699129  0.81849399  1
  O  O332  1  0.96308968  0.74922846  0.06893904  1
  O  O333  1  0.96366802  0.74824039  0.31727645  1
  O  O334  1  0.96314646  0.74864449  0.56848434  1
  O  O335  1  0.96208492  0.74953582  0.81633011  1
  O  O336  1  0.21156239  0.08296863  0.05941406  1
  O  O337  1  0.21285542  0.08214734  0.30888428  1
  O  O338  1  0.21390805  0.08404545  0.55690451  1
  O  O339  1  0.21295811  0.08462570  0.80617509  1
  O  O340  1  0.21319875  0.41517747  0.05791787  1
  O  O341  1  0.21403664  0.41549384  0.30836973  1
  O  O342  1  0.21361531  0.41647447  0.55601006  1
  O  O343  1  0.21236452  0.41585661  0.80811389  1
  O  O344  1  0.21241777  0.74995918  0.05933135  1
  O  O345  1  0.21383763  0.75035494  0.30694010  1
  O  O346  1  0.21284108  0.75181454  0.55686065  1
  O  O347  1  0.21206835  0.75065079  0.80793496  1
  O  O348  1  0.71228455  0.08295591  0.05869313  1
  O  O349  1  0.71299254  0.08221495  0.30778870  1
  O  O350  1  0.71371740  0.08449070  0.55811212  1
  O  O351  1  0.71347044  0.08287673  0.80631683  1
  O  O352  1  0.71278027  0.41763127  0.05713088  1
  O  O353  1  0.71309699  0.41483562  0.30795584  1
  O  O354  1  0.71448520  0.41641033  0.55668203  1
  O  O355  1  0.71408403  0.41717424  0.80594701  1
  O  O356  1  0.71347216  0.75150002  0.05819848  1
  O  O357  1  0.71402966  0.74965964  0.30693479  1
  O  O358  1  0.71256471  0.75085513  0.55715485  1
  O  O359  1  0.71216207  0.75011665  0.80829687  1
  O  O360  1  0.28640012  0.24982839  0.19363395  1
  O  O361  1  0.28699573  0.24916429  0.44155248  1
  O  O362  1  0.28748106  0.24979285  0.69254130  1
  O  O363  1  0.28668737  0.25166991  0.94312524  1
  O  O364  1  0.28692760  0.58278704  0.19183759  1
  O  O365  1  0.28781273  0.58246829  0.44066270  1
  O  O366  1  0.28844603  0.58363971  0.69169439  1
  O  O367  1  0.28751604  0.58414772  0.94284799  1
  O  O368  1  0.28536847  0.91686048  0.19302248  1
  O  O369  1  0.28621510  0.91857372  0.44158087  1
  O  O370  1  0.28770125  0.91904124  0.69167764  1
  O  O371  1  0.28643626  0.91744977  0.94456280  1
  O  O372  1  0.78588550  0.24999149  0.19371147  1
  O  O373  1  0.78597530  0.24955149  0.44274885  1
  O  O374  1  0.78775700  0.24932239  0.69061257  1
  O  O375  1  0.78710827  0.25157708  0.94271542  1
  O  O376  1  0.78707594  0.58241617  0.19234732  1
  O  O377  1  0.78677306  0.58143772  0.44177939  1
  O  O378  1  0.78696338  0.58120868  0.69207155  1
  O  O379  1  0.78723018  0.58449112  0.94257685  1
  O  O380  1  0.78645213  0.91492320  0.19223390  1
  O  O381  1  0.78774808  0.91728479  0.44244779  1
  O  O382  1  0.78675843  0.91650459  0.69256850  1
  O  O383  1  0.78615893  0.91605759  0.94378590  1
  O  O384  1  0.22762867  0.25138448  0.05888831  1
  O  O385  1  0.22723874  0.25028845  0.30953677  1
  O  O386  1  0.22817675  0.24829043  0.55751940  1
  O  O387  1  0.22803959  0.25162882  0.80804654  1
  O  O388  1  0.22832051  0.58456292  0.05838085  1
  O  O389  1  0.22822779  0.58197635  0.30777996  1
  O  O390  1  0.22874755  0.58359887  0.55601436  1
  O  O391  1  0.22889163  0.58323743  0.80667963  1
  O  O392  1  0.22672824  0.91756504  0.06015698  1
  O  O393  1  0.22658710  0.91688741  0.30939956  1
  O  O394  1  0.22782114  0.91948361  0.55784551  1
  O  O395  1  0.22798618  0.91801835  0.80670292  1
  O  O396  1  0.72750958  0.25154554  0.05810473  1
  O  O397  1  0.72667346  0.24867288  0.30965823  1
  O  O398  1  0.72722949  0.24953467  0.55919757  1
  O  O399  1  0.72864935  0.25038186  0.80618265  1
  O  O400  1  0.72821902  0.58513919  0.05835268  1
  O  O401  1  0.72841334  0.58106569  0.30828312  1
  O  O402  1  0.72788756  0.58112216  0.55758035  1
  O  O403  1  0.72801548  0.58170142  0.80793444  1
  O  O404  1  0.72718333  0.91623903  0.05990902  1
  O  O405  1  0.72782329  0.91474129  0.30836398  1
  O  O406  1  0.72824387  0.91847614  0.55774861  1
  O  O407  1  0.72739834  0.91484881  0.80819202  1
  O  O408  1  0.27145583  0.08184222  0.19273050  1
  O  O409  1  0.27267028  0.08270225  0.44055343  1
  O  O410  1  0.27268013  0.08458037  0.69038316  1
  O  O411  1  0.27109406  0.08394675  0.94437247  1
  O  O412  1  0.27218467  0.41479986  0.19202688  1
  O  O413  1  0.27314924  0.41629036  0.44032071  1
  O  O414  1  0.27170105  0.41615531  0.69300780  1
  O  O415  1  0.27226025  0.41477939  0.94202987  1
  O  O416  1  0.27302993  0.74926606  0.19085926  1
  O  O417  1  0.27195007  0.75197865  0.44135341  1
  O  O418  1  0.27173200  0.75113158  0.69292920  1
  O  O419  1  0.27132186  0.75077400  0.94371027  1
  O  O420  1  0.77169881  0.08163148  0.19186362  1
  O  O421  1  0.77218092  0.08479874  0.44189618  1
  O  O422  1  0.77269363  0.08283134  0.69034283  1
  O  O423  1  0.77124022  0.08313468  0.94319173  1
  O  O424  1  0.77184837  0.41470996  0.19188114  1
  O  O425  1  0.77314705  0.41681179  0.44025993  1
  O  O426  1  0.77348626  0.41683653  0.69007414  1
  O  O427  1  0.77245667  0.41852985  0.94173233  1
  O  O428  1  0.77297097  0.74946030  0.19075853  1
  O  O429  1  0.77197024  0.75092575  0.44182492  1
  O  O430  1  0.77132697  0.74961664  0.69295426  1
  O  O431  1  0.77184183  0.75176435  0.94183680  1
  O  O432  1  0.02037116  0.08341908  0.18200512  1
  O  O433  1  0.02208315  0.08423932  0.43269373  1
  O  O434  1  0.02257884  0.08152326  0.68280778  1
  O  O435  1  0.02106597  0.08305020  0.93197735  1
  O  O436  1  0.02186254  0.41497380  0.18353821  1
  O  O437  1  0.02239808  0.41506946  0.43280376  1
  O  O438  1  0.02202813  0.41682080  0.68134097  1
  O  O439  1  0.02267070  0.41697319  0.93447059  1
  O  O440  1  0.02296599  0.74881691  0.18439046  1
  O  O441  1  0.02223274  0.74779412  0.43325513  1
  O  O442  1  0.02237149  0.74885425  0.68451899  1
  O  O443  1  0.02105497  0.74915076  0.93185648  1
  O  O444  1  0.52206447  0.08418136  0.18422061  1
  O  O445  1  0.52256999  0.08167252  0.43264632  1
  O  O446  1  0.52154450  0.08374349  0.68192663  1
  O  O447  1  0.52234548  0.08284705  0.93471164  1
  O  O448  1  0.52167564  0.41609078  0.18148526  1
  O  O449  1  0.52260666  0.41824957  0.43281697  1
  O  O450  1  0.52348706  0.41671627  0.68433563  1
  O  O451  1  0.52255779  0.41451408  0.93305421  1
  O  O452  1  0.52223151  0.75293816  0.18271449  1
  O  O453  1  0.52167910  0.75055385  0.43122677  1
  O  O454  1  0.52202852  0.75181196  0.68282369  1
  O  O455  1  0.52114513  0.75100734  0.93138896  1
  O  O456  1  0.47696093  0.25035053  0.06591727  1
  O  O457  1  0.47781896  0.24805376  0.31717669  1
  O  O458  1  0.47891629  0.25025715  0.56826250  1
  O  O459  1  0.47832249  0.25183594  0.81710801  1
  O  O460  1  0.47897886  0.58340769  0.06793431  1
  O  O461  1  0.47905061  0.58392901  0.31813598  1
  O  O462  1  0.47821476  0.58193127  0.56673296  1
  O  O463  1  0.47844178  0.58204846  0.81654535  1
  O  O464  1  0.47710472  0.91938594  0.06731876  1
  O  O465  1  0.47731711  0.91740948  0.31543586  1
  O  O466  1  0.47817595  0.91884480  0.56644029  1
  O  O467  1  0.47778593  0.91565709  0.81700389  1
  O  O468  1  0.97753602  0.25162515  0.06710191  1
  O  O469  1  0.97722823  0.25192484  0.31720468  1
  O  O470  1  0.97732986  0.24998461  0.56588886  1
  O  O471  1  0.97875095  0.24972392  0.81801444  1
  O  O472  1  0.97784917  0.58081666  0.06720474  1
  O  O473  1  0.97836719  0.58435533  0.31713851  1
  O  O474  1  0.97849337  0.58461243  0.56672041  1
  O  O475  1  0.97810051  0.58480025  0.81692777  1
  O  O476  1  0.97741992  0.91577010  0.06879794  1
  O  O477  1  0.97732483  0.91480006  0.31767171  1
  O  O478  1  0.97832790  0.91615847  0.56845412  1
  O  O479  1  0.97680217  0.91699277  0.81552161  1
  O  O480  1  0.07293345  0.31454252  0.07404289  1
  O  O481  1  0.07272755  0.31445536  0.32452195  1
  O  O482  1  0.07279020  0.31321568  0.57279953  1
  O  O483  1  0.07385277  0.31382045  0.82479377  1
  O  O484  1  0.07273310  0.64543975  0.07483847  1
  O  O485  1  0.07380114  0.64731143  0.32356591  1
  O  O486  1  0.07345339  0.64841401  0.57384670  1
  O  O487  1  0.07339181  0.64748332  0.82493769  1
  O  O488  1  0.07270324  0.97923560  0.07644975  1
  O  O489  1  0.07249698  0.97899035  0.32505608  1
  O  O490  1  0.07381146  0.97944616  0.57532870  1
  O  O491  1  0.07226638  0.97999668  0.82332264  1
  O  O492  1  0.57231292  0.31324656  0.07399827  1
  O  O493  1  0.57289614  0.31226349  0.32432160  1
  O  O494  1  0.57429926  0.31383147  0.57479492  1
  O  O495  1  0.57390486  0.31422817  0.82408228  1
  O  O496  1  0.57379372  0.64798859  0.07449306  1
  O  O497  1  0.57471566  0.64678515  0.32586900  1
  O  O498  1  0.57325060  0.64603801  0.57517846  1
  O  O499  1  0.57382327  0.64576464  0.82419472  1
  O  O500  1  0.57217965  0.98247463  0.07492684  1
  O  O501  1  0.57265870  0.98089663  0.32251747  1
  O  O502  1  0.57319754  0.98185960  0.57363502  1
  O  O503  1  0.57318767  0.97971365  0.82462943  1
  O  O504  1  0.42707644  0.02047139  0.17682060  1
  O  O505  1  0.42754562  0.01859386  0.42498071  1
  O  O506  1  0.42592110  0.02056670  0.67517256  1
  O  O507  1  0.42680647  0.02013835  0.92722439  1
  O  O508  1  0.42599621  0.35304677  0.17528219  1
  O  O509  1  0.42750704  0.35397231  0.42574618  1
  O  O510  1  0.42851327  0.35305475  0.67619297  1
  O  O511  1  0.42710568  0.35196333  0.92560985  1
  O  O512  1  0.42730807  0.68831116  0.17545010  1
  O  O513  1  0.42616823  0.68753657  0.42397255  1
  O  O514  1  0.42661055  0.68812938  0.67447394  1
  O  O515  1  0.42633302  0.68662081  0.92410421  1
  O  O516  1  0.92494227  0.02001988  0.17541072  1
  O  O517  1  0.92659741  0.02049032  0.42551514  1
  O  O518  1  0.92723314  0.01895646  0.67520194  1
  O  O519  1  0.92560678  0.01938383  0.92505382  1
  O  O520  1  0.92672875  0.35188148  0.17605296  1
  O  O521  1  0.92693829  0.35206520  0.42632287  1
  O  O522  1  0.92674358  0.35298135  0.67430415  1
  O  O523  1  0.92777043  0.35305566  0.92644426  1
  O  O524  1  0.92795214  0.68497843  0.17673467  1
  O  O525  1  0.92695095  0.68468708  0.42581793  1
  O  O526  1  0.92702189  0.68558790  0.67680412  1
  O  O527  1  0.92543520  0.68629010  0.92481292  1
  O  O528  1  0.17624970  0.01869680  0.20046442  1
  O  O529  1  0.17698988  0.02021020  0.44908189  1
  O  O530  1  0.17792644  0.02051187  0.69800048  1
  O  O531  1  0.17558951  0.02024407  0.95057413  1
  O  O532  1  0.17725515  0.35137688  0.20027288  1
  O  O533  1  0.17794170  0.35281458  0.44819535  1
  O  O534  1  0.17586740  0.35328883  0.69929731  1
  O  O535  1  0.17680385  0.35212983  0.94922290  1
  O  O536  1  0.17801521  0.68592431  0.19928705  1
  O  O537  1  0.17667221  0.68825423  0.44915776  1
  O  O538  1  0.17666896  0.68712553  0.69953605  1
  O  O539  1  0.17596636  0.68703221  0.95075375  1
  O  O540  1  0.67695895  0.01801675  0.19967527  1
  O  O541  1  0.67701700  0.02109282  0.45013408  1
  O  O542  1  0.67763050  0.01939874  0.69822946  1
  O  O543  1  0.67545557  0.02036514  0.95031770  1
  O  O544  1  0.67683900  0.35138511  0.19923739  1
  O  O545  1  0.67862065  0.35252478  0.44853843  1
  O  O546  1  0.67901469  0.35279125  0.69768068  1
  O  O547  1  0.67700539  0.35482391  0.94875532  1
  O  O548  1  0.67833718  0.68548956  0.19899763  1
  O  O549  1  0.67642116  0.68745001  0.44955882  1
  O  O550  1  0.67620144  0.68599808  0.70033139  1
  O  O551  1  0.67643136  0.68833087  0.95031721  1
  O  O552  1  0.32286142  0.31464693  0.05199468  1
  O  O553  1  0.32319713  0.31253159  0.30197241  1
  O  O554  1  0.32337372  0.31232932  0.54969464  1
  O  O555  1  0.32331891  0.31440333  0.80057770  1
  O  O556  1  0.32351163  0.64777029  0.05125712  1
  O  O557  1  0.32369288  0.64566708  0.29964871  1
  O  O558  1  0.32411357  0.64697095  0.54819018  1
  O  O559  1  0.32415092  0.64721188  0.79983554  1
  O  O560  1  0.32178634  0.98116546  0.05282170  1
  O  O561  1  0.32179787  0.98021757  0.30125227  1
  O  O562  1  0.32294877  0.98243753  0.54991811  1
  O  O563  1  0.32352703  0.98157797  0.80058036  1
  O  O564  1  0.82231847  0.31530531  0.05140781  1
  O  O565  1  0.82129023  0.31289484  0.30257652  1
  O  O566  1  0.82166223  0.31370642  0.55077867  1
  O  O567  1  0.82450087  0.31293896  0.79867561  1
  O  O568  1  0.82319179  0.64839210  0.05098086  1
  O  O569  1  0.82363179  0.64498485  0.30048550  1
  O  O570  1  0.82264870  0.64551450  0.54946445  1
  O  O571  1  0.82325258  0.64525606  0.79963714  1
  O  O572  1  0.82161497  0.98051193  0.05177024  1
  O  O573  1  0.82334797  0.97802640  0.30014660  1
  O  O574  1  0.82338265  0.98143451  0.55086911  1
  O  O575  1  0.82264887  0.97898698  0.80094320  1
  O  O576  1  0.42694548  0.14762086  0.17683731  1
  O  O577  1  0.42737022  0.14565368  0.42464319  1
  O  O578  1  0.42634509  0.14734418  0.67477120  1
  O  O579  1  0.42804698  0.14761095  0.92753325  1
  O  O580  1  0.42645493  0.47994543  0.17406334  1
  O  O581  1  0.42731652  0.48126445  0.42604005  1
  O  O582  1  0.42832700  0.48042958  0.67708856  1
  O  O583  1  0.42752378  0.47889456  0.92489028  1
  O  O584  1  0.42671452  0.81564121  0.17585967  1
  O  O585  1  0.42622553  0.81438061  0.42437640  1
  O  O586  1  0.42725863  0.81557326  0.67542746  1
  O  O587  1  0.42506127  0.81355014  0.92478603  1
  O  O588  1  0.92495707  0.14702758  0.17502647  1
  O  O589  1  0.92705323  0.14779901  0.42659250  1
  O  O590  1  0.92753130  0.14608980  0.67525260  1
  O  O591  1  0.92561365  0.14628318  0.92409026  1
  O  O592  1  0.92656482  0.47874954  0.17548424  1
  O  O593  1  0.92734840  0.47921322  0.42488967  1
  O  O594  1  0.92657591  0.47986945  0.67366150  1
  O  O595  1  0.92777431  0.48061725  0.92665955  1
  O  O596  1  0.92803926  0.81251507  0.17761462  1
  O  O597  1  0.92696500  0.81157178  0.42546685  1
  O  O598  1  0.92795281  0.81306241  0.67654581  1
  O  O599  1  0.92590292  0.81303352  0.92481678  1
  O  O600  1  0.07255257  0.18735517  0.07531827  1
  O  O601  1  0.07226143  0.18752748  0.32481360  1
  O  O602  1  0.07198496  0.18571136  0.57228817  1
  O  O603  1  0.07441056  0.18694747  0.82575029  1
  O  O604  1  0.07324841  0.51832367  0.07476219  1
  O  O605  1  0.07340755  0.52026934  0.32531233  1
  O  O606  1  0.07403159  0.52134937  0.57477257  1
  O  O607  1  0.07321526  0.52035960  0.82419122  1
  O  O608  1  0.07293902  0.85234069  0.07570653  1
  O  O609  1  0.07248617  0.85161234  0.32398330  1
  O  O610  1  0.07370007  0.85275052  0.57594053  1
  O  O611  1  0.07115961  0.85242075  0.82307144  1
  O  O612  1  0.57151973  0.18594474  0.07280578  1
  O  O613  1  0.57312302  0.18501452  0.32393001  1
  O  O614  1  0.57434357  0.18699828  0.57570936  1
  O  O615  1  0.57322179  0.18723864  0.82517365  1
  O  O616  1  0.57494649  0.52083778  0.07506276  1
  O  O617  1  0.57433190  0.51989812  0.32471544  1
  O  O618  1  0.57346571  0.51880120  0.57400183  1
  O  O619  1  0.57349530  0.51851442  0.82377626  1
  O  O620  1  0.57243734  0.85551238  0.07512214  1
  O  O621  1  0.57217172  0.85356618  0.32305670  1
  O  O622  1  0.57361324  0.85482394  0.57375453  1
  O  O623  1  0.57274826  0.85258065  0.82408654  1
  O  O624  1  0.32276110  0.18759968  0.05072761  1
  O  O625  1  0.32127314  0.18521460  0.30160111  1
  O  O626  1  0.32349981  0.18539681  0.54997862  1
  O  O627  1  0.32324848  0.18732460  0.80133972  1
  O  O628  1  0.32358912  0.52048912  0.05029012  1
  O  O629  1  0.32316066  0.51849280  0.29985772  1
  O  O630  1  0.32420317  0.51995490  0.54947895  1
  O  O631  1  0.32448283  0.52017241  0.79994516  1
  O  O632  1  0.32152776  0.85368442  0.05290919  1
  O  O633  1  0.32138313  0.85303972  0.30118129  1
  O  O634  1  0.32303236  0.85546643  0.54948892  1
  O  O635  1  0.32334753  0.85471416  0.79987449  1
  O  O636  1  0.82304461  0.18808653  0.05049740  1
  O  O637  1  0.82199455  0.18561662  0.30141520  1
  O  O638  1  0.82252144  0.18648213  0.55111705  1
  O  O639  1  0.82362611  0.18616283  0.79944135  1
  O  O640  1  0.82349286  0.52128137  0.05055177  1
  O  O641  1  0.82343976  0.51781670  0.30007589  1
  O  O642  1  0.82347981  0.51836385  0.55025369  1
  O  O643  1  0.82312739  0.51819390  0.80097027  1
  O  O644  1  0.82274067  0.85317299  0.05210763  1
  O  O645  1  0.82266976  0.85103912  0.30073527  1
  O  O646  1  0.82360498  0.85425478  0.55062419  1
  O  O647  1  0.82245085  0.85184872  0.80075713  1
  O  O648  1  0.17622630  0.14570808  0.20115624  1
  O  O649  1  0.17838383  0.14729140  0.44801849  1
  O  O650  1  0.17753805  0.14795610  0.69773896  1
  O  O651  1  0.17558477  0.14705463  0.95139652  1
  O  O652  1  0.17676036  0.47831987  0.20031328  1
  O  O653  1  0.17826678  0.48036976  0.44787870  1
  O  O654  1  0.17647556  0.48006955  0.70008110  1
  O  O655  1  0.17745834  0.47933421  0.95037252  1
  O  O656  1  0.17835085  0.81345036  0.19847220  1
  O  O657  1  0.17686167  0.81548474  0.44855833  1
  O  O658  1  0.17608943  0.81420343  0.69998525  1
  O  O659  1  0.17578142  0.81388349  0.95116752  1
  O  O660  1  0.67623471  0.14517037  0.19990581  1
  O  O661  1  0.67698215  0.14798268  0.44962250  1
  O  O662  1  0.67787049  0.14697047  0.69855007  1
  O  O663  1  0.67638356  0.14728169  0.95073405  1
  O  O664  1  0.67653205  0.47838311  0.20010147  1
  O  O665  1  0.67784475  0.47971278  0.44834252  1
  O  O666  1  0.67803591  0.48003762  0.69749040  1
  O  O667  1  0.67755505  0.48200184  0.94873522  1
  O  O668  1  0.67766169  0.81287202  0.19878292  1
  O  O669  1  0.67710370  0.81476018  0.44868353  1
  O  O670  1  0.67561854  0.81287271  0.69981997  1
  O  O671  1  0.67695090  0.81531461  0.94975603  1
