# generated using pymatgen
data_Na2MnFe(PO4)2
_symmetry_space_group_name_H-M   'P 1'
_cell_length_a   22.34045328
_cell_length_b   20.08774841
_cell_length_c   19.45167687
_cell_angle_alpha   90.01501026
_cell_angle_beta   90.01241188
_cell_angle_gamma   90.02574475
_symmetry_Int_Tables_number   1
_chemical_formula_structural   Na2MnFe(PO4)2
_chemical_formula_sum   'Na96 Mn48 Fe48 P96 O384'
_cell_volume   8729.31606642
_cell_formula_units_Z   48
loop_
 _symmetry_equiv_pos_site_id
 _symmetry_equiv_pos_as_xyz
  1  'x, y, z'
loop_
 _atom_site_type_symbol
 _atom_site_label
 _atom_site_symmetry_multiplicity
 _atom_site_fract_x
 _atom_site_fract_y
 _atom_site_fract_z
 _atom_site_occupancy
  Na  Na0  1  0.14002943  0.25008128  0.24394678  1
  Na  Na1  1  0.13962138  0.25002127  0.49271134  1
  Na  Na2  1  0.14000309  0.25261981  0.74284326  1
  Na  Na3  1  0.13989989  0.25290157  0.99350693  1
  Na  Na4  1  0.14048713  0.58277616  0.24366135  1
  Na  Na5  1  0.14004680  0.58291735  0.49385328  1
  Na  Na6  1  0.13976457  0.58340661  0.74326678  1
  Na  Na7  1  0.14012275  0.58426297  0.99318951  1
  Na  Na8  1  0.14038712  0.91654388  0.24298189  1
  Na  Na9  1  0.14039655  0.91756099  0.49354765  1
  Na  Na10  1  0.14004720  0.91829835  0.74383616  1
  Na  Na11  1  0.13984334  0.91778768  0.99462260  1
  Na  Na12  1  0.64064814  0.24988452  0.24398929  1
  Na  Na13  1  0.64016269  0.25045510  0.49316245  1
  Na  Na14  1  0.64027535  0.24871967  0.74313849  1
  Na  Na15  1  0.64053674  0.24869138  0.99314103  1
  Na  Na16  1  0.64079878  0.58373807  0.24426169  1
  Na  Na17  1  0.64135148  0.58157615  0.49369344  1
  Na  Na18  1  0.64055119  0.58198135  0.74475249  1
  Na  Na19  1  0.64035013  0.58240543  0.99372316  1
  Na  Na20  1  0.64051129  0.91602927  0.24368252  1
  Na  Na21  1  0.64061800  0.91531967  0.49438779  1
  Na  Na22  1  0.64014050  0.91515213  0.74431671  1
  Na  Na23  1  0.64015398  0.91618589  0.99444030  1
  Na  Na24  1  0.35922130  0.08485891  0.00671584  1
  Na  Na25  1  0.35932927  0.08349082  0.25584241  1
  Na  Na26  1  0.35961252  0.08409433  0.50517074  1
  Na  Na27  1  0.35956537  0.08609048  0.75583975  1
  Na  Na28  1  0.35944605  0.41855952  0.00541879  1
  Na  Na29  1  0.35972949  0.41546667  0.25534964  1
  Na  Na30  1  0.35986010  0.41597234  0.50563758  1
  Na  Na31  1  0.35962960  0.41766434  0.75558645  1
  Na  Na32  1  0.35953650  0.75168897  0.00821525  1
  Na  Na33  1  0.35968728  0.75066553  0.25580659  1
  Na  Na34  1  0.35958566  0.75044698  0.50626650  1
  Na  Na35  1  0.35970604  0.75031204  0.75704722  1
  Na  Na36  1  0.85938596  0.08250408  0.00600805  1
  Na  Na37  1  0.85932561  0.08359146  0.25606199  1
  Na  Na38  1  0.85994139  0.08405106  0.50717422  1
  Na  Na39  1  0.85941200  0.08186987  0.75663054  1
  Na  Na40  1  0.86006083  0.41550897  0.00589386  1
  Na  Na41  1  0.86008300  0.41761972  0.25747714  1
  Na  Na42  1  0.86039366  0.41603234  0.50679435  1
  Na  Na43  1  0.86006378  0.41472125  0.75607263  1
  Na  Na44  1  0.85978473  0.74989198  0.00706043  1
  Na  Na45  1  0.85978055  0.74958703  0.25639950  1
  Na  Na46  1  0.85988916  0.74754270  0.50650537  1
  Na  Na47  1  0.85992500  0.74848880  0.75639032  1
  Na  Na48  1  0.10928205  0.08435341  0.11880057  1
  Na  Na49  1  0.10970686  0.08414021  0.36802807  1
  Na  Na50  1  0.10945073  0.08420196  0.61802959  1
  Na  Na51  1  0.10904551  0.08391501  0.86896625  1
  Na  Na52  1  0.10939677  0.41785771  0.11873456  1
  Na  Na53  1  0.10981269  0.41718113  0.36893911  1
  Na  Na54  1  0.10954145  0.41731787  0.61841555  1
  Na  Na55  1  0.10967782  0.41747114  0.86748914  1
  Na  Na56  1  0.10976840  0.75155986  0.11822667  1
  Na  Na57  1  0.10928793  0.74856953  0.36839139  1
  Na  Na58  1  0.10911796  0.74863807  0.61913003  1
  Na  Na59  1  0.10913440  0.74985055  0.86957079  1
  Na  Na60  1  0.60961776  0.08221666  0.11853745  1
  Na  Na61  1  0.60976721  0.08255768  0.36912950  1
  Na  Na62  1  0.60943939  0.08292569  0.61878553  1
  Na  Na63  1  0.60948362  0.08271905  0.86871470  1
  Na  Na64  1  0.61023792  0.41665119  0.11834840  1
  Na  Na65  1  0.61053045  0.41519942  0.36852664  1
  Na  Na66  1  0.61040117  0.41547365  0.61757351  1
  Na  Na67  1  0.60973585  0.41562918  0.86819995  1
  Na  Na68  1  0.60946359  0.74997917  0.11821481  1
  Na  Na69  1  0.60993647  0.75016884  0.36908908  1
  Na  Na70  1  0.60954761  0.75020872  0.61996900  1
  Na  Na71  1  0.60962044  0.75012450  0.87058885  1
  Na  Na72  1  0.39010066  0.25026313  0.13043877  1
  Na  Na73  1  0.39047311  0.24902517  0.38068233  1
  Na  Na74  1  0.39006666  0.25003762  0.63005992  1
  Na  Na75  1  0.39007677  0.25131175  0.88081407  1
  Na  Na76  1  0.39045101  0.58468316  0.13060654  1
  Na  Na77  1  0.39035332  0.58294975  0.38137131  1
  Na  Na78  1  0.39059125  0.58362233  0.63098887  1
  Na  Na79  1  0.39044187  0.58424703  0.88208717  1
  Na  Na80  1  0.38959218  0.91734326  0.13222468  1
  Na  Na81  1  0.39025523  0.91783012  0.38054936  1
  Na  Na82  1  0.39050039  0.91751515  0.63058459  1
  Na  Na83  1  0.39043777  0.91698276  0.88194247  1
  Na  Na84  1  0.89043633  0.25180253  0.13077561  1
  Na  Na85  1  0.89090105  0.25161428  0.38219685  1
  Na  Na86  1  0.89037225  0.25007774  0.63178453  1
  Na  Na87  1  0.88985381  0.24959427  0.88121118  1
  Na  Na88  1  0.89059068  0.58330291  0.13239775  1
  Na  Na89  1  0.89043612  0.58172160  0.38213139  1
  Na  Na90  1  0.89060422  0.58103629  0.63073206  1
  Na  Na91  1  0.89070123  0.58150721  0.88084001  1
  Na  Na92  1  0.88976183  0.91733361  0.13166008  1
  Na  Na93  1  0.89070497  0.91587086  0.38132357  1
  Na  Na94  1  0.89072425  0.91553848  0.63198741  1
  Na  Na95  1  0.89022126  0.91567950  0.88186532  1
  Mn  Mn96  1  0.75042228  0.49790898  0.87452729  1
  Mn  Mn97  1  0.49967040  0.00009441  0.75005393  1
  Mn  Mn98  1  -0.00073654  0.00038035  0.25031752  1
  Mn  Mn99  1  0.74997513  0.83255903  0.62516484  1
  Mn  Mn100  1  0.50032081  0.66788095  0.50084631  1
  Mn  Mn101  1  -0.00077874  0.16873046  0.24930364  1
  Mn  Mn102  1  0.24941792  0.66700846  0.87521519  1
  Mn  Mn103  1  0.74998749  -0.00129550  0.87548778  1
  Mn  Mn104  1  0.49915785  0.00017247  0.00002715  1
  Mn  Mn105  1  0.75029289  0.66613882  0.12519518  1
  Mn  Mn106  1  0.50015401  0.33187326  0.24844406  1
  Mn  Mn107  1  0.50052305  0.33284933  -0.00041388  1
  Mn  Mn108  1  0.74969485  0.66477647  0.62568719  1
  Mn  Mn109  1  0.00031848  0.00005287  0.49978134  1
  Mn  Mn110  1  0.00001863  0.83246258  0.75028061  1
  Mn  Mn111  1  0.24940901  0.83398804  0.37484643  1
  Mn  Mn112  1  0.75057444  -0.00037920  0.37508531  1
  Mn  Mn113  1  0.24971157  0.50031640  0.12455458  1
  Mn  Mn114  1  0.24993117  0.66587066  0.62547051  1
  Mn  Mn115  1  0.50044232  0.50007728  0.74975038  1
  Mn  Mn116  1  0.50045610  -0.00010806  0.49992029  1
  Mn  Mn117  1  0.75118116  0.83234131  0.37530498  1
  Mn  Mn118  1  0.25037051  0.00212264  0.62429425  1
  Mn  Mn119  1  0.24993694  0.66585682  0.37514822  1
  Mn  Mn120  1  0.50000747  0.49986407  0.24996870  1
  Mn  Mn121  1  0.25006495  0.33299707  0.37514956  1
  Mn  Mn122  1  0.75046362  0.33385601  0.12456786  1
  Mn  Mn123  1  0.24992775  0.83410793  0.62490240  1
  Mn  Mn124  1  0.75084541  0.66599727  0.87535509  1
  Mn  Mn125  1  0.00049318  0.83174129  0.50100780  1
  Mn  Mn126  1  0.00002232  0.66660878  0.25004216  1
  Mn  Mn127  1  0.24880631  0.16935689  0.87582833  1
  Mn  Mn128  1  0.49985862  0.33244569  0.74946507  1
  Mn  Mn129  1  0.50037063  0.66782148  0.75119059  1
  Mn  Mn130  1  0.24961723  0.16777276  0.12475871  1
  Mn  Mn131  1  -0.00000876  0.16754598  -0.00041612  1
  Mn  Mn132  1  0.74971613  0.16727367  0.37583550  1
  Mn  Mn133  1  -0.00012662  0.50023465  -0.00028845  1
  Mn  Mn134  1  0.24979727  0.00175781  0.87489003  1
  Mn  Mn135  1  0.50075369  0.49914518  0.50020566  1
  Mn  Mn136  1  -0.00007114  0.16655656  0.75021850  1
  Mn  Mn137  1  0.24973796  0.33419769  0.62407829  1
  Mn  Mn138  1  -0.00031831  0.83383774  -0.00094049  1
  Mn  Mn139  1  0.75076379  0.16625538  0.12496637  1
  Mn  Mn140  1  0.50040691  0.66761638  0.25042180  1
  Mn  Mn141  1  0.24979705  0.83453026  0.87581805  1
  Mn  Mn142  1  0.50018991  0.00003079  0.24988509  1
  Mn  Mn143  1  0.74983963  0.16618872  0.62519049  1
  Fe  Fe144  1  0.24958604  0.33437409  0.12446052  1
  Fe  Fe145  1  0.49962676  0.66695748  0.00029472  1
  Fe  Fe146  1  0.75031301  0.83273045  0.87556340  1
  Fe  Fe147  1  -0.00016568  -0.00020769  0.74978274  1
  Fe  Fe148  1  0.00036903  0.49936983  0.50056311  1
  Fe  Fe149  1  0.74971768  0.16553764  0.87467639  1
  Fe  Fe150  1  -0.00041163  0.66531064  0.74949936  1
  Fe  Fe151  1  0.75038473  0.49948856  0.37556947  1
  Fe  Fe152  1  -0.00018174  0.66533001  0.49952202  1
  Fe  Fe153  1  0.74988861  0.66573694  0.37512688  1
  Fe  Fe154  1  0.50023024  0.16633535  0.24992149  1
  Fe  Fe155  1  0.24901664  0.00097021  0.12553984  1
  Fe  Fe156  1  0.00035124  0.49953735  0.74963151  1
  Fe  Fe157  1  0.75007323  0.33265789  0.62484448  1
  Fe  Fe158  1  -0.00026814  0.66665005  0.00008567  1
  Fe  Fe159  1  0.24987897  0.16645594  0.37382726  1
  Fe  Fe160  1  0.49996965  0.50014052  -0.00030240  1
  Fe  Fe161  1  0.74997579  0.83316721  0.12577205  1
  Fe  Fe162  1  0.49986824  0.83349412  0.00053262  1
  Fe  Fe163  1  0.49994243  0.16664853  0.74946734  1
  Fe  Fe164  1  0.50005807  0.16648277  0.49956939  1
  Fe  Fe165  1  0.24990157  0.83423817  0.12573148  1
  Fe  Fe166  1  -0.00000579  0.83335284  0.24986143  1
  Fe  Fe167  1  0.00022154  0.33421686  -0.00010763  1
  Fe  Fe168  1  0.00022977  0.50006329  0.25059914  1
  Fe  Fe169  1  0.00012700  0.33299201  0.74973969  1
  Fe  Fe170  1  0.00026235  0.33367401  0.50042776  1
  Fe  Fe171  1  0.75050086  0.49821549  0.62468930  1
  Fe  Fe172  1  0.24994752  0.66697134  0.12481917  1
  Fe  Fe173  1  0.25041219  0.50037850  0.62495446  1
  Fe  Fe174  1  0.74926562  0.33233501  0.87481343  1
  Fe  Fe175  1  -0.00031604  0.16705673  0.50018878  1
  Fe  Fe176  1  0.75078587  0.33375514  0.37500220  1
  Fe  Fe177  1  -0.00066390  0.00043354  0.00026771  1
  Fe  Fe178  1  0.49989027  0.16645200  -0.00036140  1
  Fe  Fe179  1  0.49998905  0.33232057  0.49927095  1
  Fe  Fe180  1  0.24931186  0.16770360  0.62427221  1
  Fe  Fe181  1  0.74956531  -0.00036196  0.12487736  1
  Fe  Fe182  1  0.75025954  -0.00095643  0.62575040  1
  Fe  Fe183  1  0.49938888  0.83350804  0.75089363  1
  Fe  Fe184  1  0.24987377  0.00060443  0.37452351  1
  Fe  Fe185  1  0.49979729  0.83370583  0.50022577  1
  Fe  Fe186  1  0.24987681  0.33524039  0.87385535  1
  Fe  Fe187  1  0.50002331  0.83345863  0.25000094  1
  Fe  Fe188  1  0.25053249  0.49973431  0.37424331  1
  Fe  Fe189  1  0.00036970  0.33474766  0.25097216  1
  Fe  Fe190  1  0.25021546  0.50096047  0.87500449  1
  Fe  Fe191  1  0.75014090  0.50008262  0.12594923  1
  P  P192  1  0.04202733  0.25270350  0.10266665  1
  P  P193  1  0.04195029  0.25201117  0.35340725  1
  P  P194  1  0.04122637  0.25057592  0.60193029  1
  P  P195  1  0.04217269  0.25152972  0.85260246  1
  P  P196  1  0.04215076  0.58478376  0.10252058  1
  P  P197  1  0.04222177  0.58192981  0.35309207  1
  P  P198  1  0.04113819  0.58300191  0.60214489  1
  P  P199  1  0.04131308  0.58311393  0.85154165  1
  P  P200  1  0.04152955  0.91809258  0.10266171  1
  P  P201  1  0.04236056  0.91526038  0.35240298  1
  P  P202  1  0.04294844  0.91663635  0.60374922  1
  P  P203  1  0.04161067  0.91795996  0.85271168  1
  P  P204  1  0.54263627  0.24787163  0.10214603  1
  P  P205  1  0.54227959  0.24828189  0.35268335  1
  P  P206  1  0.54163565  0.24928084  0.60132356  1
  P  P207  1  0.54224970  0.24817106  0.85233164  1
  P  P208  1  0.54141653  0.58348859  0.10150222  1
  P  P209  1  0.54291956  0.58337002  0.35339375  1
  P  P210  1  0.54349618  0.58363951  0.60335376  1
  P  P211  1  0.54263697  0.58344162  0.85446630  1
  P  P212  1  0.54168068  0.91558770  0.10280212  1
  P  P213  1  0.54245849  0.91524034  0.35258493  1
  P  P214  1  0.54221711  0.91536450  0.60314131  1
  P  P215  1  0.54190828  0.91541449  0.85324420  1
  P  P216  1  0.45761227  0.08483407  0.14719117  1
  P  P217  1  0.45818982  0.08442212  0.39713613  1
  P  P218  1  0.45783596  0.08490848  0.64687032  1
  P  P219  1  0.45718434  0.08491609  0.89708468  1
  P  P220  1  0.45760178  0.41691282  0.14576714  1
  P  P221  1  0.45815490  0.41465193  0.39708153  1
  P  P222  1  0.45770308  0.41586593  0.64600786  1
  P  P223  1  0.45802481  0.41755164  0.89733290  1
  P  P224  1  0.45799931  0.75149010  0.14705658  1
  P  P225  1  0.45767347  0.75199277  0.39748496  1
  P  P226  1  0.45745056  0.75192587  0.64792148  1
  P  P227  1  0.45814474  0.75085606  0.89896815  1
  P  P228  1  0.95690249  0.08406688  0.14639034  1
  P  P229  1  0.95773091  0.08492972  0.39777314  1
  P  P230  1  0.95773583  0.08248061  0.64741843  1
  P  P231  1  0.95773649  0.08198281  0.89714545  1
  P  P232  1  0.95864606  0.41722559  0.14864664  1
  P  P233  1  0.95907746  0.41657357  0.39853002  1
  P  P234  1  0.95919734  0.41593992  0.64791439  1
  P  P235  1  0.95807032  0.41526546  0.89664307  1
  P  P236  1  0.95787511  0.75134823  0.14727117  1
  P  P237  1  0.95776477  0.74821782  0.39745610  1
  P  P238  1  0.95768313  0.74735100  0.64729609  1
  P  P239  1  0.95755805  0.74770257  0.89707169  1
  P  P240  1  0.20733944  0.08296234  0.22797371  1
  P  P241  1  0.20826450  0.08422062  0.47614387  1
  P  P242  1  0.20728469  0.08629358  0.72712325  1
  P  P243  1  0.20664181  0.08444679  0.97880675  1
  P  P244  1  0.20776458  0.41561711  0.22750818  1
  P  P245  1  0.20814133  0.41839983  0.47734417  1
  P  P246  1  0.20789508  0.41872965  0.72756788  1
  P  P247  1  0.20819318  0.41775727  0.97627993  1
  P  P248  1  0.20850402  0.74975518  0.22651110  1
  P  P249  1  0.20694081  0.74980118  0.47801012  1
  P  P250  1  0.20690827  0.75028855  0.72827448  1
  P  P251  1  0.20734085  0.75072172  0.97945042  1
  P  P252  1  0.70766180  0.08217793  0.22742522  1
  P  P253  1  0.70745044  0.08266144  0.47892712  1
  P  P254  1  0.70791282  0.08139017  0.72803173  1
  P  P255  1  0.70778279  0.08340301  0.97767684  1
  P  P256  1  0.70821786  0.41799935  0.22834159  1
  P  P257  1  0.70909384  0.41594981  0.47721946  1
  P  P258  1  0.70842921  0.41522684  0.72650017  1
  P  P259  1  0.70752172  0.41476622  0.97752176  1
  P  P260  1  0.70799706  0.75022529  0.22788014  1
  P  P261  1  0.70808318  0.74780401  0.47763581  1
  P  P262  1  0.70749901  0.74930303  0.72910117  1
  P  P263  1  0.70855071  0.75082651  0.97837682  1
  P  P264  1  0.29176564  0.25310506  0.02189391  1
  P  P265  1  0.29219549  0.24912630  0.27187392  1
  P  P266  1  0.29160915  0.24882139  0.52146970  1
  P  P267  1  0.29183510  0.25238661  0.77186449  1
  P  P268  1  0.29208734  0.58492410  0.02218738  1
  P  P269  1  0.29246578  0.58231588  0.27177048  1
  P  P270  1  0.29262801  0.58169231  0.52205143  1
  P  P271  1  0.29242407  0.58236296  0.77241248  1
  P  P272  1  0.29098986  0.91811867  0.02419740  1
  P  P273  1  0.29155146  0.91830233  0.27170489  1
  P  P274  1  0.29263833  0.91794526  0.52107972  1
  P  P275  1  0.29287378  0.91803797  0.77205100  1
  P  P276  1  0.79271591  0.24952179  0.02078072  1
  P  P277  1  0.79270454  0.25128277  0.27288159  1
  P  P278  1  0.79220996  0.25125150  0.52246766  1
  P  P279  1  0.79102680  0.24945926  0.77313512  1
  P  P280  1  0.79263727  0.58119519  0.02297458  1
  P  P281  1  0.79169156  0.58275169  0.27362685  1
  P  P282  1  0.79213127  0.58056883  0.52205115  1
  P  P283  1  0.79299277  0.58158271  0.77157003  1
  P  P284  1  0.79133588  0.91605103  0.02353270  1
  P  P285  1  0.79299839  0.91616034  0.27118166  1
  P  P286  1  0.79304031  0.91715674  0.52307863  1
  P  P287  1  0.79254784  0.91474952  0.77269931  1
  O  O288  1  0.03654451  0.25305936  0.18259788  1
  O  O289  1  0.03654295  0.25142955  0.43328470  1
  O  O290  1  0.03636078  0.25025936  0.68190814  1
  O  O291  1  0.03708611  0.25182599  0.93253509  1
  O  O292  1  0.03719675  0.58426490  0.18238412  1
  O  O293  1  0.03698655  0.58227804  0.43290931  1
  O  O294  1  0.03604160  0.58295860  0.68200781  1
  O  O295  1  0.03664190  0.58304862  0.93149814  1
  O  O296  1  0.03627551  0.91719768  0.18257925  1
  O  O297  1  0.03735064  0.91533703  0.43238202  1
  O  O298  1  0.03746709  0.91710858  0.68369369  1
  O  O299  1  0.03602714  0.91838126  0.93265208  1
  O  O300  1  0.53755098  0.24779854  0.18209996  1
  O  O301  1  0.53673419  0.24883883  0.43255198  1
  O  O302  1  0.53669313  0.24902653  0.68130536  1
  O  O303  1  0.53709989  0.24837281  0.93224775  1
  O  O304  1  0.53676718  0.58372051  0.18153073  1
  O  O305  1  0.53796287  0.58346550  0.43332278  1
  O  O306  1  0.53842349  0.58371104  0.68335274  1
  O  O307  1  0.53703417  0.58318319  0.93436583  1
  O  O308  1  0.53661581  0.91570127  0.18272012  1
  O  O309  1  0.53726534  0.91545614  0.43253633  1
  O  O310  1  0.53658704  0.91543473  0.68304583  1
  O  O311  1  0.53640553  0.91579470  0.93316833  1
  O  O312  1  0.46266862  0.08468169  0.06721928  1
  O  O313  1  0.46341584  0.08430340  0.31723331  1
  O  O314  1  0.46339297  0.08480951  0.56696513  1
  O  O315  1  0.46252347  0.08471255  0.81713821  1
  O  O316  1  0.46312401  0.41750061  0.06586223  1
  O  O317  1  0.46317502  0.41480374  0.31709517  1
  O  O318  1  0.46301168  0.41528201  0.56605979  1
  O  O319  1  0.46299202  0.41719295  0.81734344  1
  O  O320  1  0.46327638  0.75114350  0.06719390  1
  O  O321  1  0.46294152  0.75176007  0.31752712  1
  O  O322  1  0.46277405  0.75183595  0.56798642  1
  O  O323  1  0.46296438  0.75104680  0.81898822  1
  O  O324  1  0.96229560  0.08365650  0.06645695  1
  O  O325  1  0.96247256  0.08503790  0.31778511  1
  O  O326  1  0.96291480  0.08333555  0.56748216  1
  O  O327  1  0.96322146  0.08156602  0.81719560  1
  O  O328  1  0.96364790  0.41712731  0.06869148  1
  O  O329  1  0.96388957  0.41685630  0.31867709  1
  O  O330  1  0.96425036  0.41600030  0.56807320  1
  O  O331  1  0.96337022  0.41527741  0.81683699  1
  O  O332  1  0.96288101  0.75095906  0.06733449  1
  O  O333  1  0.96314779  0.74925226  0.31754702  1
  O  O334  1  0.96323198  0.74729530  0.56738722  1
  O  O335  1  0.96304067  0.74750606  0.81717657  1
  O  O336  1  0.21183297  0.08388907  0.05873422  1
  O  O337  1  0.21301109  0.08307923  0.30783676  1
  O  O338  1  0.21324014  0.08495883  0.55613774  1
  O  O339  1  0.21203852  0.08619622  0.80711281  1
  O  O340  1  0.21308545  0.41715725  0.05626646  1
  O  O341  1  0.21306937  0.41601723  0.30738974  1
  O  O342  1  0.21333036  0.41865256  0.55726573  1
  O  O343  1  0.21333078  0.41841909  0.80743120  1
  O  O344  1  0.21281210  0.75043300  0.05934835  1
  O  O345  1  0.21309160  0.74979109  0.30651624  1
  O  O346  1  0.21204763  0.74971228  0.55794441  1
  O  O347  1  0.21193623  0.75028529  0.80828882  1
  O  O348  1  0.71298771  0.08303493  0.05761458  1
  O  O349  1  0.71290677  0.08262872  0.30736513  1
  O  O350  1  0.71273795  0.08204788  0.55887228  1
  O  O351  1  0.71322641  0.08215504  0.80797693  1
  O  O352  1  0.71252494  0.41565023  0.05739871  1
  O  O353  1  0.71374691  0.41787699  0.30820201  1
  O  O354  1  0.71405856  0.41557373  0.55713657  1
  O  O355  1  0.71338813  0.41442593  0.80644210  1
  O  O356  1  0.71405093  0.75102075  0.05831951  1
  O  O357  1  0.71329626  0.74934407  0.30779258  1
  O  O358  1  0.71300609  0.74796177  0.55759231  1
  O  O359  1  0.71297843  0.74992760  0.80902160  1
  O  O360  1  0.28702381  0.24991928  0.19198800  1
  O  O361  1  0.28650027  0.24836794  0.44155293  1
  O  O362  1  0.28671357  0.25171476  0.69191572  1
  O  O363  1  0.28634923  0.25353973  0.94197215  1
  O  O364  1  0.28690398  0.58338090  0.19185888  1
  O  O365  1  0.28747978  0.58162586  0.44207019  1
  O  O366  1  0.28749619  0.58210254  0.69241844  1
  O  O367  1  0.28697464  0.58440890  0.94226360  1
  O  O368  1  0.28594115  0.91815450  0.19184409  1
  O  O369  1  0.28724741  0.91820759  0.44114374  1
  O  O370  1  0.28799492  0.91798591  0.69206776  1
  O  O371  1  0.28654925  0.91783200  0.94418056  1
  O  O372  1  0.78781167  0.25100683  0.19290396  1
  O  O373  1  0.78721251  0.25142427  0.44254144  1
  O  O374  1  0.78612389  0.24982439  0.69312667  1
  O  O375  1  0.78707924  0.24914994  0.94091025  1
  O  O376  1  0.78661020  0.58250088  0.19364860  1
  O  O377  1  0.78658945  0.58070991  0.44219134  1
  O  O378  1  0.78760774  0.58110295  0.69167478  1
  O  O379  1  0.78769179  0.58128358  0.94303099  1
  O  O380  1  0.78727361  0.91644175  0.19129244  1
  O  O381  1  0.78823477  0.91681307  0.44305940  1
  O  O382  1  0.78739337  0.91558310  0.69277805  1
  O  O383  1  0.78635002  0.91532406  0.94353447  1
  O  O384  1  0.22753488  0.25274865  0.05773463  1
  O  O385  1  0.22794050  0.24894537  0.30760991  1
  O  O386  1  0.22734250  0.24932440  0.55722186  1
  O  O387  1  0.22749342  0.25312405  0.80749643  1
  O  O388  1  0.22781197  0.58529923  0.05787859  1
  O  O389  1  0.22821174  0.58148020  0.30764791  1
  O  O390  1  0.22826691  0.58155580  0.55765897  1
  O  O391  1  0.22799613  0.58218234  0.80775980  1
  O  O392  1  0.22671612  0.91840537  0.05968807  1
  O  O393  1  0.22748108  0.91882351  0.30801456  1
  O  O394  1  0.22837331  0.91811358  0.55661010  1
  O  O395  1  0.22830015  0.91799176  0.80683382  1
  O  O396  1  0.72861739  0.24972361  0.05679060  1
  O  O397  1  0.72831695  0.25154133  0.30820936  1
  O  O398  1  0.72786391  0.25076970  0.55795037  1
  O  O399  1  0.72688652  0.24956400  0.80911990  1
  O  O400  1  0.72822328  0.58133184  0.05829949  1
  O  O401  1  0.72757215  0.58274744  0.30970819  1
  O  O402  1  0.72808980  0.57994848  0.55844877  1
  O  O403  1  0.72878423  0.58204974  0.80718031  1
  O  O404  1  0.72720133  0.91630447  0.05962401  1
  O  O405  1  0.72883049  0.91578433  0.30701712  1
  O  O406  1  0.72854150  0.91748798  0.55821508  1
  O  O407  1  0.72824484  0.91405775  0.80840650  1
  O  O408  1  0.27142084  0.08271226  0.19169287  1
  O  O409  1  0.27243671  0.08379762  0.44010758  1
  O  O410  1  0.27175073  0.08672911  0.69190905  1
  O  O411  1  0.27099920  0.08528370  0.94352303  1
  O  O412  1  0.27196972  0.41567391  0.19161012  1
  O  O413  1  0.27234380  0.41807929  0.44143672  1
  O  O414  1  0.27202998  0.41874971  0.69135504  1
  O  O415  1  0.27241923  0.41801531  0.94035979  1
  O  O416  1  0.27274033  0.74949228  0.19091572  1
  O  O417  1  0.27132892  0.75004102  0.44290174  1
  O  O418  1  0.27138291  0.75014495  0.69334238  1
  O  O419  1  0.27157101  0.75055275  0.94371201  1
  O  O420  1  0.77196492  0.08121376  0.19183656  1
  O  O421  1  0.77180393  0.08342429  0.44362706  1
  O  O422  1  0.77210878  0.08133098  0.69210978  1
  O  O423  1  0.77197120  0.08344831  0.94187087  1
  O  O424  1  0.77240200  0.41826027  0.19221226  1
  O  O425  1  0.77319991  0.41642394  0.44097641  1
  O  O426  1  0.77271054  0.41569862  0.69068275  1
  O  O427  1  0.77188169  0.41361765  0.94199728  1
  O  O428  1  0.77223142  0.75041309  0.19210971  1
  O  O429  1  0.77244995  0.74732699  0.44223051  1
  O  O430  1  0.77171543  0.74891307  0.69349461  1
  O  O431  1  0.77269950  0.75099242  0.94228501  1
  O  O432  1  0.02111553  0.08437815  0.18201930  1
  O  O433  1  0.02215555  0.08487784  0.43296645  1
  O  O434  1  0.02201745  0.08253349  0.68306945  1
  O  O435  1  0.02183860  0.08212678  0.93331473  1
  O  O436  1  0.02283976  0.41746256  0.18471099  1
  O  O437  1  0.02317684  0.41601956  0.43473118  1
  O  O438  1  0.02320681  0.41557543  0.68428804  1
  O  O439  1  0.02223573  0.41570830  0.93282602  1
  O  O440  1  0.02215082  0.75138236  0.18302734  1
  O  O441  1  0.02202952  0.74746861  0.43327648  1
  O  O442  1  0.02183260  0.74762031  0.68334956  1
  O  O443  1  0.02174591  0.74836904  0.93306860  1
  O  O444  1  0.52193287  0.08480770  0.18288704  1
  O  O445  1  0.52238829  0.08436580  0.43302371  1
  O  O446  1  0.52198596  0.08459847  0.68301470  1
  O  O447  1  0.52147995  0.08442853  0.93283072  1
  O  O448  1  0.52188621  0.41645462  0.18128016  1
  O  O449  1  0.52247112  0.41417651  0.43261847  1
  O  O450  1  0.52203192  0.41587813  0.68137434  1
  O  O451  1  0.52236321  0.41753567  0.93271642  1
  O  O452  1  0.52221825  0.75205378  0.18311546  1
  O  O453  1  0.52199534  0.75218846  0.43322453  1
  O  O454  1  0.52174279  0.75222771  0.68375356  1
  O  O455  1  0.52236243  0.75089714  0.93478890  1
  O  O456  1  0.47827208  0.24842062  0.06661957  1
  O  O457  1  0.47813223  0.24781034  0.31639773  1
  O  O458  1  0.47745745  0.24968409  0.56531162  1
  O  O459  1  0.47792367  0.24811938  0.81665865  1
  O  O460  1  0.47717897  0.58319353  0.06585741  1
  O  O461  1  0.47849600  0.58369745  0.31830204  1
  O  O462  1  0.47905256  0.58351830  0.56835279  1
  O  O463  1  0.47849506  0.58364793  0.81848130  1
  O  O464  1  0.47736043  0.91556533  0.06716539  1
  O  O465  1  0.47818847  0.91540293  0.31676132  1
  O  O466  1  0.47808800  0.91545539  0.56694095  1
  O  O467  1  0.47769141  0.91560502  0.81728367  1
  O  O468  1  0.97789796  0.25242177  0.06657052  1
  O  O469  1  0.97778919  0.25278613  0.31726357  1
  O  O470  1  0.97708879  0.25112676  0.56600491  1
  O  O471  1  0.97787019  0.25126708  0.81692679  1
  O  O472  1  0.97781075  0.58458702  0.06686448  1
  O  O473  1  0.97802549  0.58184067  0.31702580  1
  O  O474  1  0.97718307  0.58312608  0.56560789  1
  O  O475  1  0.97714152  0.58301247  0.81568550  1
  O  O476  1  0.97733443  0.91821254  0.06666801  1
  O  O477  1  0.97794823  0.91487475  0.31705055  1
  O  O478  1  0.97868744  0.91633659  0.56823593  1
  O  O479  1  0.97748128  0.91719301  0.81668752  1
  O  O480  1  0.07297485  0.31602000  0.07391259  1
  O  O481  1  0.07334204  0.31529198  0.32498148  1
  O  O482  1  0.07294304  0.31380859  0.57406638  1
  O  O483  1  0.07306683  0.31470157  0.82344683  1
  O  O484  1  0.07238783  0.64865519  0.07393163  1
  O  O485  1  0.07357416  0.64528369  0.32468302  1
  O  O486  1  0.07239619  0.64632812  0.57361620  1
  O  O487  1  0.07255854  0.64648435  0.82328542  1
  O  O488  1  0.07212899  0.98199634  0.07475398  1
  O  O489  1  0.07296706  0.97927241  0.32480102  1
  O  O490  1  0.07423746  0.97982144  0.57506157  1
  O  O491  1  0.07232347  0.98138151  0.82384310  1
  O  O492  1  0.57393563  0.31158500  0.07457204  1
  O  O493  1  0.57330478  0.31183692  0.32423572  1
  O  O494  1  0.57246699  0.31306329  0.57315754  1
  O  O495  1  0.57314526  0.31197571  0.82433463  1
  O  O496  1  0.57180675  0.64751466  0.07333548  1
  O  O497  1  0.57406731  0.64678905  0.32515211  1
  O  O498  1  0.57442168  0.64725776  0.57540403  1
  O  O499  1  0.57389994  0.64703254  0.82655186  1
  O  O500  1  0.57256853  0.97939398  0.07489898  1
  O  O501  1  0.57353316  0.97901375  0.32477922  1
  O  O502  1  0.57320162  0.97923035  0.57548403  1
  O  O503  1  0.57303286  0.97906767  0.82524194  1
  O  O504  1  0.42684025  0.02094309  0.17509191  1
  O  O505  1  0.42722412  0.02062103  0.42494205  1
  O  O506  1  0.42657060  0.02126373  0.67459362  1
  O  O507  1  0.42585164  0.02131847  0.92496692  1
  O  O508  1  0.42649991  0.35313126  0.17334944  1
  O  O509  1  0.42710030  0.35118308  0.42532173  1
  O  O510  1  0.42629181  0.35268042  0.67449702  1
  O  O511  1  0.42691669  0.35387518  0.92500237  1
  O  O512  1  0.42720263  0.68769643  0.17528565  1
  O  O513  1  0.42684146  0.68809633  0.42537316  1
  O  O514  1  0.42679520  0.68790643  0.67576487  1
  O  O515  1  0.42786300  0.68673056  0.92720352  1
  O  O516  1  0.92565180  0.02087383  0.17497406  1
  O  O517  1  0.92659884  0.02117796  0.42526315  1
  O  O518  1  0.92726472  0.01860125  0.67565643  1
  O  O519  1  0.92655854  0.01883123  0.92597721  1
  O  O520  1  0.92764690  0.35378818  0.17711580  1
  O  O521  1  0.92755962  0.35338339  0.42701573  1
  O  O522  1  0.92768237  0.35262147  0.67622589  1
  O  O523  1  0.92741958  0.35183021  0.92573087  1
  O  O524  1  0.92653103  0.68788734  0.17530410  1
  O  O525  1  0.92687730  0.68442738  0.42525390  1
  O  O526  1  0.92662867  0.68398759  0.67569443  1
  O  O527  1  0.92701874  0.68421964  0.92603118  1
  O  O528  1  0.17608409  0.01967393  0.19937623  1
  O  O529  1  0.17743943  0.02025933  0.44845663  1
  O  O530  1  0.17667745  0.02240756  0.69914035  1
  O  O531  1  0.17586763  0.02104499  0.94993391  1
  O  O532  1  0.17722249  0.35190360  0.19899730  1
  O  O533  1  0.17702046  0.35444983  0.45014766  1
  O  O534  1  0.17670336  0.35520535  0.69922186  1
  O  O535  1  0.17726039  0.35442895  0.94738415  1
  O  O536  1  0.17732754  0.68624606  0.19844072  1
  O  O537  1  0.17612975  0.68614938  0.44979158  1
  O  O538  1  0.17595354  0.68665694  0.70017053  1
  O  O539  1  0.17581600  0.68761851  0.95068885  1
  O  O540  1  0.67639741  0.01881072  0.19920682  1
  O  O541  1  0.67643040  0.01935372  0.45020892  1
  O  O542  1  0.67743604  0.01743092  0.70006538  1
  O  O543  1  0.67629278  0.01992727  0.94988932  1
  O  O544  1  0.67700357  0.35441367  0.20030662  1
  O  O545  1  0.67861385  0.35216423  0.44832691  1
  O  O546  1  0.67765057  0.35168695  0.69769247  1
  O  O547  1  0.67628677  0.35139947  0.94907381  1
  O  O548  1  0.67659218  0.68691032  0.19946784  1
  O  O549  1  0.67715117  0.68438324  0.44912557  1
  O  O550  1  0.67628940  0.68561580  0.70148772  1
  O  O551  1  0.67782314  0.68668083  0.95106884  1
  O  O552  1  0.32259715  0.31642453  0.05081271  1
  O  O553  1  0.32355920  0.31241570  0.30028523  1
  O  O554  1  0.32277634  0.31267110  0.54882156  1
  O  O555  1  0.32285545  0.31600303  0.80000292  1
  O  O556  1  0.32297616  0.64842432  0.05069725  1
  O  O557  1  0.32346314  0.64579673  0.30031022  1
  O  O558  1  0.32336546  0.64568731  0.54988862  1
  O  O559  1  0.32316167  0.64635085  0.80013083  1
  O  O560  1  0.32208771  0.98172848  0.05211288  1
  O  O561  1  0.32288078  0.98157268  0.30030376  1
  O  O562  1  0.32410844  0.98120285  0.54936350  1
  O  O563  1  0.32364855  0.98176831  0.80016987  1
  O  O564  1  0.82406125  0.31293569  0.04906409  1
  O  O565  1  0.82342938  0.31493420  0.30123539  1
  O  O566  1  0.82289382  0.31466212  0.55145986  1
  O  O567  1  0.82226479  0.31278308  0.80157220  1
  O  O568  1  0.82372578  0.64487361  0.05079337  1
  O  O569  1  0.82220893  0.64684007  0.30149944  1
  O  O570  1  0.82298586  0.64439029  0.54994302  1
  O  O571  1  0.82422184  0.64507766  0.79961077  1
  O  O572  1  0.82184868  0.98026327  0.05105241  1
  O  O573  1  0.82424130  0.97953745  0.29966613  1
  O  O574  1  0.82371950  0.98067278  0.55170925  1
  O  O575  1  0.82340911  0.97832913  0.80118466  1
  O  O576  1  0.42663430  0.14810464  0.17582646  1
  O  O577  1  0.42720713  0.14771229  0.42582854  1
  O  O578  1  0.42706324  0.14839720  0.67538543  1
  O  O579  1  0.42655309  0.14841918  0.92578777  1
  O  O580  1  0.42634304  0.48004250  0.17448209  1
  O  O581  1  0.42741445  0.47852235  0.42480387  1
  O  O582  1  0.42681624  0.47959587  0.67389301  1
  O  O583  1  0.42736929  0.48117051  0.92571993  1
  O  O584  1  0.42678025  0.81470392  0.17577227  1
  O  O585  1  0.42662100  0.81530185  0.42600919  1
  O  O586  1  0.42624405  0.81508797  0.67656760  1
  O  O587  1  0.42688698  0.81417933  0.92735123  1
  O  O588  1  0.92580294  0.14779264  0.17409009  1
  O  O589  1  0.92725718  0.14855174  0.42658822  1
  O  O590  1  0.92624551  0.14576834  0.67571701  1
  O  O591  1  0.92687730  0.14608884  0.92424425  1
  O  O592  1  0.92812782  0.48113554  0.17694216  1
  O  O593  1  0.92881551  0.48043884  0.42746257  1
  O  O594  1  0.92885594  0.47986764  0.67654514  1
  O  O595  1  0.92665868  0.47870563  0.92484664  1
  O  O596  1  0.92742965  0.81503499  0.17588732  1
  O  O597  1  0.92671511  0.81159101  0.42600768  1
  O  O598  1  0.92660037  0.81115293  0.67490546  1
  O  O599  1  0.92617913  0.81138665  0.92451167  1
  O  O600  1  0.07314450  0.18887919  0.07524206  1
  O  O601  1  0.07266495  0.18835077  0.32484310  1
  O  O602  1  0.07113375  0.18640824  0.57320378  1
  O  O603  1  0.07313840  0.18763273  0.82509705  1
  O  O604  1  0.07355202  0.52149870  0.07422164  1
  O  O605  1  0.07295684  0.51843024  0.32425556  1
  O  O606  1  0.07174832  0.51911694  0.57370398  1
  O  O607  1  0.07160548  0.51911469  0.82294883  1
  O  O608  1  0.07290471  0.85487410  0.07417046  1
  O  O609  1  0.07324604  0.85182225  0.32387024  1
  O  O610  1  0.07403495  0.85289969  0.57614492  1
  O  O611  1  0.07309422  0.85414704  0.82575538  1
  O  O612  1  0.57314302  0.18439387  0.07325085  1
  O  O613  1  0.57341494  0.18485342  0.32433563  1
  O  O614  1  0.57249342  0.18567007  0.57304232  1
  O  O615  1  0.57314942  0.18485555  0.82362626  1
  O  O616  1  0.57243394  0.51987413  0.07350777  1
  O  O617  1  0.57362417  0.51967424  0.32532183  1
  O  O618  1  0.57453355  0.52011685  0.57529137  1
  O  O619  1  0.57395754  0.52017674  0.82584913  1
  O  O620  1  0.57274283  0.85235213  0.07410493  1
  O  O621  1  0.57330178  0.85188106  0.32390494  1
  O  O622  1  0.57330948  0.85214360  0.57448731  1
  O  O623  1  0.57272983  0.85192090  0.82494385  1
  O  O624  1  0.32284561  0.18925694  0.04929442  1
  O  O625  1  0.32276266  0.18531918  0.30002290  1
  O  O626  1  0.32224204  0.18555251  0.55067497  1
  O  O627  1  0.32264616  0.18893529  0.80049824  1
  O  O628  1  0.32305621  0.52130206  0.05017271  1
  O  O629  1  0.32340899  0.51858663  0.29957436  1
  O  O630  1  0.32371869  0.51853826  0.55081624  1
  O  O631  1  0.32347064  0.51924642  0.80144765  1
  O  O632  1  0.32125058  0.85414572  0.05275147  1
  O  O633  1  0.32247567  0.85448862  0.29954756  1
  O  O634  1  0.32343268  0.85421201  0.54907249  1
  O  O635  1  0.32377070  0.85463390  0.80060758  1
  O  O636  1  0.82401217  0.18626624  0.04940817  1
  O  O637  1  0.82356617  0.18758670  0.30084485  1
  O  O638  1  0.82341467  0.18768239  0.55036536  1
  O  O639  1  0.82138093  0.18526231  0.80097956  1
  O  O640  1  0.82314990  0.51761450  0.05160511  1
  O  O641  1  0.82295412  0.51948905  0.30207125  1
  O  O642  1  0.82338871  0.51733781  0.55080383  1
  O  O643  1  0.82403520  0.51813940  0.79982785  1
  O  O644  1  0.82240989  0.85274508  0.05222211  1
  O  O645  1  0.82440965  0.85283454  0.29948607  1
  O  O646  1  0.82376807  0.85321532  0.55068381  1
  O  O647  1  0.82354346  0.85124661  0.80091108  1
  O  O648  1  0.17621686  0.14663086  0.20005511  1
  O  O649  1  0.17738628  0.14766087  0.44744260  1
  O  O650  1  0.17640541  0.14969228  0.69847032  1
  O  O651  1  0.17529207  0.14801907  0.95116340  1
  O  O652  1  0.17644321  0.47901461  0.19939996  1
  O  O653  1  0.17744980  0.48165930  0.44823674  1
  O  O654  1  0.17693258  0.48210022  0.69892648  1
  O  O655  1  0.17757424  0.48182624  0.94861958  1
  O  O656  1  0.17826536  0.81389766  0.19840497  1
  O  O657  1  0.17570510  0.81317269  0.44992021  1
  O  O658  1  0.17592880  0.81379187  0.70023802  1
  O  O659  1  0.17632060  0.81436170  0.95132473  1
  O  O660  1  0.67722077  0.14615614  0.19957245  1
  O  O661  1  0.67628239  0.14630294  0.45113978  1
  O  O662  1  0.67652100  0.14469125  0.69982276  1
  O  O663  1  0.67726129  0.14698792  0.94887109  1
  O  O664  1  0.67732136  0.48144619  0.19950977  1
  O  O665  1  0.67769530  0.47930389  0.44904154  1
  O  O666  1  0.67762027  0.47906841  0.69871569  1
  O  O667  1  0.67696388  0.47846629  0.94903845  1
  O  O668  1  0.67737769  0.81397900  0.19967334  1
  O  O669  1  0.67750567  0.81177509  0.44992703  1
  O  O670  1  0.67633141  0.81249682  0.70035396  1
  O  O671  1  0.67734096  0.81398861  0.94976494  1
