# generated using pymatgen
data_Na2MnFe(PO4)2
_symmetry_space_group_name_H-M   'P 1'
_cell_length_a   22.34511061
_cell_length_b   20.09912958
_cell_length_c   19.44900659
_cell_angle_alpha   89.98321597
_cell_angle_beta   90.04232176
_cell_angle_gamma   90.05779550
_symmetry_Int_Tables_number   1
_chemical_formula_structural   Na2MnFe(PO4)2
_chemical_formula_sum   'Na96 Mn48 Fe48 P96 O384'
_cell_volume   8734.87761605
_cell_formula_units_Z   48
loop_
 _symmetry_equiv_pos_site_id
 _symmetry_equiv_pos_as_xyz
  1  'x, y, z'
loop_
 _atom_site_type_symbol
 _atom_site_label
 _atom_site_symmetry_multiplicity
 _atom_site_fract_x
 _atom_site_fract_y
 _atom_site_fract_z
 _atom_site_occupancy
  Na  Na0  1  0.13982032  0.24932443  0.24232528  1
  Na  Na1  1  0.14031918  0.24936427  0.49440621  1
  Na  Na2  1  0.13993269  0.25135135  0.74406155  1
  Na  Na3  1  0.13949849  0.24937628  0.99519358  1
  Na  Na4  1  0.14032949  0.58326971  0.24434869  1
  Na  Na5  1  0.13998985  0.58366861  0.49470215  1
  Na  Na6  1  0.14029895  0.58395645  0.74412392  1
  Na  Na7  1  0.14012512  0.58353545  0.99569196  1
  Na  Na8  1  0.13993670  0.91545662  0.24331145  1
  Na  Na9  1  0.13961540  0.91624531  0.49324354  1
  Na  Na10  1  0.13989265  0.91727019  0.74396930  1
  Na  Na11  1  0.13969900  0.91710593  0.99425475  1
  Na  Na12  1  0.64061680  0.25063553  0.24234672  1
  Na  Na13  1  0.64041884  0.24889539  0.49331638  1
  Na  Na14  1  0.63959527  0.24971760  0.74246050  1
  Na  Na15  1  0.63976658  0.25045337  0.99349948  1
  Na  Na16  1  0.64053282  0.58263053  0.24316042  1
  Na  Na17  1  0.64086856  0.58188306  0.49296088  1
  Na  Na18  1  0.64069288  0.58430506  0.74400606  1
  Na  Na19  1  0.64019034  0.58357165  0.99346315  1
  Na  Na20  1  0.64027221  0.91670626  0.24380386  1
  Na  Na21  1  0.64013032  0.91636345  0.49244712  1
  Na  Na22  1  0.64084543  0.91712482  0.74261188  1
  Na  Na23  1  0.64061118  0.91723686  0.99348495  1
  Na  Na24  1  0.36031059  0.08343516  0.00647485  1
  Na  Na25  1  0.35958490  0.08238311  0.25506573  1
  Na  Na26  1  0.36029875  0.08337453  0.50618094  1
  Na  Na27  1  0.36029647  0.08464737  0.75537036  1
  Na  Na28  1  0.36023692  0.41670571  0.00756690  1
  Na  Na29  1  0.36076744  0.41707684  0.25546965  1
  Na  Na30  1  0.36007886  0.41618757  0.50590062  1
  Na  Na31  1  0.36000097  0.41654839  0.75592799  1
  Na  Na32  1  0.36003306  0.74959153  0.00713887  1
  Na  Na33  1  0.36002020  0.75023812  0.25557132  1
  Na  Na34  1  0.36004798  0.75017935  0.50532263  1
  Na  Na35  1  0.36013271  0.75011572  0.75522993  1
  Na  Na36  1  0.85974957  0.08420200  0.00823786  1
  Na  Na37  1  0.85935977  0.08346521  0.25604951  1
  Na  Na38  1  0.85913200  0.08200207  0.50616207  1
  Na  Na39  1  0.85920303  0.08247880  0.75556824  1
  Na  Na40  1  0.85921925  0.41653285  0.00770075  1
  Na  Na41  1  0.85951878  0.41633951  0.25688572  1
  Na  Na42  1  0.85935846  0.41513969  0.50566372  1
  Na  Na43  1  0.85931733  0.41764258  0.75635806  1
  Na  Na44  1  0.85950341  0.75112169  0.00603912  1
  Na  Na45  1  0.85942787  0.75049669  0.25758607  1
  Na  Na46  1  0.85989844  0.74962036  0.50756722  1
  Na  Na47  1  0.85984833  0.75106318  0.75670328  1
  Na  Na48  1  0.10926880  0.08300638  0.11790343  1
  Na  Na49  1  0.10897894  0.08220084  0.36826728  1
  Na  Na50  1  0.10918823  0.08270226  0.61864526  1
  Na  Na51  1  0.10909410  0.08377238  0.87024928  1
  Na  Na52  1  0.10916486  0.41639853  0.11958089  1
  Na  Na53  1  0.10910573  0.41587837  0.36836197  1
  Na  Na54  1  0.10901871  0.41731031  0.61949162  1
  Na  Na55  1  0.10904489  0.41771346  0.86940636  1
  Na  Na56  1  0.10923736  0.75082003  0.11931360  1
  Na  Na57  1  0.10959139  0.74943377  0.36912698  1
  Na  Na58  1  0.10898298  0.75081434  0.61920528  1
  Na  Na59  1  0.10933317  0.75083601  0.86994903  1
  Na  Na60  1  0.60979911  0.08448955  0.11727592  1
  Na  Na61  1  0.60988220  0.08399107  0.36819069  1
  Na  Na62  1  0.60993184  0.08296673  0.61704628  1
  Na  Na63  1  0.60980417  0.08436780  0.86905422  1
  Na  Na64  1  0.60979789  0.41683347  0.11750169  1
  Na  Na65  1  0.60984285  0.41656932  0.36763932  1
  Na  Na66  1  0.60970703  0.41504778  0.61816471  1
  Na  Na67  1  0.60942173  0.41582607  0.86966497  1
  Na  Na68  1  0.60946331  0.75052202  0.11823796  1
  Na  Na69  1  0.61022747  0.74990167  0.36839264  1
  Na  Na70  1  0.61015033  0.75008723  0.61736292  1
  Na  Na71  1  0.61008737  0.74967226  0.86849984  1
  Na  Na72  1  0.39081284  0.25068222  0.13096638  1
  Na  Na73  1  0.39082363  0.25068018  0.38070854  1
  Na  Na74  1  0.39087276  0.24912536  0.63097028  1
  Na  Na75  1  0.39102713  0.24985755  0.88118797  1
  Na  Na76  1  0.39080072  0.58355978  0.13182659  1
  Na  Na77  1  0.39089260  0.58339416  0.38034559  1
  Na  Na78  1  0.39096512  0.58159755  0.63078050  1
  Na  Na79  1  0.39091086  0.58252642  0.88230146  1
  Na  Na80  1  0.39075166  0.91759186  0.13086383  1
  Na  Na81  1  0.39094116  0.91683149  0.38121630  1
  Na  Na82  1  0.39089510  0.91749910  0.62985661  1
  Na  Na83  1  0.39116423  0.91702775  0.88147731  1
  Na  Na84  1  0.88975893  0.25014573  0.13326568  1
  Na  Na85  1  0.88952516  0.24865598  0.38047431  1
  Na  Na86  1  0.89000998  0.24922108  0.63076897  1
  Na  Na87  1  0.89025534  0.24994891  0.88144168  1
  Na  Na88  1  0.88993464  0.58337969  0.13263931  1
  Na  Na89  1  0.89037101  0.58358394  0.38187538  1
  Na  Na90  1  0.89028074  0.58401755  0.63223547  1
  Na  Na91  1  0.89021393  0.58532449  0.88135913  1
  Na  Na92  1  0.89000642  0.91774752  0.13130786  1
  Na  Na93  1  0.89035499  0.91471376  0.38262780  1
  Na  Na94  1  0.88974612  0.91545545  0.63137928  1
  Na  Na95  1  0.89030772  0.91705808  0.88156725  1
  Mn  Mn96  1  0.74932040  0.83377844  0.12534462  1
  Mn  Mn97  1  0.25011956  0.83372762  0.62508421  1
  Mn  Mn98  1  0.00038282  0.16535136  0.50026627  1
  Mn  Mn99  1  0.75032867  0.33290555  0.62460329  1
  Mn  Mn100  1  0.74984816  0.33356718  0.87481796  1
  Mn  Mn101  1  0.74928132  0.66666190  0.12523738  1
  Mn  Mn102  1  -0.00010682  0.33265344  0.49928260  1
  Mn  Mn103  1  0.75009149  0.16662330  0.87510661  1
  Mn  Mn104  1  0.50031140  0.83314620  0.74990729  1
  Mn  Mn105  1  0.49972534  0.16753021  0.24911916  1
  Mn  Mn106  1  0.50098457  0.49833770  0.75098942  1
  Mn  Mn107  1  0.25000205  0.00083206  0.87466555  1
  Mn  Mn108  1  0.25033778  0.00095922  0.62427455  1
  Mn  Mn109  1  0.25020883  0.83317029  0.12483437  1
  Mn  Mn110  1  -0.00059264  -0.00067329  0.75037991  1
  Mn  Mn111  1  0.24911646  -0.00074897  0.37506108  1
  Mn  Mn112  1  0.74938262  -0.00014857  0.87478987  1
  Mn  Mn113  1  -0.00094833  0.50024995  0.50052538  1
  Mn  Mn114  1  0.74999673  0.00009989  0.37492092  1
  Mn  Mn115  1  0.50035299  0.33318963  0.49954213  1
  Mn  Mn116  1  -0.00057205  0.66703000  0.25067118  1
  Mn  Mn117  1  0.25111644  0.66691717  0.37492651  1
  Mn  Mn118  1  -0.00072912  0.16692630  0.74988663  1
  Mn  Mn119  1  0.24980804  0.16596196  0.37416995  1
  Mn  Mn120  1  0.75009423  0.49920942  0.37455075  1
  Mn  Mn121  1  0.25047408  0.50038308  0.87577435  1
  Mn  Mn122  1  -0.00024097  0.66819749  0.00161477  1
  Mn  Mn123  1  -0.00088419  0.50053799  0.00006604  1
  Mn  Mn124  1  0.50052610  0.83354834  -0.00054853  1
  Mn  Mn125  1  0.25050390  0.66662832  0.87530226  1
  Mn  Mn126  1  0.00001998  -0.00071197  0.24970580  1
  Mn  Mn127  1  0.24973628  0.16693793  0.87537998  1
  Mn  Mn128  1  0.25007643  0.49999183  0.37493107  1
  Mn  Mn129  1  0.50103256  0.00098286  0.74985834  1
  Mn  Mn130  1  0.50068707  0.66597499  0.49902432  1
  Mn  Mn131  1  0.24989706  0.66617286  0.62526978  1
  Mn  Mn132  1  0.24982276  0.33369968  0.87532631  1
  Mn  Mn133  1  0.74962187  0.50111567  0.87553797  1
  Mn  Mn134  1  0.75001501  0.66689256  0.62491713  1
  Mn  Mn135  1  0.24985958  0.33292094  0.37504080  1
  Mn  Mn136  1  0.50030427  0.66566264  0.74906134  1
  Mn  Mn137  1  -0.00136712  0.33306814  0.00069256  1
  Mn  Mn138  1  0.25015175  0.33359428  0.62493775  1
  Mn  Mn139  1  0.24989204  0.33328096  0.12517717  1
  Mn  Mn140  1  0.25038725  0.83381368  0.87557303  1
  Mn  Mn141  1  0.49996513  0.00008196  0.24963974  1
  Mn  Mn142  1  -0.00040777  0.50071919  0.75018225  1
  Mn  Mn143  1  0.50055338  0.66705486  0.24999079  1
  Fe  Fe144  1  0.50014344  0.83328740  0.49929092  1
  Fe  Fe145  1  0.50084384  0.00050895  -0.00034745  1
  Fe  Fe146  1  0.24967031  0.16710797  0.62495994  1
  Fe  Fe147  1  0.50037936  0.00023199  0.49939338  1
  Fe  Fe148  1  -0.00051995  0.00010362  0.00030166  1
  Fe  Fe149  1  0.25035500  0.16615711  0.12482469  1
  Fe  Fe150  1  0.24969610  0.66662015  0.12568120  1
  Fe  Fe151  1  0.74936597  0.16631686  0.37448080  1
  Fe  Fe152  1  0.74939064  0.83298039  0.62479201  1
  Fe  Fe153  1  -0.00064693  0.83401043  0.00005683  1
  Fe  Fe154  1  0.49985312  0.66665045  0.00020493  1
  Fe  Fe155  1  0.50015843  0.33334442  -0.00027923  1
  Fe  Fe156  1  0.74954911  0.16702268  0.12534236  1
  Fe  Fe157  1  0.75009498  0.83325981  0.37506135  1
  Fe  Fe158  1  0.74953204  0.33249078  0.37468523  1
  Fe  Fe159  1  -0.00056833  0.33346609  0.75050648  1
  Fe  Fe160  1  0.49998485  0.16749620  -0.00044208  1
  Fe  Fe161  1  0.75013598  0.83364964  0.87460176  1
  Fe  Fe162  1  0.50073407  0.49999753  0.24915929  1
  Fe  Fe163  1  0.75063722  0.50023638  0.12499167  1
  Fe  Fe164  1  0.74972132  -0.00058028  0.62461584  1
  Fe  Fe165  1  -0.00004124  0.66786245  0.75093178  1
  Fe  Fe166  1  0.50066429  0.33383997  0.24960838  1
  Fe  Fe167  1  -0.00056156  0.83335283  0.25087328  1
  Fe  Fe168  1  0.00000137  0.49983319  0.25105344  1
  Fe  Fe169  1  0.50046987  0.16681565  0.49975565  1
  Fe  Fe170  1  -0.00040601  0.16703313  0.00042919  1
  Fe  Fe171  1  -0.00067350  0.16565723  0.24993771  1
  Fe  Fe172  1  0.50013700  0.49957264  0.00026189  1
  Fe  Fe173  1  0.24977785  0.50011332  0.12557695  1
  Fe  Fe174  1  0.00012980  0.66677830  0.50060368  1
  Fe  Fe175  1  0.25007318  0.83295903  0.37425224  1
  Fe  Fe176  1  -0.00057247  -0.00123530  0.49956908  1
  Fe  Fe177  1  0.75033116  0.66735733  0.87474823  1
  Fe  Fe178  1  0.75003011  0.00020587  0.12522467  1
  Fe  Fe179  1  0.25011114  -0.00053569  0.12515612  1
  Fe  Fe180  1  -0.00007874  0.83255941  0.50095346  1
  Fe  Fe181  1  0.25010928  0.49994861  0.62505199  1
  Fe  Fe182  1  0.50018695  0.49923099  0.49963680  1
  Fe  Fe183  1  0.74993763  0.49997803  0.62461079  1
  Fe  Fe184  1  -0.00030442  0.33256169  0.24996649  1
  Fe  Fe185  1  0.50043186  0.83390494  0.24949228  1
  Fe  Fe186  1  0.75037481  0.16631234  0.62419135  1
  Fe  Fe187  1  0.50052490  0.16665546  0.74982669  1
  Fe  Fe188  1  0.00032017  0.83364956  0.75018036  1
  Fe  Fe189  1  0.49981350  0.33266065  0.75008144  1
  Fe  Fe190  1  0.74969643  0.33321206  0.12552460  1
  Fe  Fe191  1  0.75046697  0.66622458  0.37534680  1
  P  P192  1  0.04107351  0.24868629  0.10369090  1
  P  P193  1  0.04109573  0.24869075  0.35114759  1
  P  P194  1  0.04248072  0.25007548  0.60355632  1
  P  P195  1  0.04173780  0.25104730  0.85308122  1
  P  P196  1  0.04190382  0.58320550  0.10445163  1
  P  P197  1  0.04195772  0.58262896  0.35328003  1
  P  P198  1  0.04155851  0.58515353  0.60346043  1
  P  P199  1  0.04193729  0.58528927  0.85304101  1
  P  P200  1  0.04088315  0.91658790  0.10195139  1
  P  P201  1  0.04179930  0.91503026  0.35330649  1
  P  P202  1  0.04106103  0.91631203  0.60189326  1
  P  P203  1  0.04191986  0.91566496  0.85345475  1
  P  P204  1  0.54146184  0.25093893  0.10144003  1
  P  P205  1  0.54240504  0.25131784  0.35195336  1
  P  P206  1  0.54253613  0.24841582  0.60264321  1
  P  P207  1  0.54161853  0.25008891  0.85202430  1
  P  P208  1  0.54132743  0.58326175  0.10178035  1
  P  P209  1  0.54255284  0.58172740  0.35212637  1
  P  P210  1  0.54287004  0.58113725  0.60187811  1
  P  P211  1  0.54283604  0.58304199  0.85410904  1
  P  P212  1  0.54257495  0.91800589  0.10232967  1
  P  P213  1  0.54214531  0.91578652  0.35293236  1
  P  P214  1  0.54161711  0.91666903  0.60082986  1
  P  P215  1  0.54337659  0.91714981  0.85312732  1
  P  P216  1  0.45791164  0.08378982  0.14553067  1
  P  P217  1  0.45890593  0.08398155  0.39801444  1
  P  P218  1  0.45883892  0.08455327  0.64649112  1
  P  P219  1  0.45927751  0.08399224  0.89806754  1
  P  P220  1  0.45947702  0.41655206  0.14728260  1
  P  P221  1  0.45822965  0.41792623  0.39639713  1
  P  P222  1  0.45823087  0.41485387  0.64743904  1
  P  P223  1  0.45842081  0.41581204  0.89842944  1
  P  P224  1  0.45836992  0.75137704  0.14701568  1
  P  P225  1  0.45847219  0.75124607  0.39661683  1
  P  P226  1  0.45801967  0.75010133  0.64567321  1
  P  P227  1  0.45774888  0.74855129  0.89752293  1
  P  P228  1  0.95765005  0.08406276  0.14696588  1
  P  P229  1  0.95752326  0.08142270  0.39718063  1
  P  P230  1  0.95700795  0.08214194  0.64652155  1
  P  P231  1  0.95807913  0.08373404  0.89901962  1
  P  P232  1  0.95832215  0.41676909  0.14918541  1
  P  P233  1  0.95721761  0.41644397  0.39599249  1
  P  P234  1  0.95719654  0.41553023  0.64783981  1
  P  P235  1  0.95635151  0.41671213  0.89683845  1
  P  P236  1  0.95720337  0.75227215  0.14812506  1
  P  P237  1  0.95843314  0.74971781  0.39907636  1
  P  P238  1  0.95859200  0.75037478  0.64837957  1
  P  P239  1  0.95782037  0.75177112  0.89738925  1
  P  P240  1  0.20811916  0.08256576  0.22613822  1
  P  P241  1  0.20678363  0.08359559  0.47821665  1
  P  P242  1  0.20724352  0.08501382  0.72721083  1
  P  P243  1  0.20743368  0.08328508  0.97943964  1
  P  P244  1  0.20766096  0.41758779  0.22757175  1
  P  P245  1  0.20696426  0.41672303  0.47856936  1
  P  P246  1  0.20754504  0.41817427  0.72755697  1
  P  P247  1  0.20718085  0.41709853  0.97923741  1
  P  P248  1  0.20773934  0.74909721  0.22782464  1
  P  P249  1  0.20786233  0.75097141  0.47723166  1
  P  P250  1  0.20698252  0.75017647  0.72834942  1
  P  P251  1  0.20744786  0.74971705  0.97912798  1
  P  P252  1  0.70832112  0.08351289  0.22668586  1
  P  P253  1  0.70808027  0.08412403  0.47774787  1
  P  P254  1  0.70854630  0.08335940  0.72573482  1
  P  P255  1  0.70777856  0.08356327  0.97910934  1
  P  P256  1  0.70884632  0.41682664  0.22654506  1
  P  P257  1  0.70774533  0.41470522  0.47709052  1
  P  P258  1  0.70776123  0.41801699  0.72705188  1
  P  P259  1  0.70766671  0.41681501  0.97913309  1
  P  P260  1  0.70721629  0.74992781  0.22918960  1
  P  P261  1  0.70905707  0.74967867  0.47678468  1
  P  P262  1  0.70776352  0.75149974  0.72784678  1
  P  P263  1  0.70855222  0.75037815  0.97636261  1
  P  P264  1  0.29240754  0.24892426  0.02292879  1
  P  P265  1  0.29267079  0.24943290  0.27102162  1
  P  P266  1  0.29265642  0.24872745  0.52244351  1
  P  P267  1  0.29267145  0.25029342  0.77152459  1
  P  P268  1  0.29176112  0.58340449  0.02430624  1
  P  P269  1  0.29306881  0.58334655  0.27085391  1
  P  P270  1  0.29275469  0.58205148  0.52264457  1
  P  P271  1  0.29350869  0.58305363  0.77171039  1
  P  P272  1  0.29272779  0.91794091  0.02268483  1
  P  P273  1  0.29216439  0.91559802  0.27200881  1
  P  P274  1  0.29272149  0.91646877  0.52094113  1
  P  P275  1  0.29339362  0.91737793  0.77176425  1
  P  P276  1  0.79117368  0.25030725  0.02414198  1
  P  P277  1  0.79066925  0.24968566  0.27251615  1
  P  P278  1  0.79207725  0.24815468  0.52129729  1
  P  P279  1  0.79253866  0.24968319  0.77128699  1
  P  P280  1  0.79230765  0.58317719  0.02257356  1
  P  P281  1  0.79220626  0.58410289  0.27253716  1
  P  P282  1  0.79221142  0.58209172  0.52230239  1
  P  P283  1  0.79224217  0.58508683  0.77239005  1
  P  P284  1  0.79193141  0.91779536  0.02251181  1
  P  P285  1  0.79203191  0.91616435  0.27275061  1
  P  P286  1  0.79077583  0.91572371  0.52307788  1
  P  P287  1  0.79183225  0.91567326  0.77172072  1
  O  O288  1  0.03581222  0.24870459  0.18356389  1
  O  O289  1  0.03664672  0.24878792  0.43115067  1
  O  O290  1  0.03705516  0.25076224  0.68347554  1
  O  O291  1  0.03616180  0.25030645  0.93302614  1
  O  O292  1  0.03654185  0.58261588  0.18438081  1
  O  O293  1  0.03676337  0.58312642  0.43323326  1
  O  O294  1  0.03611556  0.58550007  0.68339500  1
  O  O295  1  0.03664796  0.58498710  0.93301479  1
  O  O296  1  0.03636778  0.91664117  0.18191643  1
  O  O297  1  0.03645742  0.91552195  0.43314017  1
  O  O298  1  0.03656766  0.91575227  0.68187172  1
  O  O299  1  0.03641435  0.91616651  0.93328915  1
  O  O300  1  0.53675636  0.25119042  0.18137495  1
  O  O301  1  0.53728888  0.25061330  0.43185238  1
  O  O302  1  0.53727984  0.24849176  0.68249670  1
  O  O303  1  0.53628634  0.25044147  0.93190650  1
  O  O304  1  0.53663812  0.58290448  0.18179664  1
  O  O305  1  0.53730765  0.58136665  0.43204446  1
  O  O306  1  0.53770839  0.58145886  0.68184966  1
  O  O307  1  0.53740939  0.58361340  0.93401135  1
  O  O308  1  0.53724541  0.91725565  0.18227370  1
  O  O309  1  0.53656191  0.91600478  0.43279662  1
  O  O310  1  0.53718605  0.91701421  0.68085890  1
  O  O311  1  0.53826159  0.91764641  0.93307752  1
  O  O312  1  0.46335605  0.08356402  0.06569489  1
  O  O313  1  0.46347188  0.08366401  0.31799990  1
  O  O314  1  0.46400502  0.08425945  0.56660405  1
  O  O315  1  0.46439107  0.08473903  0.81810232  1
  O  O316  1  0.46452216  0.41630791  0.06739982  1
  O  O317  1  0.46368583  0.41788284  0.31652318  1
  O  O318  1  0.46332622  0.41550819  0.56750879  1
  O  O319  1  0.46337940  0.41550731  0.81849421  1
  O  O320  1  0.46378795  0.75042282  0.06708939  1
  O  O321  1  0.46385202  0.75146797  0.31667482  1
  O  O322  1  0.46354548  0.75044437  0.56572853  1
  O  O323  1  0.46276269  0.74869898  0.81752300  1
  O  O324  1  0.96278205  0.08409834  0.06710330  1
  O  O325  1  0.96296008  0.08196441  0.31723785  1
  O  O326  1  0.96243383  0.08140697  0.56662204  1
  O  O327  1  0.96271060  0.08336037  0.81901012  1
  O  O328  1  0.96269959  0.41652125  0.06913173  1
  O  O329  1  0.96283387  0.41670681  0.31610144  1
  O  O330  1  0.96248200  0.41582497  0.56786517  1
  O  O331  1  0.96162199  0.41627169  0.81690359  1
  O  O332  1  0.96240179  0.75248454  0.06820227  1
  O  O333  1  0.96285293  0.75036627  0.31912136  1
  O  O334  1  0.96380472  0.74990717  0.56848241  1
  O  O335  1  0.96340750  0.75133893  0.81756011  1
  O  O336  1  0.21286364  0.08293945  0.05935428  1
  O  O337  1  0.21268700  0.08231049  0.30619643  1
  O  O338  1  0.21193013  0.08438597  0.55815843  1
  O  O339  1  0.21222389  0.08448652  0.80724200  1
  O  O340  1  0.21228284  0.41752489  0.05922824  1
  O  O341  1  0.21267023  0.41709360  0.30754227  1
  O  O342  1  0.21223532  0.41717698  0.55853323  1
  O  O343  1  0.21265704  0.41777388  0.80756881  1
  O  O344  1  0.21264058  0.74923231  0.05912921  1
  O  O345  1  0.21309343  0.74982017  0.30775248  1
  O  O346  1  0.21281664  0.75065334  0.55718906  1
  O  O347  1  0.21213253  0.75025231  0.80834077  1
  O  O348  1  0.71305056  0.08335457  0.05899243  1
  O  O349  1  0.71331031  0.08413831  0.30667978  1
  O  O350  1  0.71358628  0.08385556  0.55757642  1
  O  O351  1  0.71311517  0.08305803  0.80579424  1
  O  O352  1  0.71321635  0.41673439  0.05902282  1
  O  O353  1  0.71355482  0.41603942  0.30652154  1
  O  O354  1  0.71286900  0.41524871  0.55697533  1
  O  O355  1  0.71285557  0.41793605  0.80703733  1
  O  O356  1  0.71337437  0.75032928  0.05638893  1
  O  O357  1  0.71280232  0.74974532  0.30906642  1
  O  O358  1  0.71371943  0.75020417  0.55683039  1
  O  O359  1  0.71321856  0.75144971  0.80771657  1
  O  O360  1  0.28744463  0.24907269  0.19105998  1
  O  O361  1  0.28760610  0.24898786  0.44242795  1
  O  O362  1  0.28754511  0.24985723  0.69155092  1
  O  O363  1  0.28746977  0.24951830  0.94293891  1
  O  O364  1  0.28743057  0.58338839  0.19096803  1
  O  O365  1  0.28781358  0.58257223  0.44263939  1
  O  O366  1  0.28842520  0.58235138  0.69173454  1
  O  O367  1  0.28714173  0.58349544  0.94424594  1
  O  O368  1  0.28690727  0.91646894  0.19203094  1
  O  O369  1  0.28727839  0.91577999  0.44098735  1
  O  O370  1  0.28835668  0.91745997  0.69175112  1
  O  O371  1  0.28785206  0.91784107  0.94270032  1
  O  O372  1  0.78535961  0.25001118  0.19260172  1
  O  O373  1  0.78634600  0.24832733  0.44143740  1
  O  O374  1  0.78762940  0.24906810  0.69130418  1
  O  O375  1  0.78690529  0.25043645  0.94409669  1
  O  O376  1  0.78700660  0.58357297  0.19259114  1
  O  O377  1  0.78700546  0.58273178  0.44235156  1
  O  O378  1  0.78715036  0.58448633  0.69246178  1
  O  O379  1  0.78702351  0.58403880  0.94265020  1
  O  O380  1  0.78678909  0.91681304  0.19284326  1
  O  O381  1  0.78611835  0.91564055  0.44309283  1
  O  O382  1  0.78640660  0.91574563  0.69184933  1
  O  O383  1  0.78662232  0.91712084  0.94259176  1
  O  O384  1  0.22803506  0.24884067  0.05810938  1
  O  O385  1  0.22822476  0.24970566  0.30607935  1
  O  O386  1  0.22828246  0.24873481  0.55778922  1
  O  O387  1  0.22826321  0.25041492  0.80671072  1
  O  O388  1  0.22744410  0.58335080  0.05976633  1
  O  O389  1  0.22890378  0.58376590  0.30664587  1
  O  O390  1  0.22834317  0.58151519  0.55799660  1
  O  O391  1  0.22901710  0.58336970  0.80666218  1
  O  O392  1  0.22829962  0.91784192  0.05784160  1
  O  O393  1  0.22784091  0.91480864  0.30758201  1
  O  O394  1  0.22840794  0.91709572  0.55629381  1
  O  O395  1  0.22883887  0.91701844  0.80650918  1
  O  O396  1  0.72681413  0.25025323  0.05931750  1
  O  O397  1  0.72671137  0.24954078  0.30900065  1
  O  O398  1  0.72807877  0.24814205  0.55772264  1
  O  O399  1  0.72810200  0.24972833  0.80637368  1
  O  O400  1  0.72802363  0.58187449  0.05825464  1
  O  O401  1  0.72800104  0.58443406  0.30826453  1
  O  O402  1  0.72795276  0.58203507  0.55804071  1
  O  O403  1  0.72797416  0.58558900  0.80805170  1
  O  O404  1  0.72773537  0.91872881  0.05842002  1
  O  O405  1  0.72780163  0.91564660  0.30844244  1
  O  O406  1  0.72661619  0.91540825  0.55891011  1
  O  O407  1  0.72768207  0.91529614  0.80779594  1
  O  O408  1  0.27248773  0.08242532  0.19081467  1
  O  O409  1  0.27120091  0.08300076  0.44317192  1
  O  O410  1  0.27169347  0.08543148  0.69196168  1
  O  O411  1  0.27170256  0.08357142  0.94382803  1
  O  O412  1  0.27202029  0.41755382  0.19234339  1
  O  O413  1  0.27139776  0.41633511  0.44344205  1
  O  O414  1  0.27190477  0.41845817  0.69210958  1
  O  O415  1  0.27166483  0.41675077  0.94426712  1
  O  O416  1  0.27197968  0.74876689  0.19218172  1
  O  O417  1  0.27225450  0.75184725  0.44182137  1
  O  O418  1  0.27144409  0.74998633  0.69344682  1
  O  O419  1  0.27185850  0.74990053  0.94396773  1
  O  O420  1  0.77243339  0.08320294  0.19069304  1
  O  O421  1  0.77209836  0.08459376  0.44142740  1
  O  O422  1  0.77277716  0.08341442  0.69024374  1
  O  O423  1  0.77193578  0.08327289  0.94327204  1
  O  O424  1  0.77302229  0.41733577  0.19075820  1
  O  O425  1  0.77194944  0.41438331  0.44129526  1
  O  O426  1  0.77205083  0.41804166  0.69145127  1
  O  O427  1  0.77177863  0.41706252  0.94320876  1
  O  O428  1  0.77137443  0.75007116  0.19344468  1
  O  O429  1  0.77324356  0.74946768  0.44104120  1
  O  O430  1  0.77193124  0.75170148  0.69178530  1
  O  O431  1  0.77270608  0.75047072  0.94051690  1
  O  O432  1  0.02185424  0.08423283  0.18298699  1
  O  O433  1  0.02173789  0.08053324  0.43313266  1
  O  O434  1  0.02120725  0.08276688  0.68222858  1
  O  O435  1  0.02227260  0.08427748  0.93476009  1
  O  O436  1  0.02256841  0.41692446  0.18470638  1
  O  O437  1  0.02136320  0.41695672  0.43191203  1
  O  O438  1  0.02140602  0.41551920  0.68374227  1
  O  O439  1  0.02067828  0.41662191  0.93224820  1
  O  O440  1  0.02150441  0.75185897  0.18383966  1
  O  O441  1  0.02269171  0.74900023  0.43475298  1
  O  O442  1  0.02260515  0.75059095  0.68495297  1
  O  O443  1  0.02185209  0.75234749  0.93390775  1
  O  O444  1  0.52203624  0.08380325  0.18152900  1
  O  O445  1  0.52315316  0.08451922  0.43362347  1
  O  O446  1  0.52304103  0.08505886  0.68258810  1
  O  O447  1  0.52333950  0.08354606  0.93422367  1
  O  O448  1  0.52348598  0.41611815  0.18382003  1
  O  O449  1  0.52237584  0.41784331  0.43263515  1
  O  O450  1  0.52249221  0.41411691  0.68326469  1
  O  O451  1  0.52261033  0.41564855  0.93442115  1
  O  O452  1  0.52254526  0.75187120  0.18303581  1
  O  O453  1  0.52266302  0.75096218  0.43256606  1
  O  O454  1  0.52229447  0.74990998  0.68128191  1
  O  O455  1  0.52213842  0.74847758  0.93293014  1
  O  O456  1  0.47731140  0.25123111  0.06545065  1
  O  O457  1  0.47809602  0.25204713  0.31626954  1
  O  O458  1  0.47839529  0.24838297  0.56641910  1
  O  O459  1  0.47763629  0.24984836  0.81538061  1
  O  O460  1  0.47719323  0.58377719  0.06583957  1
  O  O461  1  0.47841050  0.58201738  0.31614790  1
  O  O462  1  0.47855772  0.58139557  0.56625277  1
  O  O463  1  0.47868388  0.58249490  0.81815041  1
  O  O464  1  0.47845024  0.91822093  0.06629289  1
  O  O465  1  0.47809703  0.91525880  0.31644185  1
  O  O466  1  0.47742243  0.91628174  0.56519045  1
  O  O467  1  0.47900814  0.91732034  0.81785604  1
  O  O468  1  0.97688867  0.24829220  0.06760379  1
  O  O469  1  0.97675349  0.24840132  0.31573539  1
  O  O470  1  0.97824141  0.24932276  0.56794269  1
  O  O471  1  0.97751728  0.25159067  0.81702263  1
  O  O472  1  0.97761167  0.58387719  0.06891055  1
  O  O473  1  0.97767945  0.58233582  0.31758707  1
  O  O474  1  0.97739317  0.58543994  0.56738285  1
  O  O475  1  0.97770426  0.58520687  0.81728426  1
  O  O476  1  0.97669237  0.91621770  0.06609908  1
  O  O477  1  0.97758868  0.91516851  0.31723082  1
  O  O478  1  0.97684643  0.91685258  0.56605412  1
  O  O479  1  0.97777632  0.91487437  0.81719586  1
  O  O480  1  0.07208461  0.31243991  0.07574228  1
  O  O481  1  0.07140084  0.31272707  0.32283680  1
  O  O482  1  0.07353868  0.31334156  0.57483125  1
  O  O483  1  0.07261278  0.31473346  0.82503022  1
  O  O484  1  0.07311789  0.64692766  0.07693147  1
  O  O485  1  0.07309476  0.64617082  0.32519795  1
  O  O486  1  0.07295253  0.64816022  0.57458791  1
  O  O487  1  0.07266431  0.64893640  0.82490843  1
  O  O488  1  0.07095053  0.98071774  0.07334807  1
  O  O489  1  0.07331549  0.97823045  0.32471281  1
  O  O490  1  0.07223357  0.97978825  0.57376839  1
  O  O491  1  0.07260625  0.97955657  0.82519586  1
  O  O492  1  0.57300345  0.31402857  0.07304490  1
  O  O493  1  0.57333797  0.31483837  0.32359034  1
  O  O494  1  0.57374335  0.31197104  0.57450229  1
  O  O495  1  0.57242381  0.31371957  0.82336434  1
  O  O496  1  0.57251462  0.64692410  0.07392426  1
  O  O497  1  0.57372354  0.64560491  0.32484532  1
  O  O498  1  0.57421673  0.64464431  0.57401543  1
  O  O499  1  0.57393913  0.64620217  0.82493528  1
  O  O500  1  0.57324372  0.98174451  0.07416079  1
  O  O501  1  0.57308751  0.97966102  0.32509854  1
  O  O502  1  0.57180711  0.98071575  0.57232612  1
  O  O503  1  0.57486821  0.98022645  0.82447752  1
  O  O504  1  0.42657762  0.02059642  0.17429554  1
  O  O505  1  0.42875269  0.01988399  0.42638947  1
  O  O506  1  0.42791099  0.02083628  0.67473499  1
  O  O507  1  0.42821582  0.02021658  0.92573075  1
  O  O508  1  0.42814838  0.35324193  0.17587485  1
  O  O509  1  0.42687543  0.35440561  0.42444044  1
  O  O510  1  0.42737367  0.35120480  0.67564354  1
  O  O511  1  0.42695523  0.35260297  0.92669633  1
  O  O512  1  0.42723276  0.68797726  0.17537080  1
  O  O513  1  0.42731697  0.68733335  0.42390337  1
  O  O514  1  0.42695433  0.68635718  0.67335740  1
  O  O515  1  0.42697172  0.68513587  0.92626618  1
  O  O516  1  0.92659439  0.02042836  0.17508377  1
  O  O517  1  0.92633404  0.01796822  0.42536376  1
  O  O518  1  0.92595874  0.01888163  0.67530735  1
  O  O519  1  0.92789815  0.01965771  0.92740313  1
  O  O520  1  0.92797795  0.35268758  0.17739008  1
  O  O521  1  0.92637194  0.35262126  0.42391460  1
  O  O522  1  0.92641510  0.35194365  0.67599481  1
  O  O523  1  0.92485156  0.35370685  0.92567228  1
  O  O524  1  0.92600441  0.68854892  0.17578581  1
  O  O525  1  0.92727305  0.68613063  0.42702879  1
  O  O526  1  0.92751967  0.68693924  0.67707735  1
  O  O527  1  0.92688453  0.68813462  0.92578092  1
  O  O528  1  0.17718210  0.01888705  0.19808624  1
  O  O529  1  0.17559555  0.01998613  0.45035147  1
  O  O530  1  0.17640521  0.02126210  0.69921285  1
  O  O531  1  0.17629891  0.02000875  0.95061881  1
  O  O532  1  0.17629236  0.35412922  0.19976393  1
  O  O533  1  0.17594595  0.35302025  0.45052042  1
  O  O534  1  0.17654575  0.35453132  0.69967658  1
  O  O535  1  0.17618043  0.35344173  0.95117766  1
  O  O536  1  0.17692982  0.68541562  0.19964495  1
  O  O537  1  0.17744224  0.68689937  0.44948766  1
  O  O538  1  0.17595842  0.68670846  0.70011633  1
  O  O539  1  0.17612309  0.68653187  0.95069118  1
  O  O540  1  0.67751448  0.01958962  0.19906790  1
  O  O541  1  0.67716607  0.02034334  0.44966033  1
  O  O542  1  0.67812050  0.01941682  0.69727590  1
  O  O543  1  0.67622105  0.02058405  0.95026390  1
  O  O544  1  0.67822395  0.35314689  0.19782653  1
  O  O545  1  0.67697082  0.35112313  0.44857476  1
  O  O546  1  0.67665204  0.35435593  0.69940605  1
  O  O547  1  0.67659634  0.35335013  0.95052976  1
  O  O548  1  0.67587520  0.68667568  0.20051575  1
  O  O549  1  0.67826938  0.68569047  0.44915039  1
  O  O550  1  0.67664190  0.68788092  0.69969428  1
  O  O551  1  0.67794056  0.68649511  0.94837784  1
  O  O552  1  0.32369165  0.31237691  0.05087963  1
  O  O553  1  0.32372386  0.31297288  0.29921825  1
  O  O554  1  0.32380725  0.31239677  0.55012323  1
  O  O555  1  0.32347736  0.31402431  0.79964580  1
  O  O556  1  0.32246568  0.64713688  0.05247346  1
  O  O557  1  0.32466480  0.64656467  0.29923855  1
  O  O558  1  0.32346679  0.64595652  0.55035396  1
  O  O559  1  0.32447327  0.64674542  0.79969926  1
  O  O560  1  0.32335851  0.98141091  0.05141634  1
  O  O561  1  0.32320286  0.97913295  0.30026311  1
  O  O562  1  0.32396472  0.98014581  0.54858074  1
  O  O563  1  0.32414224  0.98111508  0.79977889  1
  O  O564  1  0.82193848  0.31391899  0.05273323  1
  O  O565  1  0.82148409  0.31334481  0.30110239  1
  O  O566  1  0.82342033  0.31173836  0.54917945  1
  O  O567  1  0.82326853  0.31345335  0.79934045  1
  O  O568  1  0.82294271  0.64692098  0.05083706  1
  O  O569  1  0.82303004  0.64768862  0.30102085  1
  O  O570  1  0.82364305  0.64533124  0.55058755  1
  O  O571  1  0.82294493  0.64878165  0.80080215  1
  O  O572  1  0.82308290  0.98118353  0.05085935  1
  O  O573  1  0.82310735  0.97969090  0.30095380  1
  O  O574  1  0.82090979  0.97990503  0.55139064  1
  O  O575  1  0.82286811  0.97939497  0.79982185  1
  O  O576  1  0.42679468  0.14723557  0.17374642  1
  O  O577  1  0.42772612  0.14745692  0.42581820  1
  O  O578  1  0.42774668  0.14765012  0.67552389  1
  O  O579  1  0.42863643  0.14763117  0.92673388  1
  O  O580  1  0.42900813  0.48048024  0.17545272  1
  O  O581  1  0.42747707  0.48128318  0.42536527  1
  O  O582  1  0.42740072  0.47830745  0.67585852  1
  O  O583  1  0.42830249  0.47986068  0.92687628  1
  O  O584  1  0.42756455  0.81509640  0.17480810  1
  O  O585  1  0.42757688  0.81442395  0.42545658  1
  O  O586  1  0.42681817  0.81330561  0.67420826  1
  O  O587  1  0.42677716  0.81227097  0.92513904  1
  O  O588  1  0.92662584  0.14723655  0.17602933  1
  O  O589  1  0.92681474  0.14510961  0.42517803  1
  O  O590  1  0.92576386  0.14566209  0.67418002  1
  O  O591  1  0.92687357  0.14719987  0.92688184  1
  O  O592  1  0.92734779  0.48026117  0.17722356  1
  O  O593  1  0.92550783  0.47934954  0.42467406  1
  O  O594  1  0.92620399  0.47931011  0.67527381  1
  O  O595  1  0.92562654  0.48053366  0.92467388  1
  O  O596  1  0.92658547  0.81560739  0.17706591  1
  O  O597  1  0.92819699  0.81337768  0.42822856  1
  O  O598  1  0.92777592  0.81414456  0.67636791  1
  O  O599  1  0.92653099  0.81499485  0.92582386  1
  O  O600  1  0.07218457  0.18553267  0.07478857  1
  O  O601  1  0.07211499  0.18518465  0.32309507  1
  O  O602  1  0.07367098  0.18648912  0.57582508  1
  O  O603  1  0.07272367  0.18747474  0.82507360  1
  O  O604  1  0.07286292  0.52002375  0.07566682  1
  O  O605  1  0.07272792  0.51909483  0.32485967  1
  O  O606  1  0.07212531  0.52106129  0.57608841  1
  O  O607  1  0.07311179  0.52172985  0.82528333  1
  O  O608  1  0.07224550  0.85337181  0.07377854  1
  O  O609  1  0.07228912  0.85139269  0.32464576  1
  O  O610  1  0.07140695  0.85251125  0.57316090  1
  O  O611  1  0.07331433  0.85264297  0.82479525  1
  O  O612  1  0.57148067  0.18679246  0.07313358  1
  O  O613  1  0.57319312  0.18779343  0.32355215  1
  O  O614  1  0.57339799  0.18518628  0.57357179  1
  O  O615  1  0.57279487  0.18655280  0.82398006  1
  O  O616  1  0.57166505  0.51943132  0.07329917  1
  O  O617  1  0.57347937  0.51861161  0.32300823  1
  O  O618  1  0.57324006  0.51739285  0.57370307  1
  O  O619  1  0.57421158  0.51949240  0.82640647  1
  O  O620  1  0.57396172  0.85465034  0.07435463  1
  O  O621  1  0.57335169  0.85264133  0.32425095  1
  O  O622  1  0.57281310  0.85323917  0.57284930  1
  O  O623  1  0.57394772  0.85333469  0.82515135  1
  O  O624  1  0.32292443  0.18521698  0.05120182  1
  O  O625  1  0.32375897  0.18603993  0.29931009  1
  O  O626  1  0.32313740  0.18515195  0.55099058  1
  O  O627  1  0.32388818  0.18715694  0.80020533  1
  O  O628  1  0.32238797  0.51953202  0.05222931  1
  O  O629  1  0.32405369  0.51988507  0.29921268  1
  O  O630  1  0.32355701  0.51855860  0.55089955  1
  O  O631  1  0.32457930  0.51993825  0.80082213  1
  O  O632  1  0.32383940  0.85431079  0.05037119  1
  O  O633  1  0.32297313  0.85196192  0.30009438  1
  O  O634  1  0.32384187  0.85332956  0.54960019  1
  O  O635  1  0.32453764  0.85405310  0.80006159  1
  O  O636  1  0.82176703  0.18657044  0.05242347  1
  O  O637  1  0.82171544  0.18603399  0.30049782  1
  O  O638  1  0.82306345  0.18481649  0.55002624  1
  O  O639  1  0.82372810  0.18653425  0.80012291  1
  O  O640  1  0.82352786  0.51980701  0.05086443  1
  O  O641  1  0.82332452  0.52063232  0.30058849  1
  O  O642  1  0.82242805  0.51812396  0.55058662  1
  O  O643  1  0.82329244  0.52167317  0.80065203  1
  O  O644  1  0.82255906  0.85408120  0.05070269  1
  O  O645  1  0.82283935  0.85265228  0.30129529  1
  O  O646  1  0.82215790  0.85253723  0.55144863  1
  O  O647  1  0.82290279  0.85254974  0.80082468  1
  O  O648  1  0.17781813  0.14655658  0.19810330  1
  O  O649  1  0.17571107  0.14668287  0.44917557  1
  O  O650  1  0.17651010  0.14858546  0.69904246  1
  O  O651  1  0.17614175  0.14666732  0.95123325  1
  O  O652  1  0.17716789  0.48134243  0.19942791  1
  O  O653  1  0.17584014  0.47993662  0.44998746  1
  O  O654  1  0.17680024  0.48171657  0.69927099  1
  O  O655  1  0.17611442  0.48035292  0.95063292  1
  O  O656  1  0.17649182  0.81242493  0.19955452  1
  O  O657  1  0.17676831  0.81417877  0.44866870  1
  O  O658  1  0.17607591  0.81366026  0.70013119  1
  O  O659  1  0.17675114  0.81355755  0.95127210  1
  O  O660  1  0.67751152  0.14705740  0.19802688  1
  O  O661  1  0.67679375  0.14716506  0.44881153  1
  O  O662  1  0.67765000  0.14694099  0.69776692  1
  O  O663  1  0.67696936  0.14725005  0.95082365  1
  O  O664  1  0.67800140  0.48057083  0.19864519  1
  O  O665  1  0.67670718  0.47817756  0.44882080  1
  O  O666  1  0.67732695  0.48171442  0.69856922  1
  O  O667  1  0.67620833  0.48002320  0.95084005  1
  O  O668  1  0.67598937  0.81324419  0.20069479  1
  O  O669  1  0.67831195  0.81319362  0.44808838  1
  O  O670  1  0.67664620  0.81462586  0.69875582  1
  O  O671  1  0.67773737  0.81410478  0.94847689  1
