# generated using pymatgen
data_Na2MnFe(PO4)2
_symmetry_space_group_name_H-M   'P 1'
_cell_length_a   22.34520939
_cell_length_b   20.09822870
_cell_length_c   19.44737242
_cell_angle_alpha   89.97010094
_cell_angle_beta   89.98513030
_cell_angle_gamma   89.98587923
_symmetry_Int_Tables_number   1
_chemical_formula_structural   Na2MnFe(PO4)2
_chemical_formula_sum   'Na96 Mn48 Fe48 P96 O384'
_cell_volume   8733.79625843
_cell_formula_units_Z   48
loop_
 _symmetry_equiv_pos_site_id
 _symmetry_equiv_pos_as_xyz
  1  'x, y, z'
loop_
 _atom_site_type_symbol
 _atom_site_label
 _atom_site_symmetry_multiplicity
 _atom_site_fract_x
 _atom_site_fract_y
 _atom_site_fract_z
 _atom_site_occupancy
  Na  Na0  1  0.14031954  0.25009643  0.24439792  1
  Na  Na1  1  0.14086769  0.24938134  0.49452763  1
  Na  Na2  1  0.14040126  0.25051095  0.74477924  1
  Na  Na3  1  0.14007639  0.25040538  0.99239425  1
  Na  Na4  1  0.14033746  0.58343250  0.24624279  1
  Na  Na5  1  0.14008971  0.58360334  0.49375409  1
  Na  Na6  1  0.14087176  0.58443236  0.74417612  1
  Na  Na7  1  0.14063879  0.58266950  0.99356351  1
  Na  Na8  1  0.14044898  0.91734300  0.24461778  1
  Na  Na9  1  0.14080905  0.91705825  0.49373562  1
  Na  Na10  1  0.14087029  0.91792029  0.74376252  1
  Na  Na11  1  0.14051496  0.91712182  0.99279359  1
  Na  Na12  1  0.63979355  0.24923366  0.24401410  1
  Na  Na13  1  0.64031923  0.24945723  0.49335626  1
  Na  Na14  1  0.64056140  0.24998088  0.74267297  1
  Na  Na15  1  0.63948217  0.24957154  0.99326034  1
  Na  Na16  1  0.64045296  0.58355332  0.24382348  1
  Na  Na17  1  0.64042616  0.58364658  0.49338010  1
  Na  Na18  1  0.64016010  0.58370146  0.74267287  1
  Na  Na19  1  0.64040495  0.58287610  0.99346931  1
  Na  Na20  1  0.64033250  0.91647352  0.24422269  1
  Na  Na21  1  0.64028609  0.91661624  0.49202929  1
  Na  Na22  1  0.64027378  0.91770676  0.74161201  1
  Na  Na23  1  0.64047859  0.91545943  0.99369669  1
  Na  Na24  1  0.36066794  0.08394183  0.00577411  1
  Na  Na25  1  0.36044248  0.08350030  0.25749383  1
  Na  Na26  1  0.36062630  0.08268727  0.50692310  1
  Na  Na27  1  0.36071866  0.08459934  0.75735776  1
  Na  Na28  1  0.36018569  0.41604357  0.00586735  1
  Na  Na29  1  0.36003498  0.41652874  0.25744169  1
  Na  Na30  1  0.35952942  0.41611737  0.50549870  1
  Na  Na31  1  0.35963636  0.41685939  0.75807486  1
  Na  Na32  1  0.35981348  0.74981669  0.00472562  1
  Na  Na33  1  0.35953915  0.75033499  0.25672506  1
  Na  Na34  1  0.35987973  0.74980352  0.50599508  1
  Na  Na35  1  0.35986938  0.75045339  0.75634354  1
  Na  Na36  1  0.85967625  0.08197835  0.00580957  1
  Na  Na37  1  0.85930797  0.08227841  0.25734292  1
  Na  Na38  1  0.85902144  0.08296693  0.50694383  1
  Na  Na39  1  0.85939640  0.08436886  0.75541695  1
  Na  Na40  1  0.85937033  0.41629287  0.00568881  1
  Na  Na41  1  0.85952039  0.41623493  0.25720999  1
  Na  Na42  1  0.85904210  0.41675691  0.50682366  1
  Na  Na43  1  0.85933551  0.41700205  0.75603238  1
  Na  Na44  1  0.85891088  0.74917456  0.00551839  1
  Na  Na45  1  0.85841517  0.74945563  0.25678062  1
  Na  Na46  1  0.85900504  0.74976617  0.50653380  1
  Na  Na47  1  0.85936371  0.75080186  0.75495674  1
  Na  Na48  1  0.10954611  0.08422319  0.11898085  1
  Na  Na49  1  0.11019944  0.08370185  0.36921235  1
  Na  Na50  1  0.11043687  0.08463733  0.61943921  1
  Na  Na51  1  0.10971991  0.08319030  0.86806956  1
  Na  Na52  1  0.10969392  0.41633161  0.11983618  1
  Na  Na53  1  0.10936810  0.41755187  0.36966962  1
  Na  Na54  1  0.10976227  0.41724753  0.61978371  1
  Na  Na55  1  0.10991464  0.41523882  0.86834312  1
  Na  Na56  1  0.10952145  0.75083088  0.11933104  1
  Na  Na57  1  0.10958920  0.74936944  0.37006359  1
  Na  Na58  1  0.10973148  0.75111855  0.61839894  1
  Na  Na59  1  0.10964126  0.75001430  0.86871027  1
  Na  Na60  1  0.60931162  0.08418242  0.11992962  1
  Na  Na61  1  0.60999871  0.08407061  0.36852546  1
  Na  Na62  1  0.60988829  0.08235269  0.61697335  1
  Na  Na63  1  0.60958014  0.08321242  0.86834606  1
  Na  Na64  1  0.60931926  0.41545268  0.11944834  1
  Na  Na65  1  0.60936654  0.41601371  0.36819874  1
  Na  Na66  1  0.60985284  0.41633840  0.61842696  1
  Na  Na67  1  0.60962802  0.41527777  0.86709330  1
  Na  Na68  1  0.61014545  0.75063602  0.11810526  1
  Na  Na69  1  0.61000899  0.75096984  0.36725217  1
  Na  Na70  1  0.60935534  0.75063040  0.61746460  1
  Na  Na71  1  0.60976790  0.74939230  0.86746245  1
  Na  Na72  1  0.39092710  0.24976808  0.13101529  1
  Na  Na73  1  0.39038950  0.24857799  0.38164560  1
  Na  Na74  1  0.39049967  0.24846222  0.63232298  1
  Na  Na75  1  0.39087738  0.24872540  0.88212473  1
  Na  Na76  1  0.39037705  0.58242075  0.13123993  1
  Na  Na77  1  0.39015125  0.58324054  0.38156672  1
  Na  Na78  1  0.39048998  0.58314228  0.63174208  1
  Na  Na79  1  0.39031660  0.58225221  0.88129498  1
  Na  Na80  1  0.39064486  0.91880651  0.13064582  1
  Na  Na81  1  0.39091582  0.91813275  0.38241212  1
  Na  Na82  1  0.39069557  0.91676428  0.63109601  1
  Na  Na83  1  0.39110811  0.91861438  0.88065728  1
  Na  Na84  1  0.89027183  0.25005769  0.13056092  1
  Na  Na85  1  0.89036757  0.25026364  0.38234104  1
  Na  Na86  1  0.88980002  0.25020000  0.63177396  1
  Na  Na87  1  0.88985161  0.24937968  0.88032606  1
  Na  Na88  1  0.88976024  0.58279258  0.13150507  1
  Na  Na89  1  0.88936060  0.58331582  0.38256989  1
  Na  Na90  1  0.88997640  0.58304330  0.63083554  1
  Na  Na91  1  0.89016370  0.58275562  0.88116909  1
  Na  Na92  1  0.88995634  0.91673266  0.13112911  1
  Na  Na93  1  0.88941505  0.91619085  0.38242507  1
  Na  Na94  1  0.88982623  0.91786383  0.63062526  1
  Na  Na95  1  0.89021747  0.91616351  0.87967664  1
  Mn  Mn96  1  0.25022969  0.33330268  0.12522405  1
  Mn  Mn97  1  -0.00033724  0.66660080  0.00011912  1
  Mn  Mn98  1  0.25031746  0.00075156  0.62504071  1
  Mn  Mn99  1  0.49930088  0.66681001  0.24942535  1
  Mn  Mn100  1  0.74919591  0.16714174  0.87443132  1
  Mn  Mn101  1  0.00024790  0.66710376  0.75024443  1
  Mn  Mn102  1  0.25027588  0.83395947  0.87487828  1
  Mn  Mn103  1  0.49952585  0.83507775  0.24900094  1
  Mn  Mn104  1  0.50069692  0.83365245  0.74942637  1
  Mn  Mn105  1  0.74970143  0.50021141  0.87482756  1
  Mn  Mn106  1  -0.00012879  0.16656894  0.00007625  1
  Mn  Mn107  1  -0.00044490  0.66633031  0.25041140  1
  Mn  Mn108  1  0.24984136  0.33269071  0.37586017  1
  Mn  Mn109  1  0.50078627  0.49860666  0.00013988  1
  Mn  Mn110  1  0.25026871  0.83336240  0.37485383  1
  Mn  Mn111  1  -0.00021442  0.49940018  0.25062683  1
  Mn  Mn112  1  0.00050201  0.49938199  0.75037656  1
  Mn  Mn113  1  0.25003579  0.33269556  0.62593096  1
  Mn  Mn114  1  0.00008112  0.83397639  0.50014416  1
  Mn  Mn115  1  0.50042647  0.66636557  -0.00051583  1
  Mn  Mn116  1  0.00029065  0.49826757  0.00095773  1
  Mn  Mn117  1  -0.00027967  0.00041428  0.25006989  1
  Mn  Mn118  1  0.24984919  0.00073740  0.12465157  1
  Mn  Mn119  1  0.25034619  0.83373944  0.12492333  1
  Mn  Mn120  1  0.74956610  0.33297660  0.37574107  1
  Mn  Mn121  1  0.74989757  0.33271380  0.12579457  1
  Mn  Mn122  1  0.75000600  0.83251423  0.87404700  1
  Mn  Mn123  1  0.49961522  0.83498016  -0.00131612  1
  Mn  Mn124  1  -0.00080756  0.16773286  0.24942694  1
  Mn  Mn125  1  0.25090722  0.66738549  0.62502617  1
  Mn  Mn126  1  0.00056007  0.33405302  0.50097492  1
  Mn  Mn127  1  0.00061379  0.16682586  0.50040022  1
  Mn  Mn128  1  0.75032713  0.16577684  0.12497428  1
  Mn  Mn129  1  0.74917708  0.50034033  0.12517629  1
  Mn  Mn130  1  0.50012072  0.33190916  0.74972733  1
  Mn  Mn131  1  0.50083182  0.66701163  0.49961535  1
  Mn  Mn132  1  0.74911700  -0.00169091  0.12589434  1
  Mn  Mn133  1  0.74998838  -0.00042852  0.87414726  1
  Mn  Mn134  1  0.25028096  0.66643628  0.12530558  1
  Mn  Mn135  1  -0.00079967  0.83408995  -0.00016118  1
  Mn  Mn136  1  0.00013032  0.00024546  0.74979910  1
  Mn  Mn137  1  0.49925557  0.33208785  0.49989616  1
  Mn  Mn138  1  0.49988082  0.49956286  0.49988510  1
  Mn  Mn139  1  -0.00031412  0.83354363  0.25067746  1
  Mn  Mn140  1  0.25027832  0.50030484  0.62574156  1
  Mn  Mn141  1  0.74969298  0.66710421  0.62395630  1
  Mn  Mn142  1  0.24977203  0.16645793  0.12467790  1
  Mn  Mn143  1  0.25034562  0.49993530  0.12502382  1
  Fe  Fe144  1  0.74952706  0.66659866  0.87433377  1
  Fe  Fe145  1  0.50097465  0.00136469  0.00014318  1
  Fe  Fe146  1  0.00007548  -0.00008722  -0.00087801  1
  Fe  Fe147  1  0.49976108  0.16673685  0.24994308  1
  Fe  Fe148  1  0.75024084  0.83241656  0.12530682  1
  Fe  Fe149  1  0.25040286  -0.00008415  0.37563505  1
  Fe  Fe150  1  0.50090885  0.16552179  0.75066631  1
  Fe  Fe151  1  0.00021850  0.00071743  0.50051701  1
  Fe  Fe152  1  0.25011544  0.50041039  0.87533271  1
  Fe  Fe153  1  0.74976611  0.00023793  0.62354707  1
  Fe  Fe154  1  0.50003326  0.49928355  0.24982458  1
  Fe  Fe155  1  0.25088357  0.00084863  0.87428952  1
  Fe  Fe156  1  -0.00032453  0.16648674  0.75015453  1
  Fe  Fe157  1  0.49993770  0.49913153  0.74984163  1
  Fe  Fe158  1  -0.00069095  0.50013279  0.50043087  1
  Fe  Fe159  1  0.74983293  0.16693078  0.62445096  1
  Fe  Fe160  1  -0.00030797  0.66694968  0.50052615  1
  Fe  Fe161  1  0.24987895  0.50000880  0.37575243  1
  Fe  Fe162  1  0.50006243  0.33263097  0.00015614  1
  Fe  Fe163  1  0.74978864  0.66651328  0.12511463  1
  Fe  Fe164  1  0.74974617  0.83296118  0.37464649  1
  Fe  Fe165  1  0.74919639  0.83347580  0.62393335  1
  Fe  Fe166  1  0.74969709  0.33399054  0.62433431  1
  Fe  Fe167  1  0.24994011  0.66683150  0.37562804  1
  Fe  Fe168  1  0.74933937  0.50000318  0.37547074  1
  Fe  Fe169  1  0.25024403  0.16711610  0.87500019  1
  Fe  Fe170  1  0.25074454  0.16685894  0.62603147  1
  Fe  Fe171  1  0.50066607  0.00035020  0.74955735  1
  Fe  Fe172  1  -0.00035043  0.33366821  0.25074946  1
  Fe  Fe173  1  -0.00020221  0.33252663  -0.00036560  1
  Fe  Fe174  1  0.50050853  0.16598241  0.50000136  1
  Fe  Fe175  1  0.24991419  0.66727276  0.87511105  1
  Fe  Fe176  1  0.25016947  0.83381217  0.62508531  1
  Fe  Fe177  1  0.75046150  0.16647373  0.37579561  1
  Fe  Fe178  1  0.74957448  0.66674131  0.37461273  1
  Fe  Fe179  1  0.74981404  0.50050311  0.62479260  1
  Fe  Fe180  1  0.49987364  0.83377996  0.49956110  1
  Fe  Fe181  1  0.25063377  0.33340589  0.87498357  1
  Fe  Fe182  1  0.50020866  0.00105742  0.25054840  1
  Fe  Fe183  1  0.75005995  -0.00059725  0.37541442  1
  Fe  Fe184  1  0.00034427  0.83389542  0.74926557  1
  Fe  Fe185  1  0.50050569  0.16655580  0.00072184  1
  Fe  Fe186  1  -0.00055798  0.33283352  0.74984122  1
  Fe  Fe187  1  0.74985927  0.33361224  0.87419799  1
  Fe  Fe188  1  0.50033355  0.00052589  0.50008817  1
  Fe  Fe189  1  0.49990465  0.33253084  0.24998021  1
  Fe  Fe190  1  0.25042707  0.16596087  0.37527778  1
  Fe  Fe191  1  0.49941743  0.66629529  0.74934678  1
  P  P192  1  0.04245852  0.25157720  0.10271333  1
  P  P193  1  0.04226584  0.25143367  0.35274250  1
  P  P194  1  0.04288777  0.25017689  0.60455465  1
  P  P195  1  0.04094090  0.24969365  0.85187396  1
  P  P196  1  0.04293461  0.58289098  0.10352383  1
  P  P197  1  0.04186065  0.58326434  0.35479057  1
  P  P198  1  0.04129418  0.58326990  0.60182556  1
  P  P199  1  0.04315206  0.58285941  0.85339242  1
  P  P200  1  0.04251527  0.91837889  0.10215551  1
  P  P201  1  0.04259221  0.91727371  0.35402493  1
  P  P202  1  0.04259849  0.91852311  0.60273280  1
  P  P203  1  0.04243390  0.91582695  0.85222547  1
  P  P204  1  0.54152068  0.24992860  0.10248627  1
  P  P205  1  0.54116306  0.24935837  0.35186657  1
  P  P206  1  0.54218247  0.24774555  0.60267073  1
  P  P207  1  0.54257769  0.24804472  0.85307915  1
  P  P208  1  0.54258215  0.58240690  0.10345184  1
  P  P209  1  0.54185831  0.58222137  0.35179498  1
  P  P210  1  0.54243098  0.58307917  0.60376785  1
  P  P211  1  0.54134316  0.58257648  0.85098558  1
  P  P212  1  0.54234296  0.91910490  0.10240543  1
  P  P213  1  0.54188966  0.91859204  0.35306386  1
  P  P214  1  0.54143772  0.91676071  0.60112999  1
  P  P215  1  0.54274990  0.91868168  0.85198586  1
  P  P216  1  0.45882589  0.08374461  0.14815072  1
  P  P217  1  0.45906964  0.08358195  0.39805597  1
  P  P218  1  0.45920494  0.08312611  0.64792438  1
  P  P219  1  0.45930234  0.08390283  0.89809017  1
  P  P220  1  0.45852902  0.41546563  0.14830079  1
  P  P221  1  0.45750080  0.41589044  0.39591587  1
  P  P222  1  0.45744728  0.41676555  0.64786941  1
  P  P223  1  0.45854336  0.41467718  0.89714316  1
  P  P224  1  0.45689539  0.75091618  0.14616589  1
  P  P225  1  0.45808860  0.75166553  0.39730640  1
  P  P226  1  0.45810690  0.74944526  0.64693427  1
  P  P227  1  0.45781717  0.74984928  0.89565714  1
  P  P228  1  0.95658977  0.08343739  0.14625859  1
  P  P229  1  0.95739830  0.08263930  0.39802394  1
  P  P230  1  0.95781710  0.08449281  0.64723014  1
  P  P231  1  0.95766151  0.08236929  0.89682352  1
  P  P232  1  0.95732945  0.41467837  0.14764176  1
  P  P233  1  0.95724238  0.41765036  0.39798142  1
  P  P234  1  0.95777928  0.41586935  0.64756218  1
  P  P235  1  0.95776189  0.41443673  0.89710516  1
  P  P236  1  0.95658248  0.75031534  0.14727824  1
  P  P237  1  0.95731398  0.74904823  0.39829750  1
  P  P238  1  0.95819517  0.75128837  0.64690667  1
  P  P239  1  0.95704079  0.75040231  0.89610396  1
  P  P240  1  0.20751282  0.08344187  0.22916686  1
  P  P241  1  0.20909090  0.08346312  0.47734351  1
  P  P242  1  0.20862664  0.08511727  0.72858201  1
  P  P243  1  0.20856796  0.08370208  0.97590578  1
  P  P244  1  0.20777061  0.41697736  0.22915787  1
  P  P245  1  0.20764228  0.41749362  0.47805202  1
  P  P246  1  0.20783055  0.41671143  0.72965115  1
  P  P247  1  0.20887493  0.41643454  0.97633551  1
  P  P248  1  0.20738076  0.74993298  0.22881225  1
  P  P249  1  0.20801560  0.74948039  0.47810205  1
  P  P250  1  0.20805238  0.75163666  0.72775464  1
  P  P251  1  0.20754757  0.74920683  0.97738848  1
  P  P252  1  0.70772870  0.08269180  0.22958673  1
  P  P253  1  0.70902139  0.08301581  0.47714284  1
  P  P254  1  0.70866791  0.08350138  0.72541362  1
  P  P255  1  0.70714812  0.08258614  0.97776514  1
  P  P256  1  0.70720687  0.41687633  0.22909197  1
  P  P257  1  0.70751167  0.41787202  0.47832092  1
  P  P258  1  0.70858879  0.41681301  0.72635720  1
  P  P259  1  0.70726830  0.41528835  0.97698263  1
  P  P260  1  0.70815228  0.74964452  0.22717072  1
  P  P261  1  0.70834125  0.75014828  0.47610743  1
  P  P262  1  0.70717027  0.75111370  0.72644312  1
  P  P263  1  0.70740459  0.74817275  0.97748115  1
  P  P264  1  0.29253617  0.25006633  0.02088906  1
  P  P265  1  0.29232194  0.24865568  0.27306152  1
  P  P266  1  0.29241517  0.24811726  0.52283997  1
  P  P267  1  0.29207649  0.24994668  0.77364704  1
  P  P268  1  0.29299915  0.58330314  0.02101918  1
  P  P269  1  0.29169023  0.58343864  0.27417559  1
  P  P270  1  0.29286783  0.58328003  0.52134508  1
  P  P271  1  0.29152816  0.58417159  0.77381209  1
  P  P272  1  0.29298497  0.91750721  0.02090118  1
  P  P273  1  0.29288816  0.91832065  0.27293000  1
  P  P274  1  0.29220893  0.91593705  0.52240800  1
  P  P275  1  0.29270441  0.91837719  0.77199217  1
  P  P276  1  0.79230631  0.25007015  0.02125828  1
  P  P277  1  0.79227573  0.24852576  0.27337648  1
  P  P278  1  0.79106851  0.25011466  0.52315608  1
  P  P279  1  0.79130516  0.25167996  0.77111105  1
  P  P280  1  0.79186769  0.58445023  0.02234581  1
  P  P281  1  0.79093067  0.58337720  0.27352283  1
  P  P282  1  0.79165547  0.58213961  0.52171769  1
  P  P283  1  0.79192095  0.58458633  0.77188824  1
  P  P284  1  0.79199503  0.91446876  0.02263932  1
  P  P285  1  0.79115782  0.91582746  0.27359258  1
  P  P286  1  0.79073499  0.91632410  0.52220702  1
  P  P287  1  0.79224530  0.91663322  0.76996155  1
  O  O288  1  0.03709340  0.25162407  0.18267816  1
  O  O289  1  0.03751146  0.25104627  0.43275690  1
  O  O290  1  0.03727991  0.24977147  0.68444029  1
  O  O291  1  0.03595803  0.25014398  0.93187713  1
  O  O292  1  0.03767667  0.58268810  0.18352828  1
  O  O293  1  0.03637356  0.58341272  0.43471409  1
  O  O294  1  0.03650672  0.58325948  0.68186508  1
  O  O295  1  0.03815376  0.58272065  0.93334433  1
  O  O296  1  0.03753754  0.91803173  0.18216692  1
  O  O297  1  0.03751632  0.91782542  0.43399927  1
  O  O298  1  0.03736746  0.91762456  0.68268058  1
  O  O299  1  0.03706669  0.91661058  0.93215054  1
  O  O300  1  0.53611684  0.25041977  0.18235026  1
  O  O301  1  0.53636613  0.24854516  0.43184196  1
  O  O302  1  0.53723327  0.24762335  0.68263530  1
  O  O303  1  0.53725423  0.24846328  0.93296610  1
  O  O304  1  0.53695893  0.58196549  0.18333963  1
  O  O305  1  0.53718922  0.58252126  0.43183153  1
  O  O306  1  0.53671962  0.58312037  0.68366316  1
  O  O307  1  0.53677156  0.58244510  0.93105557  1
  O  O308  1  0.53676272  0.91917747  0.18234164  1
  O  O309  1  0.53643647  0.91761081  0.43293662  1
  O  O310  1  0.53704166  0.91702875  0.68109558  1
  O  O311  1  0.53744391  0.91903523  0.93191245  1
  O  O312  1  0.46417907  0.08413961  0.06830419  1
  O  O313  1  0.46365390  0.08333724  0.31819454  1
  O  O314  1  0.46415633  0.08319906  0.56802825  1
  O  O315  1  0.46466149  0.08403534  0.81822971  1
  O  O316  1  0.46365702  0.41516066  0.06828049  1
  O  O317  1  0.46304025  0.41590817  0.31602585  1
  O  O318  1  0.46225122  0.41656957  0.56786460  1
  O  O319  1  0.46373448  0.41542033  0.81719746  1
  O  O320  1  0.46215243  0.75084580  0.06619290  1
  O  O321  1  0.46285105  0.75167239  0.31731100  1
  O  O322  1  0.46343394  0.75006050  0.56696926  1
  O  O323  1  0.46330280  0.74924451  0.81568857  1
  O  O324  1  0.96184091  0.08284092  0.06627244  1
  O  O325  1  0.96217595  0.08321545  0.31801740  1
  O  O326  1  0.96320539  0.08384777  0.56731820  1
  O  O327  1  0.96299573  0.08320309  0.81685644  1
  O  O328  1  0.96252608  0.41439936  0.06765355  1
  O  O329  1  0.96233181  0.41683097  0.31800604  1
  O  O330  1  0.96293920  0.41695173  0.56762649  1
  O  O331  1  0.96312955  0.41453197  0.81715006  1
  O  O332  1  0.96152400  0.75038184  0.06727601  1
  O  O333  1  0.96195319  0.74933453  0.31830597  1
  O  O334  1  0.96390529  0.75040011  0.56698933  1
  O  O335  1  0.96261047  0.75111375  0.81614705  1
  O  O336  1  0.21295544  0.08362881  0.05597486  1
  O  O337  1  0.21277846  0.08325243  0.30910545  1
  O  O338  1  0.21374316  0.08365198  0.55733504  1
  O  O339  1  0.21397611  0.08467819  0.80844452  1
  O  O340  1  0.21358040  0.41650028  0.05639181  1
  O  O341  1  0.21295456  0.41729453  0.30911531  1
  O  O342  1  0.21277570  0.41712929  0.55803500  1
  O  O343  1  0.21326250  0.41666220  0.80953610  1
  O  O344  1  0.21271211  0.74964102  0.05736652  1
  O  O345  1  0.21266548  0.74953722  0.30881061  1
  O  O346  1  0.21348460  0.75046793  0.55802714  1
  O  O347  1  0.21321523  0.75086097  0.80769654  1
  O  O348  1  0.71219098  0.08233185  0.05773408  1
  O  O349  1  0.71328590  0.08281877  0.30948100  1
  O  O350  1  0.71415295  0.08317896  0.55706235  1
  O  O351  1  0.71290407  0.08333580  0.80543059  1
  O  O352  1  0.71222098  0.41565874  0.05697896  1
  O  O353  1  0.71235729  0.41729145  0.30904330  1
  O  O354  1  0.71316618  0.41775340  0.55820714  1
  O  O355  1  0.71356225  0.41662271  0.80635683  1
  O  O356  1  0.71264934  0.74828458  0.05735816  1
  O  O357  1  0.71347974  0.74954980  0.30706450  1
  O  O358  1  0.71316997  0.75093178  0.55603912  1
  O  O359  1  0.71218704  0.75039318  0.80634731  1
  O  O360  1  0.28727997  0.24905538  0.19307089  1
  O  O361  1  0.28698664  0.24801632  0.44292062  1
  O  O362  1  0.28713928  0.24951668  0.69365433  1
  O  O363  1  0.28736771  0.25016831  0.94095022  1
  O  O364  1  0.28692697  0.58333224  0.19412141  1
  O  O365  1  0.28735622  0.58317252  0.44146248  1
  O  O366  1  0.28698768  0.58390839  0.69377499  1
  O  O367  1  0.28777758  0.58346013  0.94109737  1
  O  O368  1  0.28812000  0.91827067  0.19291253  1
  O  O369  1  0.28688046  0.91668292  0.44248327  1
  O  O370  1  0.28730211  0.91787808  0.69205886  1
  O  O371  1  0.28778504  0.91805253  0.94091265  1
  O  O372  1  0.78733132  0.24869728  0.19339373  1
  O  O373  1  0.78616071  0.24937974  0.44318405  1
  O  O374  1  0.78573735  0.25171200  0.69124751  1
  O  O375  1  0.78695263  0.25074662  0.94128479  1
  O  O376  1  0.78589379  0.58406429  0.19352710  1
  O  O377  1  0.78634563  0.58199980  0.44187926  1
  O  O378  1  0.78683953  0.58386995  0.69194296  1
  O  O379  1  0.78675202  0.58439692  0.94237194  1
  O  O380  1  0.78631081  0.91509315  0.19364121  1
  O  O381  1  0.78590166  0.91670869  0.44230438  1
  O  O382  1  0.78684191  0.91687305  0.69007272  1
  O  O383  1  0.78697123  0.91480525  0.94265741  1
  O  O384  1  0.22822991  0.25022631  0.05643671  1
  O  O385  1  0.22803443  0.24834418  0.30864092  1
  O  O386  1  0.22820323  0.24819070  0.55875980  1
  O  O387  1  0.22788209  0.25038157  0.80955009  1
  O  O388  1  0.22869072  0.58321045  0.05659931  1
  O  O389  1  0.22751406  0.58372509  0.31007459  1
  O  O390  1  0.22866977  0.58372509  0.55714900  1
  O  O391  1  0.22730111  0.58453562  0.80940983  1
  O  O392  1  0.22861215  0.91705540  0.05624622  1
  O  O393  1  0.22845330  0.91810061  0.30806950  1
  O  O394  1  0.22806387  0.91584512  0.55840606  1
  O  O395  1  0.22850003  0.91871556  0.80779560  1
  O  O396  1  0.72804158  0.24962009  0.05683076  1
  O  O397  1  0.72787629  0.24845126  0.30869218  1
  O  O398  1  0.72692133  0.25081059  0.55897795  1
  O  O399  1  0.72726963  0.25191017  0.80756846  1
  O  O400  1  0.72758093  0.58481617  0.05807028  1
  O  O401  1  0.72678753  0.58336007  0.30957452  1
  O  O402  1  0.72751538  0.58240764  0.55779061  1
  O  O403  1  0.72762003  0.58467457  0.80758714  1
  O  O404  1  0.72768944  0.91388311  0.05829967  1
  O  O405  1  0.72700730  0.91668609  0.30952500  1
  O  O406  1  0.72662747  0.91592996  0.55833565  1
  O  O407  1  0.72804724  0.91642667  0.80579487  1
  O  O408  1  0.27183775  0.08352406  0.19364591  1
  O  O409  1  0.27330867  0.08370287  0.44156313  1
  O  O410  1  0.27276776  0.08493200  0.69243545  1
  O  O411  1  0.27300842  0.08403030  0.94073509  1
  O  O412  1  0.27211991  0.41671394  0.19375886  1
  O  O413  1  0.27190591  0.41726438  0.44250440  1
  O  O414  1  0.27202490  0.41649048  0.69383565  1
  O  O415  1  0.27311357  0.41619367  0.94069557  1
  O  O416  1  0.27176208  0.75021880  0.19348960  1
  O  O417  1  0.27215473  0.74882752  0.44207220  1
  O  O418  1  0.27237511  0.75215781  0.69208306  1
  O  O419  1  0.27188534  0.74897219  0.94182853  1
  O  O420  1  0.77181494  0.08213847  0.19351433  1
  O  O421  1  0.77302773  0.08300037  0.44078163  1
  O  O422  1  0.77294348  0.08350173  0.69012637  1
  O  O423  1  0.77149299  0.08321740  0.94247778  1
  O  O424  1  0.77146298  0.41679579  0.19359568  1
  O  O425  1  0.77159329  0.41770414  0.44208914  1
  O  O426  1  0.77267214  0.41634354  0.69029151  1
  O  O427  1  0.77163390  0.41537758  0.94149772  1
  O  O428  1  0.77218982  0.74961849  0.19063870  1
  O  O429  1  0.77253085  0.74935760  0.44032453  1
  O  O430  1  0.77146906  0.75186015  0.69075206  1
  O  O431  1  0.77160865  0.74784282  0.94132084  1
  O  O432  1  0.02097177  0.08397828  0.18146356  1
  O  O433  1  0.02192562  0.08209117  0.43310977  1
  O  O434  1  0.02200986  0.08511014  0.68305487  1
  O  O435  1  0.02186960  0.08203483  0.93276259  1
  O  O436  1  0.02164794  0.41478591  0.18330410  1
  O  O437  1  0.02157508  0.41870448  0.43349854  1
  O  O438  1  0.02203348  0.41507264  0.68317962  1
  O  O439  1  0.02200762  0.41419058  0.93295247  1
  O  O440  1  0.02112306  0.75026005  0.18208078  1
  O  O441  1  0.02175843  0.74914011  0.43332041  1
  O  O442  1  0.02231656  0.75187387  0.68301877  1
  O  O443  1  0.02126087  0.75046841  0.93171171  1
  O  O444  1  0.52276173  0.08331271  0.18475466  1
  O  O445  1  0.52323013  0.08404404  0.43410773  1
  O  O446  1  0.52340430  0.08309690  0.68398482  1
  O  O447  1  0.52326500  0.08389521  0.93474280  1
  O  O448  1  0.52260941  0.41535277  0.18446150  1
  O  O449  1  0.52161355  0.41549836  0.43189385  1
  O  O450  1  0.52189184  0.41676915  0.68299170  1
  O  O451  1  0.52272070  0.41408666  0.93302257  1
  O  O452  1  0.52125321  0.75077756  0.18134811  1
  O  O453  1  0.52249311  0.75203314  0.43254369  1
  O  O454  1  0.52227814  0.74881597  0.68275499  1
  O  O455  1  0.52200379  0.75056985  0.93129683  1
  O  O456  1  0.47761533  0.24978258  0.06571358  1
  O  O457  1  0.47704025  0.25003219  0.31594861  1
  O  O458  1  0.47784556  0.24738869  0.56713603  1
  O  O459  1  0.47842077  0.24762301  0.81698990  1
  O  O460  1  0.47843327  0.58238370  0.06769969  1
  O  O461  1  0.47749761  0.58217625  0.31660327  1
  O  O462  1  0.47831684  0.58362088  0.56785573  1
  O  O463  1  0.47706196  0.58248524  0.81545569  1
  O  O464  1  0.47820948  0.91965087  0.06629658  1
  O  O465  1  0.47778264  0.91918921  0.31684502  1
  O  O466  1  0.47722892  0.91652470  0.56550216  1
  O  O467  1  0.47853508  0.91850600  0.81618557  1
  O  O468  1  0.97816586  0.25123865  0.06696105  1
  O  O469  1  0.97780409  0.25187235  0.31754266  1
  O  O470  1  0.97868784  0.25017377  0.56881261  1
  O  O471  1  0.97688058  0.24932706  0.81564653  1
  O  O472  1  0.97848992  0.58249433  0.06847419  1
  O  O473  1  0.97767468  0.58290621  0.31895138  1
  O  O474  1  0.97704958  0.58305347  0.56616103  1
  O  O475  1  0.97870026  0.58306484  0.81843494  1
  O  O476  1  0.97801307  0.91887386  0.06697465  1
  O  O477  1  0.97811919  0.91697340  0.31897504  1
  O  O478  1  0.97827675  0.91889874  0.56712799  1
  O  O479  1  0.97821405  0.91521823  0.81638542  1
  O  O480  1  0.07327578  0.31482709  0.07375266  1
  O  O481  1  0.07299796  0.31504499  0.32455226  1
  O  O482  1  0.07410624  0.31364260  0.57643378  1
  O  O483  1  0.07172179  0.31323264  0.82334143  1
  O  O484  1  0.07367415  0.64655884  0.07554849  1
  O  O485  1  0.07290134  0.64674172  0.32638826  1
  O  O486  1  0.07173791  0.64731307  0.57394734  1
  O  O487  1  0.07420696  0.64624657  0.82503006  1
  O  O488  1  0.07330577  0.98180528  0.07344570  1
  O  O489  1  0.07377555  0.98038051  0.32527923  1
  O  O490  1  0.07325491  0.98232824  0.57468558  1
  O  O491  1  0.07348221  0.97938755  0.82409620  1
  O  O492  1  0.57241141  0.31338521  0.07360155  1
  O  O493  1  0.57241719  0.31295854  0.32415560  1
  O  O494  1  0.57261762  0.31182726  0.57486890  1
  O  O495  1  0.57354695  0.31156282  0.82455146  1
  O  O496  1  0.57352016  0.64612494  0.07557096  1
  O  O497  1  0.57287536  0.64594019  0.32407570  1
  O  O498  1  0.57413323  0.64618724  0.57527880  1
  O  O499  1  0.57190429  0.64638795  0.82284776  1
  O  O500  1  0.57381097  0.98220478  0.07401284  1
  O  O501  1  0.57296722  0.98211297  0.32499341  1
  O  O502  1  0.57202074  0.98046163  0.57245945  1
  O  O503  1  0.57361544  0.98189478  0.82285639  1
  O  O504  1  0.42754342  0.02041266  0.17655060  1
  O  O505  1  0.42873560  0.01984485  0.42720307  1
  O  O506  1  0.42849343  0.01934998  0.67640514  1
  O  O507  1  0.42838922  0.02020954  0.92626096  1
  O  O508  1  0.42718713  0.35218233  0.17658673  1
  O  O509  1  0.42607986  0.35259669  0.42436682  1
  O  O510  1  0.42642210  0.35307574  0.67557777  1
  O  O511  1  0.42773174  0.35108143  0.92542907  1
  O  O512  1  0.42576006  0.68746861  0.17434640  1
  O  O513  1  0.42741160  0.68778922  0.42500799  1
  O  O514  1  0.42708367  0.68591747  0.67525645  1
  O  O515  1  0.42682318  0.68654586  0.92427560  1
  O  O516  1  0.92542848  0.02030579  0.17507950  1
  O  O517  1  0.92663191  0.01913490  0.42647560  1
  O  O518  1  0.92668904  0.02098049  0.67520995  1
  O  O519  1  0.92707844  0.01845802  0.92473376  1
  O  O520  1  0.92643463  0.35151955  0.17679191  1
  O  O521  1  0.92660914  0.35395262  0.42633464  1
  O  O522  1  0.92689649  0.35219883  0.67560842  1
  O  O523  1  0.92660022  0.35124229  0.92564184  1
  O  O524  1  0.92562524  0.68680206  0.17542974  1
  O  O525  1  0.92681508  0.68547755  0.42702433  1
  O  O526  1  0.92697847  0.68779036  0.67492443  1
  O  O527  1  0.92629434  0.68650216  0.92383623  1
  O  O528  1  0.17629024  0.02024181  0.20036514  1
  O  O529  1  0.17896758  0.01929652  0.44912879  1
  O  O530  1  0.17710807  0.02191144  0.70021760  1
  O  O531  1  0.17819849  0.01993575  0.94745184  1
  O  O532  1  0.17683260  0.35336562  0.20103833  1
  O  O533  1  0.17628460  0.35394116  0.45050987  1
  O  O534  1  0.17656007  0.35342721  0.70118981  1
  O  O535  1  0.17778355  0.35295744  0.94827358  1
  O  O536  1  0.17615163  0.68669649  0.20048220  1
  O  O537  1  0.17716154  0.68577708  0.45023755  1
  O  O538  1  0.17696645  0.68818858  0.69949821  1
  O  O539  1  0.17677725  0.68565986  0.94915935  1
  O  O540  1  0.67619825  0.01943447  0.20140807  1
  O  O541  1  0.67806910  0.01938865  0.44899041  1
  O  O542  1  0.67807494  0.01988774  0.69669226  1
  O  O543  1  0.67659444  0.01895522  0.94941393  1
  O  O544  1  0.67631407  0.35309201  0.20137040  1
  O  O545  1  0.67610249  0.35425991  0.45071014  1
  O  O546  1  0.67687965  0.35377426  0.69804635  1
  O  O547  1  0.67675003  0.35176399  0.94840834  1
  O  O548  1  0.67711208  0.68617173  0.19878224  1
  O  O549  1  0.67709513  0.68654425  0.44843476  1
  O  O550  1  0.67643925  0.68751965  0.69809221  1
  O  O551  1  0.67652266  0.68488639  0.94832592  1
  O  O552  1  0.32381168  0.31326233  0.04957052  1
  O  O553  1  0.32330326  0.31220862  0.30098937  1
  O  O554  1  0.32339763  0.31194430  0.55043374  1
  O  O555  1  0.32305156  0.31363748  0.80147572  1
  O  O556  1  0.32417218  0.64653551  0.04971140  1
  O  O557  1  0.32259031  0.64715171  0.30204123  1
  O  O558  1  0.32435566  0.64654096  0.54964149  1
  O  O559  1  0.32249474  0.64783470  0.80150076  1
  O  O560  1  0.32397034  0.98082431  0.04945337  1
  O  O561  1  0.32323781  0.98186368  0.30194878  1
  O  O562  1  0.32361374  0.97924238  0.55049125  1
  O  O563  1  0.32343499  0.98208380  0.80020695  1
  O  O564  1  0.82340098  0.31321504  0.05014273  1
  O  O565  1  0.82325355  0.31214970  0.30122752  1
  O  O566  1  0.82231832  0.31371624  0.55075563  1
  O  O567  1  0.82237028  0.31486794  0.80001388  1
  O  O568  1  0.82314067  0.64739847  0.05125349  1
  O  O569  1  0.82191967  0.64680948  0.30213752  1
  O  O570  1  0.82295989  0.64573303  0.54951184  1
  O  O571  1  0.82232801  0.64842705  0.80002587  1
  O  O572  1  0.82262242  0.97826702  0.05058173  1
  O  O573  1  0.82252034  0.97925423  0.30151405  1
  O  O574  1  0.82119095  0.98014802  0.55094758  1
  O  O575  1  0.82333810  0.98002422  0.79861066  1
  O  O576  1  0.42825730  0.14755031  0.17682355  1
  O  O577  1  0.42783061  0.14689469  0.42662119  1
  O  O578  1  0.42821637  0.14644166  0.67684890  1
  O  O579  1  0.42822778  0.14727427  0.92675980  1
  O  O580  1  0.42813578  0.47959087  0.17625001  1
  O  O581  1  0.42642441  0.47931763  0.42428290  1
  O  O582  1  0.42685453  0.48031394  0.67654764  1
  O  O583  1  0.42749244  0.47816986  0.92535556  1
  O  O584  1  0.42591768  0.81448932  0.17409826  1
  O  O585  1  0.42717089  0.81503366  0.42593593  1
  O  O586  1  0.42707724  0.81300423  0.67498732  1
  O  O587  1  0.42649732  0.81356647  0.92300497  1
  O  O588  1  0.92556679  0.14711083  0.17416817  1
  O  O589  1  0.92673498  0.14641740  0.42605833  1
  O  O590  1  0.92684391  0.14798404  0.67552596  1
  O  O591  1  0.92632339  0.14566645  0.92496936  1
  O  O592  1  0.92633787  0.47856392  0.17517547  1
  O  O593  1  0.92609041  0.48101537  0.42626892  1
  O  O594  1  0.92673911  0.47932552  0.67587833  1
  O  O595  1  0.92700515  0.47837651  0.92489552  1
  O  O596  1  0.92581857  0.81388693  0.17562027  1
  O  O597  1  0.92619563  0.81260806  0.42619853  1
  O  O598  1  0.92733530  0.81507676  0.67455736  1
  O  O599  1  0.92541475  0.81339655  0.92457012  1
  O  O600  1  0.07359396  0.18787154  0.07489379  1
  O  O601  1  0.07286890  0.18766205  0.32467017  1
  O  O602  1  0.07425497  0.18704458  0.57575701  1
  O  O603  1  0.07179016  0.18577280  0.82432087  1
  O  O604  1  0.07416766  0.51943537  0.07552171  1
  O  O605  1  0.07333324  0.52006276  0.32639964  1
  O  O606  1  0.07222184  0.51963981  0.57383137  1
  O  O607  1  0.07404229  0.51934156  0.82521999  1
  O  O608  1  0.07329166  0.85458676  0.07431627  1
  O  O609  1  0.07341634  0.85345009  0.32617453  1
  O  O610  1  0.07381714  0.85518869  0.57448195  1
  O  O611  1  0.07336549  0.85233334  0.82392587  1
  O  O612  1  0.57266861  0.18622440  0.07471912  1
  O  O613  1  0.57160086  0.18576740  0.32279282  1
  O  O614  1  0.57341317  0.18477729  0.57363396  1
  O  O615  1  0.57374403  0.18479472  0.82436398  1
  O  O616  1  0.57409241  0.51924722  0.07505977  1
  O  O617  1  0.57242230  0.51853137  0.32348904  1
  O  O618  1  0.57332267  0.51947744  0.57550659  1
  O  O619  1  0.57208685  0.51874521  0.82295818  1
  O  O620  1  0.57289288  0.85507743  0.07463333  1
  O  O621  1  0.57292690  0.85518571  0.32431884  1
  O  O622  1  0.57231462  0.85313742  0.57280319  1
  O  O623  1  0.57381082  0.85489645  0.82442116  1
  O  O624  1  0.32354631  0.18656868  0.04933132  1
  O  O625  1  0.32315694  0.18510771  0.30135857  1
  O  O626  1  0.32337051  0.18487467  0.55174791  1
  O  O627  1  0.32281677  0.18634557  0.80213272  1
  O  O628  1  0.32409480  0.51980813  0.04958308  1
  O  O629  1  0.32215158  0.51948025  0.30221067  1
  O  O630  1  0.32391018  0.51985469  0.54998634  1
  O  O631  1  0.32181997  0.52017575  0.80214486  1
  O  O632  1  0.32401774  0.85384073  0.04875918  1
  O  O633  1  0.32418914  0.85478616  0.30064316  1
  O  O634  1  0.32274087  0.85212174  0.55056063  1
  O  O635  1  0.32400659  0.85499155  0.80001008  1
  O  O636  1  0.82346304  0.18632701  0.04882218  1
  O  O637  1  0.82301058  0.18500571  0.30191087  1
  O  O638  1  0.82161380  0.18639578  0.55186217  1
  O  O639  1  0.82227924  0.18783433  0.79890054  1
  O  O640  1  0.82245813  0.52037028  0.05015915  1
  O  O641  1  0.82159386  0.51942428  0.30132153  1
  O  O642  1  0.82245840  0.51888151  0.55105419  1
  O  O643  1  0.82326073  0.52130216  0.80034220  1
  O  O644  1  0.82291364  0.85105053  0.05110082  1
  O  O645  1  0.82154543  0.85203280  0.30238355  1
  O  O646  1  0.82200253  0.85289427  0.55046180  1
  O  O647  1  0.82354515  0.85335616  0.79842343  1
  O  O648  1  0.17631931  0.14682222  0.20059040  1
  O  O649  1  0.17769443  0.14669314  0.44892715  1
  O  O650  1  0.17801706  0.14878002  0.70001909  1
  O  O651  1  0.17759853  0.14738584  0.94794554  1
  O  O652  1  0.17661933  0.48023470  0.20055637  1
  O  O653  1  0.17719672  0.48121313  0.44966571  1
  O  O654  1  0.17667167  0.48019306  0.70135506  1
  O  O655  1  0.17847337  0.48041814  0.94819400  1
  O  O656  1  0.17651813  0.81369470  0.20079074  1
  O  O657  1  0.17678300  0.81285373  0.44986516  1
  O  O658  1  0.17742330  0.81536433  0.69945858  1
  O  O659  1  0.17659578  0.81285271  0.94942293  1
  O  O660  1  0.67675675  0.14616385  0.20105352  1
  O  O661  1  0.67812469  0.14674371  0.44885562  1
  O  O662  1  0.67796134  0.14730201  0.69728333  1
  O  O663  1  0.67582546  0.14594332  0.94972763  1
  O  O664  1  0.67596708  0.48000875  0.20039032  1
  O  O665  1  0.67660763  0.48121158  0.44943990  1
  O  O666  1  0.67848328  0.48108281  0.69831158  1
  O  O667  1  0.67617802  0.47893826  0.94906719  1
  O  O668  1  0.67738720  0.81343556  0.19886561  1
  O  O669  1  0.67786355  0.81380241  0.44715694  1
  O  O670  1  0.67610583  0.81453982  0.69802641  1
  O  O671  1  0.67636843  0.81180636  0.94929268  1
