# generated using pymatgen
data_Na2MnFe(PO4)2
_symmetry_space_group_name_H-M   'P 1'
_cell_length_a   22.34544680
_cell_length_b   20.09810795
_cell_length_c   19.44762153
_cell_angle_alpha   90.05366826
_cell_angle_beta   89.95440017
_cell_angle_gamma   90.04096416
_symmetry_Int_Tables_number   1
_chemical_formula_structural   Na2MnFe(PO4)2
_chemical_formula_sum   'Na96 Mn48 Fe48 P96 O384'
_cell_volume   8733.94137769
_cell_formula_units_Z   48
loop_
 _symmetry_equiv_pos_site_id
 _symmetry_equiv_pos_as_xyz
  1  'x, y, z'
loop_
 _atom_site_type_symbol
 _atom_site_label
 _atom_site_symmetry_multiplicity
 _atom_site_fract_x
 _atom_site_fract_y
 _atom_site_fract_z
 _atom_site_occupancy
  Na  Na0  1  0.14060719  0.24801609  0.24250687  1
  Na  Na1  1  0.14063211  0.24850174  0.49480354  1
  Na  Na2  1  0.14047400  0.24846463  0.74341957  1
  Na  Na3  1  0.13956913  0.24883227  0.99299257  1
  Na  Na4  1  0.14068877  0.58363290  0.24401465  1
  Na  Na5  1  0.14036159  0.58352744  0.49370272  1
  Na  Na6  1  0.14039745  0.58374114  0.74327922  1
  Na  Na7  1  0.14037856  0.58289120  0.99348332  1
  Na  Na8  1  0.14139584  0.91765833  0.24403600  1
  Na  Na9  1  0.14135587  0.91696201  0.49399030  1
  Na  Na10  1  0.14087522  0.91772619  0.74369999  1
  Na  Na11  1  0.14049099  0.91741550  0.99382069  1
  Na  Na12  1  0.64026711  0.25044721  0.24416383  1
  Na  Na13  1  0.64059420  0.24990233  0.49420264  1
  Na  Na14  1  0.64050374  0.24952106  0.74385566  1
  Na  Na15  1  0.63968469  0.25020682  0.99385416  1
  Na  Na16  1  0.64043306  0.58438519  0.24331911  1
  Na  Na17  1  0.64010741  0.58288500  0.49319642  1
  Na  Na18  1  0.64001053  0.58196077  0.74448015  1
  Na  Na19  1  0.64016827  0.58332562  0.99313193  1
  Na  Na20  1  0.64079451  0.91671540  0.24293520  1
  Na  Na21  1  0.64110638  0.91784251  0.49380756  1
  Na  Na22  1  0.64028708  0.91638815  0.74333393  1
  Na  Na23  1  0.64038922  0.91508782  0.99399701  1
  Na  Na24  1  0.35863079  0.08332724  0.00697715  1
  Na  Na25  1  0.35943971  0.08227988  0.25631836  1
  Na  Na26  1  0.35957006  0.08310656  0.50684843  1
  Na  Na27  1  0.35985047  0.08337250  0.75534181  1
  Na  Na28  1  0.35964048  0.41545677  0.00712934  1
  Na  Na29  1  0.35896264  0.41552884  0.25591584  1
  Na  Na30  1  0.35934526  0.41638673  0.50685264  1
  Na  Na31  1  0.35993491  0.41556372  0.75641669  1
  Na  Na32  1  0.35995207  0.75122316  0.00709382  1
  Na  Na33  1  0.35938729  0.75096588  0.25633323  1
  Na  Na34  1  0.35959119  0.75081465  0.50623848  1
  Na  Na35  1  0.36003667  0.75219358  0.75647923  1
  Na  Na36  1  0.85944910  0.08330578  0.00707251  1
  Na  Na37  1  0.85940330  0.08496152  0.25498125  1
  Na  Na38  1  0.85946471  0.08484989  0.50601684  1
  Na  Na39  1  0.85944396  0.08393234  0.75543130  1
  Na  Na40  1  0.85984993  0.41754058  0.00710458  1
  Na  Na41  1  0.85877879  0.41752475  0.25568075  1
  Na  Na42  1  0.85952583  0.41580739  0.50653887  1
  Na  Na43  1  0.85970165  0.41623706  0.75689999  1
  Na  Na44  1  0.85925636  0.74986727  0.00670407  1
  Na  Na45  1  0.85913249  0.75013779  0.25470249  1
  Na  Na46  1  0.85958993  0.75013925  0.50647893  1
  Na  Na47  1  0.86001174  0.74933578  0.75738597  1
  Na  Na48  1  0.11022808  0.08391811  0.11714943  1
  Na  Na49  1  0.11079463  0.08353737  0.36772376  1
  Na  Na50  1  0.11052357  0.08356714  0.61867531  1
  Na  Na51  1  0.11010815  0.08418289  0.86797846  1
  Na  Na52  1  0.10923841  0.41518736  0.11780059  1
  Na  Na53  1  0.10943349  0.41619498  0.36930560  1
  Na  Na54  1  0.10969983  0.41570997  0.61956698  1
  Na  Na55  1  0.10930154  0.41641229  0.86920024  1
  Na  Na56  1  0.11002819  0.74999639  0.11888857  1
  Na  Na57  1  0.11045145  0.74986949  0.36852257  1
  Na  Na58  1  0.10957633  0.74961692  0.61906397  1
  Na  Na59  1  0.10930214  0.75073600  0.86902362  1
  Na  Na60  1  0.60969872  0.08339336  0.11763258  1
  Na  Na61  1  0.61045173  0.08381313  0.36924796  1
  Na  Na62  1  0.61009789  0.08353517  0.61744613  1
  Na  Na63  1  0.60943508  0.08280549  0.86963617  1
  Na  Na64  1  0.60917608  0.41693512  0.11769675  1
  Na  Na65  1  0.60954993  0.41680399  0.36934995  1
  Na  Na66  1  0.60962907  0.41701481  0.61882623  1
  Na  Na67  1  0.60962660  0.41685237  0.86977683  1
  Na  Na68  1  0.60969167  0.74877958  0.11698312  1
  Na  Na69  1  0.61012903  0.74920734  0.36850039  1
  Na  Na70  1  0.60961763  0.75009446  0.61903985  1
  Na  Na71  1  0.60961405  0.74840236  0.86953040  1
  Na  Na72  1  0.38950559  0.24977984  0.13109757  1
  Na  Na73  1  0.38975650  0.24911068  0.38245199  1
  Na  Na74  1  0.38995194  0.24996076  0.63173115  1
  Na  Na75  1  0.39023477  0.25004736  0.88215075  1
  Na  Na76  1  0.39030269  0.58322920  0.13049127  1
  Na  Na77  1  0.39019272  0.58380125  0.38168032  1
  Na  Na78  1  0.39075916  0.58431040  0.63020876  1
  Na  Na79  1  0.39082900  0.58284917  0.88166112  1
  Na  Na80  1  0.38962952  0.91600665  0.13175436  1
  Na  Na81  1  0.39000505  0.91653055  0.38256612  1
  Na  Na82  1  0.39014232  0.91726468  0.63103276  1
  Na  Na83  1  0.39023709  0.91674852  0.88172410  1
  Na  Na84  1  0.88989798  0.24998685  0.13107784  1
  Na  Na85  1  0.88965119  0.25021762  0.38138854  1
  Na  Na86  1  0.88988396  0.25020749  0.63177334  1
  Na  Na87  1  0.89071690  0.25089517  0.88084876  1
  Na  Na88  1  0.88963980  0.58303345  0.13047925  1
  Na  Na89  1  0.88986035  0.58362218  0.38090539  1
  Na  Na90  1  0.89090054  0.58263572  0.63201742  1
  Na  Na91  1  0.89007228  0.58402829  0.88244681  1
  Na  Na92  1  0.89006661  0.91711803  0.13100845  1
  Na  Na93  1  0.89030839  0.91731382  0.37990678  1
  Na  Na94  1  0.89070606  0.91707752  0.63184220  1
  Na  Na95  1  0.89040318  0.91724436  0.88089190  1
  Mn  Mn96  1  0.25000065  0.49945260  0.12515630  1
  Mn  Mn97  1  -0.00025040  0.66578140  0.50016813  1
  Mn  Mn98  1  0.00014489  0.83340662  0.24990194  1
  Mn  Mn99  1  -0.00006310  0.00040278  -0.00086499  1
  Mn  Mn100  1  0.00073911  0.00100326  0.24940975  1
  Mn  Mn101  1  0.74988849  0.83363303  0.62518444  1
  Mn  Mn102  1  0.25060649  0.66784616  0.62428060  1
  Mn  Mn103  1  0.00029531  0.83303665  0.50039336  1
  Mn  Mn104  1  0.00015928  0.16721857  0.49991457  1
  Mn  Mn105  1  -0.00005570  0.66706322  -0.00018470  1
  Mn  Mn106  1  0.75051684  0.33375317  0.87545819  1
  Mn  Mn107  1  0.00003942  0.66608901  0.24957255  1
  Mn  Mn108  1  0.74997163  0.49998810  0.37504829  1
  Mn  Mn109  1  0.74949109  0.33377229  0.12529684  1
  Mn  Mn110  1  0.50026103  0.16663834  0.75039906  1
  Mn  Mn111  1  0.00009752  0.00055254  0.50021731  1
  Mn  Mn112  1  0.50003683  0.66613275  0.24931871  1
  Mn  Mn113  1  0.24943370  0.49958749  0.37495587  1
  Mn  Mn114  1  0.75036709  0.66584828  0.62554064  1
  Mn  Mn115  1  0.75060014  0.83318475  0.37411013  1
  Mn  Mn116  1  0.24930828  0.33142630  0.37539909  1
  Mn  Mn117  1  0.49938090  0.33324778  0.25010204  1
  Mn  Mn118  1  0.25024491  0.66774839  0.12501733  1
  Mn  Mn119  1  0.49956450  0.33379904  0.50042894  1
  Mn  Mn120  1  0.50052598  0.33412737  0.75062135  1
  Mn  Mn121  1  0.24961721  0.33151408  0.87534466  1
  Mn  Mn122  1  -0.00087654  0.33274537  0.24911854  1
  Mn  Mn123  1  0.50007046  0.83274015  0.25069244  1
  Mn  Mn124  1  0.49989161  -0.00085363  -0.00022754  1
  Mn  Mn125  1  0.50083168  0.83336689  0.50001530  1
  Mn  Mn126  1  0.49989565  0.66656567  0.75028114  1
  Mn  Mn127  1  0.49984526  -0.00062081  0.75037273  1
  Mn  Mn128  1  0.49990511  0.50000568  0.24958147  1
  Mn  Mn129  1  0.24979370  0.83532652  0.87554891  1
  Mn  Mn130  1  0.74948113  -0.00017595  0.87530875  1
  Mn  Mn131  1  0.74952489  0.16619169  0.87464690  1
  Mn  Mn132  1  0.75066794  0.49887680  0.62456032  1
  Mn  Mn133  1  0.25014094  0.66774418  0.87467026  1
  Mn  Mn134  1  0.25021152  0.49926198  0.87470770  1
  Mn  Mn135  1  0.25068370  0.49945618  0.62447337  1
  Mn  Mn136  1  -0.00005362  0.49979546  0.75080235  1
  Mn  Mn137  1  -0.00013069  0.49946661  0.24970597  1
  Mn  Mn138  1  0.50020954  -0.00024822  0.24996206  1
  Mn  Mn139  1  0.00026061  0.00068417  0.75068240  1
  Mn  Mn140  1  0.75070654  0.83263132  0.87475507  1
  Mn  Mn141  1  0.00062103  0.33372401  0.50033070  1
  Mn  Mn142  1  0.49981270  0.16649115  0.25017429  1
  Mn  Mn143  1  0.75081241  0.00147093  0.37386825  1
  Fe  Fe144  1  0.74956364  0.33325410  0.37500291  1
  Fe  Fe145  1  0.25050002  0.16567223  0.37471114  1
  Fe  Fe146  1  0.75018425  0.16704524  0.62487086  1
  Fe  Fe147  1  0.49940761  0.49936302  -0.00017748  1
  Fe  Fe148  1  -0.00001863  0.33360185  0.75041373  1
  Fe  Fe149  1  0.49956798  0.33320553  -0.00026994  1
  Fe  Fe150  1  0.75009914  0.66695751  0.37404628  1
  Fe  Fe151  1  0.74963432  0.33290768  0.62528268  1
  Fe  Fe152  1  0.49979744  0.50055744  0.49995894  1
  Fe  Fe153  1  0.50042398  0.16654960  0.50040395  1
  Fe  Fe154  1  0.74958526  0.83302449  0.12463040  1
  Fe  Fe155  1  0.25013101  0.33210072  0.62534989  1
  Fe  Fe156  1  0.25028781  0.66754915  0.37466382  1
  Fe  Fe157  1  0.25038170  0.16567036  0.62475756  1
  Fe  Fe158  1  0.75057791  0.00071160  0.62412163  1
  Fe  Fe159  1  0.74953768  0.16734090  0.12533369  1
  Fe  Fe160  1  0.24930046  0.33192863  0.12539999  1
  Fe  Fe161  1  0.74975716  0.16753273  0.37528820  1
  Fe  Fe162  1  0.49940614  0.66597938  -0.00105619  1
  Fe  Fe163  1  0.25024679  0.83401974  0.37529911  1
  Fe  Fe164  1  0.50037176  0.66681761  0.50045757  1
  Fe  Fe165  1  -0.00034202  0.83356776  -0.00037386  1
  Fe  Fe166  1  0.24989858  0.00010150  0.12549866  1
  Fe  Fe167  1  -0.00048407  0.33308797  -0.00040585  1
  Fe  Fe168  1  0.00024849  0.66667775  0.75077274  1
  Fe  Fe169  1  0.25029880  -0.00012302  0.37502511  1
  Fe  Fe170  1  0.25048895  0.16590839  0.87468298  1
  Fe  Fe171  1  0.74975082  0.50000046  0.87547664  1
  Fe  Fe172  1  -0.00001621  0.16722414  0.24906497  1
  Fe  Fe173  1  0.74966400  0.66649557  0.12456059  1
  Fe  Fe174  1  0.00041525  0.83348885  0.75020976  1
  Fe  Fe175  1  0.25021149  0.00023774  0.62459724  1
  Fe  Fe176  1  0.50033678  0.83303299  0.75001322  1
  Fe  Fe177  1  0.25063022  0.00083241  0.87493634  1
  Fe  Fe178  1  0.24948750  0.83442665  0.12589752  1
  Fe  Fe179  1  0.74920226  0.50089098  0.12538822  1
  Fe  Fe180  1  0.74954404  0.00032277  0.12515634  1
  Fe  Fe181  1  -0.00019221  0.16744570  0.75007576  1
  Fe  Fe182  1  -0.00045064  0.16740944  -0.00121889  1
  Fe  Fe183  1  0.49930393  0.16662512  0.00004190  1
  Fe  Fe184  1  0.49992417  0.83262090  0.00028200  1
  Fe  Fe185  1  0.00003795  0.50008181  -0.00052203  1
  Fe  Fe186  1  0.24953732  0.16564490  0.12459483  1
  Fe  Fe187  1  0.00010840  0.49969199  0.50055835  1
  Fe  Fe188  1  0.25002012  0.83421233  0.62475277  1
  Fe  Fe189  1  0.74974607  0.66598158  0.87592387  1
  Fe  Fe190  1  0.50074926  -0.00013370  0.50064076  1
  Fe  Fe191  1  0.49969044  0.50006045  0.75037587  1
  P  P192  1  0.04079748  0.24947743  0.10109421  1
  P  P193  1  0.04246956  0.24925026  0.35177167  1
  P  P194  1  0.04260530  0.25019934  0.60433175  1
  P  P195  1  0.04139380  0.25046934  0.85212434  1
  P  P196  1  0.04241940  0.58194721  0.10190262  1
  P  P197  1  0.04294080  0.58263598  0.35355380  1
  P  P198  1  0.04256969  0.58190534  0.60318766  1
  P  P199  1  0.04227460  0.58438645  0.85302989  1
  P  P200  1  0.04212374  0.91597416  0.10181988  1
  P  P201  1  0.04329936  0.91716275  0.35293704  1
  P  P202  1  0.04287746  0.91661553  0.60389004  1
  P  P203  1  0.04228719  0.91566571  0.85279413  1
  P  P204  1  0.54097521  0.25013558  0.10140101  1
  P  P205  1  0.54215853  0.24978019  0.35390032  1
  P  P206  1  0.54203299  0.24945713  0.60261889  1
  P  P207  1  0.54264864  0.25027713  0.85442060  1
  P  P208  1  0.54108405  0.58289319  0.10065055  1
  P  P209  1  0.54258679  0.58321847  0.35370663  1
  P  P210  1  0.54175285  0.58346942  0.60200028  1
  P  P211  1  0.54163369  0.58177579  0.85327892  1
  P  P212  1  0.54222385  0.91507752  0.10239378  1
  P  P213  1  0.54321741  0.91702510  0.35378453  1
  P  P214  1  0.54280796  0.91739802  0.60292028  1
  P  P215  1  0.54221470  0.91453097  0.85302697  1
  P  P216  1  0.45739576  0.08338048  0.14632790  1
  P  P217  1  0.45896475  0.08291334  0.39917869  1
  P  P218  1  0.45819913  0.08311697  0.64615084  1
  P  P219  1  0.45736147  0.08397003  0.89798633  1
  P  P220  1  0.45699491  0.41634119  0.14579414  1
  P  P221  1  0.45718961  0.41798500  0.39786152  1
  P  P222  1  0.45802581  0.41854951  0.64744158  1
  P  P223  1  0.45793342  0.41661702  0.89823257  1
  P  P224  1  0.45741089  0.74978280  0.14594565  1
  P  P225  1  0.45793673  0.74874065  0.39799141  1
  P  P226  1  0.45811387  0.75085498  0.64740527  1
  P  P227  1  0.45842237  0.75030110  0.89809369  1
  P  P228  1  0.95814362  0.08525585  0.14634049  1
  P  P229  1  0.95751725  0.08403656  0.39615677  1
  P  P230  1  0.95807721  0.08474286  0.64789025  1
  P  P231  1  0.95758692  0.08534882  0.89674540  1
  P  P232  1  0.95675226  0.41645266  0.14549565  1
  P  P233  1  0.95742156  0.41760212  0.39782072  1
  P  P234  1  0.95772122  0.41580318  0.64783474  1
  P  P235  1  0.95848214  0.41657447  0.89816317  1
  P  P236  1  0.95731441  0.75002533  0.14604810  1
  P  P237  1  0.95718785  0.74980290  0.39698322  1
  P  P238  1  0.95862689  0.74953577  0.64907435  1
  P  P239  1  0.95757675  0.75170577  0.89684285  1
  P  P240  1  0.20875638  0.08300553  0.22699239  1
  P  P241  1  0.20912355  0.08300531  0.47691896  1
  P  P242  1  0.20909203  0.08297386  0.72690389  1
  P  P243  1  0.20841193  0.08336907  0.97695228  1
  P  P244  1  0.20723158  0.41455026  0.22739676  1
  P  P245  1  0.20733187  0.41537495  0.47880322  1
  P  P246  1  0.20823181  0.41478451  0.72738158  1
  P  P247  1  0.20736442  0.41530225  0.97855866  1
  P  P248  1  0.20808751  0.75197250  0.22852215  1
  P  P249  1  0.20890452  0.75101420  0.47684349  1
  P  P250  1  0.20811316  0.75223365  0.72713665  1
  P  P251  1  0.20734148  0.75144707  0.97865038  1
  P  P252  1  0.70816570  0.08430952  0.22668805  1
  P  P253  1  0.70857456  0.08504142  0.47797327  1
  P  P254  1  0.70822910  0.08322801  0.72598608  1
  P  P255  1  0.70709310  0.08333357  0.97925347  1
  P  P256  1  0.70713179  0.41810189  0.22772115  1
  P  P257  1  0.70780117  0.41477388  0.47782266  1
  P  P258  1  0.70796606  0.41567374  0.72796345  1
  P  P259  1  0.70808735  0.41842924  0.97819499  1
  P  P260  1  0.70826983  0.74961903  0.22618732  1
  P  P261  1  0.70816150  0.74895760  0.47699113  1
  P  P262  1  0.70748582  0.74912769  0.72885946  1
  P  P263  1  0.70815362  0.74863548  0.97829889  1
  P  P264  1  0.29068600  0.24897716  0.02332805  1
  P  P265  1  0.29206015  0.24770726  0.27189533  1
  P  P266  1  0.29159175  0.24890673  0.52336700  1
  P  P267  1  0.29249549  0.24790803  0.77192189  1
  P  P268  1  0.29266168  0.58345787  0.02189282  1
  P  P269  1  0.29203672  0.58448527  0.27269484  1
  P  P270  1  0.29262493  0.58393848  0.52083793  1
  P  P271  1  0.29309002  0.58362015  0.77158225  1
  P  P272  1  0.29122814  0.91755022  0.02373824  1
  P  P273  1  0.29176473  0.91682569  0.27331104  1
  P  P274  1  0.29159802  0.91701347  0.52279520  1
  P  P275  1  0.29241497  0.91898965  0.77195064  1
  P  P276  1  0.79182316  0.24932761  0.02286442  1
  P  P277  1  0.79109200  0.25024103  0.27313223  1
  P  P278  1  0.79135857  0.25034958  0.52287807  1
  P  P279  1  0.79239952  0.24992782  0.77127020  1
  P  P280  1  0.79090495  0.58329280  0.02272725  1
  P  P281  1  0.79172706  0.58463678  0.27152117  1
  P  P282  1  0.79308905  0.58303035  0.52150843  1
  P  P283  1  0.79147863  0.58280599  0.77410662  1
  P  P284  1  0.79107074  0.91664424  0.02361932  1
  P  P285  1  0.79251231  0.91716053  0.27023526  1
  P  P286  1  0.79289415  0.91812023  0.52224925  1
  P  P287  1  0.79267399  0.91725067  0.77129208  1
  O  O288  1  0.03606614  0.24922927  0.18108074  1
  O  O289  1  0.03784089  0.24979246  0.43179721  1
  O  O290  1  0.03729376  0.25020666  0.68424215  1
  O  O291  1  0.03601421  0.25029844  0.93205402  1
  O  O292  1  0.03729623  0.58222118  0.18189964  1
  O  O293  1  0.03784745  0.58216542  0.43357101  1
  O  O294  1  0.03734905  0.58269490  0.68315451  1
  O  O295  1  0.03693337  0.58374143  0.93294945  1
  O  O296  1  0.03715311  0.91663963  0.18177850  1
  O  O297  1  0.03829155  0.91729433  0.43292624  1
  O  O298  1  0.03746351  0.91640929  0.68386582  1
  O  O299  1  0.03679492  0.91556542  0.93273534  1
  O  O300  1  0.53624154  0.25013876  0.18145942  1
  O  O301  1  0.53699111  0.24952962  0.43385172  1
  O  O302  1  0.53741984  0.24967747  0.68264908  1
  O  O303  1  0.53697270  0.25016428  0.93433672  1
  O  O304  1  0.53663030  0.58332009  0.18068320  1
  O  O305  1  0.53743450  0.58347505  0.43365287  1
  O  O306  1  0.53664923  0.58322988  0.68199641  1
  O  O307  1  0.53600444  0.58195228  0.93309997  1
  O  O308  1  0.53731634  0.91549979  0.18240292  1
  O  O309  1  0.53836307  0.91757223  0.43379290  1
  O  O310  1  0.53776269  0.91674084  0.68289429  1
  O  O311  1  0.53677370  0.91454046  0.93298362  1
  O  O312  1  0.46244587  0.08359865  0.06637891  1
  O  O313  1  0.46346062  0.08288640  0.31910100  1
  O  O314  1  0.46377076  0.08301880  0.56625292  1
  O  O315  1  0.46255814  0.08357960  0.81802346  1
  O  O316  1  0.46229022  0.41593620  0.06584054  1
  O  O317  1  0.46210139  0.41738793  0.31782378  1
  O  O318  1  0.46335098  0.41861129  0.56749745  1
  O  O319  1  0.46305739  0.41697321  0.81824123  1
  O  O320  1  0.46249044  0.74993291  0.06597987  1
  O  O321  1  0.46283297  0.74904154  0.31798367  1
  O  O322  1  0.46367113  0.75014426  0.56750689  1
  O  O323  1  0.46339019  0.75056690  0.81809601  1
  O  O324  1  0.96329467  0.08520487  0.06634949  1
  O  O325  1  0.96271173  0.08455701  0.31615535  1
  O  O326  1  0.96301206  0.08435402  0.56790088  1
  O  O327  1  0.96304156  0.08540221  0.81682466  1
  O  O328  1  0.96188376  0.41658943  0.06557400  1
  O  O329  1  0.96228086  0.41693971  0.31779836  1
  O  O330  1  0.96315062  0.41676851  0.56792069  1
  O  O331  1  0.96346249  0.41590344  0.81818246  1
  O  O332  1  0.96248531  0.75052956  0.06605596  1
  O  O333  1  0.96216787  0.74969475  0.31699413  1
  O  O334  1  0.96368246  0.74922288  0.56906149  1
  O  O335  1  0.96311700  0.75138037  0.81695462  1
  O  O336  1  0.21347027  0.08347519  0.05680824  1
  O  O337  1  0.21331368  0.08335974  0.30685409  1
  O  O338  1  0.21422895  0.08256615  0.55677330  1
  O  O339  1  0.21415944  0.08342690  0.80675165  1
  O  O340  1  0.21234051  0.41495931  0.05852242  1
  O  O341  1  0.21237840  0.41486862  0.30739393  1
  O  O342  1  0.21302754  0.41503273  0.55870602  1
  O  O343  1  0.21339175  0.41503712  0.80737484  1
  O  O344  1  0.21237851  0.75185843  0.05861468  1
  O  O345  1  0.21387204  0.75144380  0.30839470  1
  O  O346  1  0.21403185  0.75135266  0.55682665  1
  O  O347  1  0.21300601  0.75210144  0.80711960  1
  O  O348  1  0.71232067  0.08344444  0.05915500  1
  O  O349  1  0.71341996  0.08504287  0.30665672  1
  O  O350  1  0.71424519  0.08451383  0.55781230  1
  O  O351  1  0.71294352  0.08301702  0.80604482  1
  O  O352  1  0.71294852  0.41881090  0.05814620  1
  O  O353  1  0.71255405  0.41737708  0.30763140  1
  O  O354  1  0.71310929  0.41435606  0.55777278  1
  O  O355  1  0.71327634  0.41667336  0.80790355  1
  O  O356  1  0.71336624  0.74893249  0.05819331  1
  O  O357  1  0.71332713  0.74950798  0.30616149  1
  O  O358  1  0.71329235  0.74925355  0.55696544  1
  O  O359  1  0.71277880  0.74865209  0.80882945  1
  O  O360  1  0.28646991  0.24832351  0.19205182  1
  O  O361  1  0.28672283  0.24820561  0.44341708  1
  O  O362  1  0.28740163  0.24849605  0.69204561  1
  O  O363  1  0.28625576  0.24819191  0.94334697  1
  O  O364  1  0.28690046  0.58428125  0.19268825  1
  O  O365  1  0.28704282  0.58442112  0.44092888  1
  O  O366  1  0.28817832  0.58365951  0.69154402  1
  O  O367  1  0.28761776  0.58340354  0.94191819  1
  O  O368  1  0.28653322  0.91696195  0.19346537  1
  O  O369  1  0.28647603  0.91652075  0.44293442  1
  O  O370  1  0.28714335  0.91851876  0.69211903  1
  O  O371  1  0.28653247  0.91827860  0.94377184  1
  O  O372  1  0.78569859  0.24988199  0.19319167  1
  O  O373  1  0.78612323  0.25038676  0.44295015  1
  O  O374  1  0.78700043  0.25007128  0.69136423  1
  O  O375  1  0.78709763  0.24946596  0.94291472  1
  O  O376  1  0.78594931  0.58431435  0.19164856  1
  O  O377  1  0.78816039  0.58346003  0.44157846  1
  O  O378  1  0.78707037  0.58244915  0.69408071  1
  O  O379  1  0.78559880  0.58307918  0.94280922  1
  O  O380  1  0.78665966  0.91703956  0.19040518  1
  O  O381  1  0.78783707  0.91784917  0.44223806  1
  O  O382  1  0.78751998  0.91783668  0.69133577  1
  O  O383  1  0.78646218  0.91636051  0.94357578  1
  O  O384  1  0.22646935  0.24970586  0.05907954  1
  O  O385  1  0.22785686  0.24695849  0.30804664  1
  O  O386  1  0.22751077  0.24955500  0.55948990  1
  O  O387  1  0.22820083  0.24721206  0.80778915  1
  O  O388  1  0.22830250  0.58353371  0.05713350  1
  O  O389  1  0.22777561  0.58460370  0.30827413  1
  O  O390  1  0.22849513  0.58364640  0.55669581  1
  O  O391  1  0.22856771  0.58368886  0.80646450  1
  O  O392  1  0.22705930  0.91698207  0.05974074  1
  O  O393  1  0.22773003  0.91652403  0.30973115  1
  O  O394  1  0.22760948  0.91723012  0.55941213  1
  O  O395  1  0.22823226  0.91960729  0.80812437  1
  O  O396  1  0.72741311  0.24933430  0.05816250  1
  O  O397  1  0.72703648  0.25025167  0.30954507  1
  O  O398  1  0.72736289  0.25013390  0.55952656  1
  O  O399  1  0.72820203  0.25036170  0.80707629  1
  O  O400  1  0.72685613  0.58373394  0.05921364  1
  O  O401  1  0.72774114  0.58471764  0.30808883  1
  O  O402  1  0.72865825  0.58262581  0.55665293  1
  O  O403  1  0.72712791  0.58299613  0.80953076  1
  O  O404  1  0.72688209  0.91744580  0.05931146  1
  O  O405  1  0.72854056  0.91729997  0.30659369  1
  O  O406  1  0.72854577  0.91844987  0.55781172  1
  O  O407  1  0.72834072  0.91631087  0.80667838  1
  O  O408  1  0.27288393  0.08281840  0.19105170  1
  O  O409  1  0.27314784  0.08366596  0.44038081  1
  O  O410  1  0.27306177  0.08238442  0.69036469  1
  O  O411  1  0.27255982  0.08342862  0.94052305  1
  O  O412  1  0.27156393  0.41416858  0.19187370  1
  O  O413  1  0.27146745  0.41548738  0.44293344  1
  O  O414  1  0.27249689  0.41447925  0.69171295  1
  O  O415  1  0.27175623  0.41516079  0.94334395  1
  O  O416  1  0.27210375  0.75247178  0.19201627  1
  O  O417  1  0.27299877  0.75116864  0.44066900  1
  O  O418  1  0.27248422  0.75251221  0.69175652  1
  O  O419  1  0.27172611  0.75154130  0.94337572  1
  O  O420  1  0.77224406  0.08387917  0.19042356  1
  O  O421  1  0.77254531  0.08592784  0.44136083  1
  O  O422  1  0.77251951  0.08351161  0.69031021  1
  O  O423  1  0.77141027  0.08316616  0.94367942  1
  O  O424  1  0.77133406  0.41833707  0.19178466  1
  O  O425  1  0.77194328  0.41486942  0.44176854  1
  O  O426  1  0.77221559  0.41464255  0.69213182  1
  O  O427  1  0.77238855  0.41845336  0.94257973  1
  O  O428  1  0.77236289  0.74908431  0.19011413  1
  O  O429  1  0.77244562  0.74855773  0.44126770  1
  O  O430  1  0.77184394  0.74975842  0.69354717  1
  O  O431  1  0.77227825  0.74809551  0.94210549  1
  O  O432  1  0.02243550  0.08580809  0.18201619  1
  O  O433  1  0.02193381  0.08374896  0.43129834  1
  O  O434  1  0.02238885  0.08474951  0.68321604  1
  O  O435  1  0.02185796  0.08520467  0.93238557  1
  O  O436  1  0.02106581  0.41598258  0.18093371  1
  O  O437  1  0.02184996  0.41831388  0.43313186  1
  O  O438  1  0.02189884  0.41545907  0.68376341  1
  O  O439  1  0.02257855  0.41711032  0.93407026  1
  O  O440  1  0.02167392  0.74969185  0.18126029  1
  O  O441  1  0.02167384  0.74944559  0.43184938  1
  O  O442  1  0.02281136  0.74938057  0.68490281  1
  O  O443  1  0.02172257  0.75198711  0.93296697  1
  O  O444  1  0.52177668  0.08326389  0.18152346  1
  O  O445  1  0.52324771  0.08301399  0.43459180  1
  O  O446  1  0.52226656  0.08287719  0.68216350  1
  O  O447  1  0.52168564  0.08392614  0.93325111  1
  O  O448  1  0.52129887  0.41637344  0.18132761  1
  O  O449  1  0.52156479  0.41790847  0.43308703  1
  O  O450  1  0.52223182  0.41864216  0.68333574  1
  O  O451  1  0.52208285  0.41637864  0.93422672  1
  O  O452  1  0.52176702  0.74982228  0.18131765  1
  O  O453  1  0.52234670  0.74859111  0.43317964  1
  O  O454  1  0.52224093  0.75104368  0.68345023  1
  O  O455  1  0.52252804  0.75045075  0.93402471  1
  O  O456  1  0.47673905  0.25042819  0.06580073  1
  O  O457  1  0.47777360  0.24978467  0.31870917  1
  O  O458  1  0.47767653  0.24942315  0.56749258  1
  O  O459  1  0.47850030  0.25044225  0.81860017  1
  O  O460  1  0.47682931  0.58235477  0.06525505  1
  O  O461  1  0.47825873  0.58309065  0.31826256  1
  O  O462  1  0.47765673  0.58388123  0.56587157  1
  O  O463  1  0.47763470  0.58189008  0.81688985  1
  O  O464  1  0.47782188  0.91492685  0.06719518  1
  O  O465  1  0.47866920  0.91668324  0.31900812  1
  O  O466  1  0.47854307  0.91743412  0.56735603  1
  O  O467  1  0.47798527  0.91455789  0.81723166  1
  O  O468  1  0.97660941  0.24917931  0.06538348  1
  O  O469  1  0.97790148  0.24847470  0.31682270  1
  O  O470  1  0.97840992  0.25051433  0.56862703  1
  O  O471  1  0.97740039  0.25068275  0.81567755  1
  O  O472  1  0.97809254  0.58183519  0.06646535  1
  O  O473  1  0.97850435  0.58294182  0.31844845  1
  O  O474  1  0.97826010  0.58129340  0.56751265  1
  O  O475  1  0.97800984  0.58464809  0.81736815  1
  O  O476  1  0.97778537  0.91600876  0.06638777  1
  O  O477  1  0.97887580  0.91746539  0.31794786  1
  O  O478  1  0.97855793  0.91683279  0.56851179  1
  O  O479  1  0.97810982  0.91581749  0.81701944  1
  O  O480  1  0.07086007  0.31364820  0.07276745  1
  O  O481  1  0.07289512  0.31308647  0.32352373  1
  O  O482  1  0.07402218  0.31334673  0.57573737  1
  O  O483  1  0.07249362  0.31405430  0.82401653  1
  O  O484  1  0.07355281  0.64559632  0.07425066  1
  O  O485  1  0.07390324  0.64624749  0.32541117  1
  O  O486  1  0.07363723  0.64542631  0.57493588  1
  O  O487  1  0.07297752  0.64806421  0.82470517  1
  O  O488  1  0.07323352  0.97955976  0.07382884  1
  O  O489  1  0.07451211  0.98045165  0.32449730  1
  O  O490  1  0.07396408  0.98018063  0.57589048  1
  O  O491  1  0.07340334  0.97961134  0.82560819  1
  O  O492  1  0.57217903  0.31361338  0.07337369  1
  O  O493  1  0.57300483  0.31340919  0.32567925  1
  O  O494  1  0.57317802  0.31307135  0.57497905  1
  O  O495  1  0.57398841  0.31362803  0.82608015  1
  O  O496  1  0.57119214  0.64682265  0.07192875  1
  O  O497  1  0.57370874  0.64645788  0.32476974  1
  O  O498  1  0.57265157  0.64732131  0.57417593  1
  O  O499  1  0.57304438  0.64524877  0.82532527  1
  O  O500  1  0.57329364  0.97865104  0.07451283  1
  O  O501  1  0.57427953  0.98019228  0.32484429  1
  O  O502  1  0.57327458  0.98116680  0.57448262  1
  O  O503  1  0.57321513  0.97846403  0.82556413  1
  O  O504  1  0.42653685  0.01973902  0.17456692  1
  O  O505  1  0.42824555  0.01920611  0.42742478  1
  O  O506  1  0.42672369  0.01988122  0.67455295  1
  O  O507  1  0.42610052  0.02041408  0.92567263  1
  O  O508  1  0.42577991  0.35312925  0.17464583  1
  O  O509  1  0.42583856  0.35453580  0.42580809  1
  O  O510  1  0.42718268  0.35462757  0.67510781  1
  O  O511  1  0.42711403  0.35275740  0.92610333  1
  O  O512  1  0.42632759  0.68625466  0.17418674  1
  O  O513  1  0.42721148  0.68532194  0.42651176  1
  O  O514  1  0.42665949  0.68759749  0.67557578  1
  O  O515  1  0.42820512  0.68598428  0.92595197  1
  O  O516  1  0.92755726  0.02122855  0.17399849  1
  O  O517  1  0.92641128  0.02046979  0.42415901  1
  O  O518  1  0.92680652  0.02128916  0.67579145  1
  O  O519  1  0.92654031  0.02152336  0.92439001  1
  O  O520  1  0.92541990  0.35315533  0.17409281  1
  O  O521  1  0.92692332  0.35366696  0.42580984  1
  O  O522  1  0.92699257  0.35211899  0.67592248  1
  O  O523  1  0.92782246  0.35293542  0.92679990  1
  O  O524  1  0.92633645  0.68630079  0.17382271  1
  O  O525  1  0.92587809  0.68662324  0.42540473  1
  O  O526  1  0.92770795  0.68586862  0.67722948  1
  O  O527  1  0.92653127  0.68802892  0.92486207  1
  O  O528  1  0.17774204  0.01942920  0.19841661  1
  O  O529  1  0.17880503  0.01913277  0.44802167  1
  O  O530  1  0.17752031  0.01975995  0.69853860  1
  O  O531  1  0.17764826  0.01968021  0.94852048  1
  O  O532  1  0.17639567  0.35095877  0.19912804  1
  O  O533  1  0.17592646  0.35206445  0.45059282  1
  O  O534  1  0.17741177  0.35113315  0.69933183  1
  O  O535  1  0.17595033  0.35217348  0.94995196  1
  O  O536  1  0.17685103  0.68838807  0.20044822  1
  O  O537  1  0.17847183  0.68692496  0.44876549  1
  O  O538  1  0.17723070  0.68844541  0.69929864  1
  O  O539  1  0.17653981  0.68768451  0.95053095  1
  O  O540  1  0.67719119  0.02042424  0.19912580  1
  O  O541  1  0.67780904  0.02132922  0.44957200  1
  O  O542  1  0.67769082  0.01944574  0.69766556  1
  O  O543  1  0.67582805  0.01995039  0.95070801  1
  O  O544  1  0.67584723  0.35463751  0.19955957  1
  O  O545  1  0.67669522  0.35164910  0.44882974  1
  O  O546  1  0.67663697  0.35227011  0.69994631  1
  O  O547  1  0.67726898  0.35446474  0.95063513  1
  O  O548  1  0.67656446  0.68655699  0.19780915  1
  O  O549  1  0.67723096  0.68550361  0.44858359  1
  O  O550  1  0.67644247  0.68571436  0.70042271  1
  O  O551  1  0.67700615  0.68526676  0.94969227  1
  O  O552  1  0.32180024  0.31259708  0.05128786  1
  O  O553  1  0.32296830  0.31128495  0.30050442  1
  O  O554  1  0.32270773  0.31259897  0.55123590  1
  O  O555  1  0.32332883  0.31151492  0.80059063  1
  O  O556  1  0.32374968  0.64698168  0.04986537  1
  O  O557  1  0.32274979  0.64820746  0.30090003  1
  O  O558  1  0.32393881  0.64722001  0.54919234  1
  O  O559  1  0.32404073  0.64722085  0.79970804  1
  O  O560  1  0.32186097  0.98116991  0.05249203  1
  O  O561  1  0.32229682  0.98066342  0.30207740  1
  O  O562  1  0.32267035  0.98064615  0.55085138  1
  O  O563  1  0.32362043  0.98218826  0.80081820  1
  O  O564  1  0.82273437  0.31309312  0.05063802  1
  O  O565  1  0.82175489  0.31426857  0.30091402  1
  O  O566  1  0.82215303  0.31399403  0.55143804  1
  O  O567  1  0.82398407  0.31300976  0.79997664  1
  O  O568  1  0.82229927  0.64676134  0.05079177  1
  O  O569  1  0.82264716  0.64817434  0.30000482  1
  O  O570  1  0.82422542  0.64617943  0.55045746  1
  O  O571  1  0.82225519  0.64651244  0.80229913  1
  O  O572  1  0.82257776  0.97998153  0.05154082  1
  O  O573  1  0.82401867  0.98056300  0.29826568  1
  O  O574  1  0.82376602  0.98169417  0.55048518  1
  O  O575  1  0.82344675  0.98066341  0.80014301  1
  O  O576  1  0.42628825  0.14662887  0.17492930  1
  O  O577  1  0.42832284  0.14674628  0.42734488  1
  O  O578  1  0.42709530  0.14661012  0.67440236  1
  O  O579  1  0.42681361  0.14764834  0.92642556  1
  O  O580  1  0.42596738  0.47986631  0.17404042  1
  O  O581  1  0.42679933  0.48169771  0.42630237  1
  O  O582  1  0.42704314  0.48181823  0.67615157  1
  O  O583  1  0.42695095  0.48006368  0.92665592  1
  O  O584  1  0.42628976  0.81298352  0.17497364  1
  O  O585  1  0.42704497  0.81249172  0.42581847  1
  O  O586  1  0.42756315  0.81467548  0.67559122  1
  O  O587  1  0.42695864  0.81339112  0.92672509  1
  O  O588  1  0.92688360  0.14831802  0.17519510  1
  O  O589  1  0.92641456  0.14726254  0.42493967  1
  O  O590  1  0.92750200  0.14846600  0.67613162  1
  O  O591  1  0.92656954  0.14859070  0.92539050  1
  O  O592  1  0.92582278  0.47980578  0.17428633  1
  O  O593  1  0.92652431  0.48099511  0.42620706  1
  O  O594  1  0.92642181  0.47909492  0.67631232  1
  O  O595  1  0.92752694  0.48041939  0.92581252  1
  O  O596  1  0.92625508  0.81331102  0.17460910  1
  O  O597  1  0.92655698  0.81355998  0.42511537  1
  O  O598  1  0.92799250  0.81349703  0.67676363  1
  O  O599  1  0.92653028  0.81503757  0.92561275  1
  O  O600  1  0.07234116  0.18644066  0.07244764  1
  O  O601  1  0.07342891  0.18591291  0.32318725  1
  O  O602  1  0.07360396  0.18671815  0.57581125  1
  O  O603  1  0.07214305  0.18671507  0.82370382  1
  O  O604  1  0.07310472  0.51836157  0.07353583  1
  O  O605  1  0.07404894  0.51942023  0.32483118  1
  O  O606  1  0.07328358  0.51824335  0.57493860  1
  O  O607  1  0.07358607  0.52098309  0.82498371  1
  O  O608  1  0.07262395  0.85224000  0.07367223  1
  O  O609  1  0.07399984  0.85348281  0.32490702  1
  O  O610  1  0.07390542  0.85319946  0.57553628  1
  O  O611  1  0.07327954  0.85251639  0.82380613  1
  O  O612  1  0.57128040  0.18611068  0.07329468  1
  O  O613  1  0.57337753  0.18656927  0.32526146  1
  O  O614  1  0.57250840  0.18581523  0.57395375  1
  O  O615  1  0.57389986  0.18689692  0.82603373  1
  O  O616  1  0.57228361  0.51932922  0.07293820  1
  O  O617  1  0.57367311  0.51978204  0.32519018  1
  O  O618  1  0.57251161  0.51987304  0.57349351  1
  O  O619  1  0.57237782  0.51830006  0.82446914  1
  O  O620  1  0.57288223  0.85152544  0.07394922  1
  O  O621  1  0.57407679  0.85328687  0.32579218  1
  O  O622  1  0.57430399  0.85414896  0.57471472  1
  O  O623  1  0.57312195  0.85126521  0.82420989  1
  O  O624  1  0.32101475  0.18526453  0.05216454  1
  O  O625  1  0.32329908  0.18445330  0.30038533  1
  O  O626  1  0.32205161  0.18523179  0.55204192  1
  O  O627  1  0.32360317  0.18468611  0.80063307  1
  O  O628  1  0.32354033  0.51993527  0.04996554  1
  O  O629  1  0.32307658  0.52070735  0.30004850  1
  O  O630  1  0.32379163  0.52036503  0.54853538  1
  O  O631  1  0.32388454  0.52000935  0.79962997  1
  O  O632  1  0.32208926  0.85387732  0.05168190  1
  O  O633  1  0.32318754  0.85363355  0.30170974  1
  O  O634  1  0.32232347  0.85344879  0.55155758  1
  O  O635  1  0.32319005  0.85538302  0.80044929  1
  O  O636  1  0.82241972  0.18588118  0.05153818  1
  O  O637  1  0.82221726  0.18692511  0.30144140  1
  O  O638  1  0.82245957  0.18685360  0.55119465  1
  O  O639  1  0.82319371  0.18630384  0.79943177  1
  O  O640  1  0.82152024  0.51967718  0.05138606  1
  O  O641  1  0.82306560  0.52115970  0.29939300  1
  O  O642  1  0.82392747  0.51936977  0.54962958  1
  O  O643  1  0.82210058  0.51910927  0.80241191  1
  O  O644  1  0.82100899  0.85241357  0.05167075  1
  O  O645  1  0.82378573  0.85380861  0.29853231  1
  O  O646  1  0.82363943  0.85434006  0.55007605  1
  O  O647  1  0.82406683  0.85386409  0.79916052  1
  O  O648  1  0.17800229  0.14633689  0.19759703  1
  O  O649  1  0.17766937  0.14630940  0.44885344  1
  O  O650  1  0.17874489  0.14672665  0.69796351  1
  O  O651  1  0.17759012  0.14684453  0.94827105  1
  O  O652  1  0.17638848  0.47833261  0.19980992  1
  O  O653  1  0.17626745  0.47895668  0.45099982  1
  O  O654  1  0.17728019  0.47853205  0.69985393  1
  O  O655  1  0.17666094  0.47898627  0.95034423  1
  O  O656  1  0.17697872  0.81535362  0.20017495  1
  O  O657  1  0.17756945  0.81430049  0.44871838  1
  O  O658  1  0.17739485  0.81570734  0.69873325  1
  O  O659  1  0.17605460  0.81454907  0.95009574  1
  O  O660  1  0.67734031  0.14787445  0.19827940  1
  O  O661  1  0.67712267  0.14825276  0.44976666  1
  O  O662  1  0.67741513  0.14700941  0.69826110  1
  O  O663  1  0.67607199  0.14660751  0.95049443  1
  O  O664  1  0.67642248  0.48172817  0.19954306  1
  O  O665  1  0.67689716  0.47867159  0.45050224  1
  O  O666  1  0.67734203  0.47929577  0.69947004  1
  O  O667  1  0.67710860  0.48149258  0.94905222  1
  O  O668  1  0.67822992  0.81386248  0.19806948  1
  O  O669  1  0.67741312  0.81280703  0.44932091  1
  O  O670  1  0.67629591  0.81254374  0.70077559  1
  O  O671  1  0.67730030  0.81227617  0.95021721  1
