# generated using pymatgen
data_Na2MnFe(PO4)2
_symmetry_space_group_name_H-M   'P 1'
_cell_length_a   22.34455846
_cell_length_b   20.09887622
_cell_length_c   19.44817711
_cell_angle_alpha   89.98693151
_cell_angle_beta   90.00195190
_cell_angle_gamma   89.98703317
_symmetry_Int_Tables_number   1
_chemical_formula_structural   Na2MnFe(PO4)2
_chemical_formula_sum   'Na96 Mn48 Fe48 P96 O384'
_cell_volume   8734.18589673
_cell_formula_units_Z   48
loop_
 _symmetry_equiv_pos_site_id
 _symmetry_equiv_pos_as_xyz
  1  'x, y, z'
loop_
 _atom_site_type_symbol
 _atom_site_label
 _atom_site_symmetry_multiplicity
 _atom_site_fract_x
 _atom_site_fract_y
 _atom_site_fract_z
 _atom_site_occupancy
  Na  Na0  1  0.14066413  0.24935329  0.24458073  1
  Na  Na1  1  0.14110693  0.24820287  0.49395511  1
  Na  Na2  1  0.14077543  0.24965910  0.74276537  1
  Na  Na3  1  0.14059180  0.25048872  0.99340652  1
  Na  Na4  1  0.14064144  0.58447008  0.24370917  1
  Na  Na5  1  0.14080415  0.58195626  0.49470900  1
  Na  Na6  1  0.14065551  0.58275222  0.74569334  1
  Na  Na7  1  0.13997495  0.58409119  0.99418421  1
  Na  Na8  1  0.14013991  0.91623137  0.24270736  1
  Na  Na9  1  0.14089264  0.91688107  0.49331215  1
  Na  Na10  1  0.14039559  0.91693273  0.74374286  1
  Na  Na11  1  0.13943221  0.91636686  0.99460863  1
  Na  Na12  1  0.63982803  0.25182633  0.24298503  1
  Na  Na13  1  0.64101841  0.24893939  0.49366082  1
  Na  Na14  1  0.64080091  0.25032151  0.74378444  1
  Na  Na15  1  0.63985759  0.25105150  0.99239781  1
  Na  Na16  1  0.64027512  0.58417563  0.24304760  1
  Na  Na17  1  0.64013478  0.58366976  0.49390919  1
  Na  Na18  1  0.64032354  0.58442912  0.74287288  1
  Na  Na19  1  0.63995446  0.58297418  0.99283613  1
  Na  Na20  1  0.63994958  0.91615749  0.24397539  1
  Na  Na21  1  0.64035306  0.91683132  0.49476520  1
  Na  Na22  1  0.63985117  0.91683567  0.74160915  1
  Na  Na23  1  0.63948108  0.91635024  0.99272610  1
  Na  Na24  1  0.36027300  0.08277080  0.00661822  1
  Na  Na25  1  0.35917829  0.08349439  0.25639990  1
  Na  Na26  1  0.35970440  0.08266362  0.50627267  1
  Na  Na27  1  0.36082564  0.08329656  0.75619350  1
  Na  Na28  1  0.36031962  0.41787075  0.00710518  1
  Na  Na29  1  0.36000463  0.41652248  0.25686104  1
  Na  Na30  1  0.35960456  0.41548756  0.50601547  1
  Na  Na31  1  0.36014908  0.41682869  0.75645619  1
  Na  Na32  1  0.36015095  0.75102178  0.00767529  1
  Na  Na33  1  0.35962780  0.75078526  0.25539271  1
  Na  Na34  1  0.35950343  0.74863142  0.50706877  1
  Na  Na35  1  0.36059518  0.74940114  0.75701330  1
  Na  Na36  1  0.85965144  0.08252856  0.00593573  1
  Na  Na37  1  0.85876604  0.08259787  0.25641580  1
  Na  Na38  1  0.85940943  0.08224116  0.50602403  1
  Na  Na39  1  0.85984978  0.08421791  0.75588870  1
  Na  Na40  1  0.85966408  0.41774857  0.00602925  1
  Na  Na41  1  0.85944418  0.41719153  0.25552482  1
  Na  Na42  1  0.85928298  0.41593034  0.50637803  1
  Na  Na43  1  0.85942540  0.41712674  0.75668224  1
  Na  Na44  1  0.85924678  0.74936865  0.00788469  1
  Na  Na45  1  0.85905267  0.75122948  0.25498971  1
  Na  Na46  1  0.85898345  0.75054051  0.50665647  1
  Na  Na47  1  0.85960296  0.74984617  0.75641520  1
  Na  Na48  1  0.10940995  0.08132211  0.11929436  1
  Na  Na49  1  0.11027430  0.08261838  0.36720463  1
  Na  Na50  1  0.11084356  0.08347354  0.61798979  1
  Na  Na51  1  0.10922804  0.08231181  0.86865267  1
  Na  Na52  1  0.10946073  0.41672029  0.11923785  1
  Na  Na53  1  0.10986010  0.41599245  0.36932689  1
  Na  Na54  1  0.11018497  0.41622591  0.61986166  1
  Na  Na55  1  0.10988184  0.41701302  0.86892543  1
  Na  Na56  1  0.10932323  0.75045887  0.11796237  1
  Na  Na57  1  0.10963582  0.75043034  0.36786135  1
  Na  Na58  1  0.10965605  0.75026652  0.61969023  1
  Na  Na59  1  0.10924968  0.74990812  0.87142812  1
  Na  Na60  1  0.60861846  0.08356289  0.11810184  1
  Na  Na61  1  0.60979317  0.08317064  0.36905936  1
  Na  Na62  1  0.61041401  0.08320988  0.61864360  1
  Na  Na63  1  0.60898171  0.08255132  0.86824639  1
  Na  Na64  1  0.60896828  0.41684873  0.11726601  1
  Na  Na65  1  0.60965893  0.41731150  0.36881152  1
  Na  Na66  1  0.61005439  0.41809844  0.61867765  1
  Na  Na67  1  0.61016043  0.41724736  0.86844378  1
  Na  Na68  1  0.60960272  0.75030028  0.11653239  1
  Na  Na69  1  0.60987503  0.75034408  0.36948471  1
  Na  Na70  1  0.60981622  0.75048719  0.61797406  1
  Na  Na71  1  0.60904838  0.75080971  0.86846065  1
  Na  Na72  1  0.39061851  0.24999303  0.13084153  1
  Na  Na73  1  0.39013942  0.25050346  0.38225583  1
  Na  Na74  1  0.39059022  0.24902243  0.63127080  1
  Na  Na75  1  0.39144846  0.24959185  0.88142619  1
  Na  Na76  1  0.39052716  0.58318279  0.13079210  1
  Na  Na77  1  0.39041047  0.58367307  0.38192079  1
  Na  Na78  1  0.39070376  0.58356431  0.63138274  1
  Na  Na79  1  0.39094430  0.58375061  0.88243620  1
  Na  Na80  1  0.38981037  0.91696947  0.13094138  1
  Na  Na81  1  0.38986512  0.91659304  0.38165953  1
  Na  Na82  1  0.39089685  0.91772671  0.63227242  1
  Na  Na83  1  0.39136068  0.91692179  0.88103366  1
  Na  Na84  1  0.89039740  0.24912809  0.13052513  1
  Na  Na85  1  0.89007090  0.25049790  0.38063161  1
  Na  Na86  1  0.89054103  0.24969936  0.63172497  1
  Na  Na87  1  0.89075331  0.25026175  0.88057003  1
  Na  Na88  1  0.88968250  0.58305491  0.13122615  1
  Na  Na89  1  0.89014200  0.58346194  0.38051992  1
  Na  Na90  1  0.88986590  0.58337424  0.63249207  1
  Na  Na91  1  0.89006266  0.58359531  0.88237097  1
  Na  Na92  1  0.88956612  0.91586771  0.13152428  1
  Na  Na93  1  0.88908380  0.91657213  0.38092327  1
  Na  Na94  1  0.89002478  0.91745176  0.63166783  1
  Na  Na95  1  0.89035116  0.91543897  0.88077184  1
  Mn  Mn96  1  0.49997074  0.83308888  0.24976822  1
  Mn  Mn97  1  0.75032100  0.66765811  0.37428948  1
  Mn  Mn98  1  0.24992894  0.83309756  0.37485661  1
  Mn  Mn99  1  0.24997594  0.66518537  0.62631116  1
  Mn  Mn100  1  0.00021259  0.66708453  0.24991044  1
  Mn  Mn101  1  -0.00017572  0.66724469  0.50052209  1
  Mn  Mn102  1  0.25030097  0.49975364  0.37515818  1
  Mn  Mn103  1  0.50058417  0.49943611  0.24999755  1
  Mn  Mn104  1  0.50103442  0.33440448  0.50089751  1
  Mn  Mn105  1  0.75035028  0.49997894  0.37462074  1
  Mn  Mn106  1  -0.00052618  0.49977023  0.50067499  1
  Mn  Mn107  1  -0.00004578  0.83393745  0.49955145  1
  Mn  Mn108  1  0.49997411  0.50118135  0.75017842  1
  Mn  Mn109  1  0.25007064  0.66635248  0.87582512  1
  Mn  Mn110  1  0.00016226  0.16679542  0.49915368  1
  Mn  Mn111  1  0.74932704  0.16726633  0.12511234  1
  Mn  Mn112  1  0.00039516  0.33310917  0.50053303  1
  Mn  Mn113  1  0.25057828  0.33272202  0.62520735  1
  Mn  Mn114  1  0.00072251  0.33304738  -0.00003312  1
  Mn  Mn115  1  0.50008776  0.66645103  0.24937611  1
  Mn  Mn116  1  0.75006482  0.00000269  0.87431694  1
  Mn  Mn117  1  0.24937383  0.50117215  0.12676907  1
  Mn  Mn118  1  0.50023700  0.33311543  0.75017728  1
  Mn  Mn119  1  0.25085771  0.33444337  0.87423498  1
  Mn  Mn120  1  0.00050797  -0.00001569  0.49969810  1
  Mn  Mn121  1  0.49970857  -0.00016336  0.24936967  1
  Mn  Mn122  1  0.75023252  0.33486445  0.12392500  1
  Mn  Mn123  1  0.00055790  -0.00043314  0.74992632  1
  Mn  Mn124  1  0.25057316  0.83362193  0.87565027  1
  Mn  Mn125  1  0.74949113  0.16728699  0.87482997  1
  Mn  Mn126  1  0.00060182  0.16519684  0.00050843  1
  Mn  Mn127  1  0.74935822  0.66621861  0.87497888  1
  Mn  Mn128  1  0.00068227  0.49973973  0.75095260  1
  Mn  Mn129  1  0.74985218  0.33347134  0.62498260  1
  Mn  Mn130  1  0.49932752  0.16756166  0.24937576  1
  Mn  Mn131  1  0.25016178  0.00005694  0.87491922  1
  Mn  Mn132  1  0.74964145  0.83292155  0.87403289  1
  Mn  Mn133  1  0.00041073  0.66751451  0.75157846  1
  Mn  Mn134  1  0.49963004  0.83353560  0.50076396  1
  Mn  Mn135  1  -0.00044168  0.16602778  0.24923534  1
  Mn  Mn136  1  0.50080272  0.16641659  0.50030670  1
  Mn  Mn137  1  0.25011124  0.33362076  0.12521921  1
  Mn  Mn138  1  0.25011166  0.16640985  0.87462376  1
  Mn  Mn139  1  0.25015907  0.83333261  0.62496538  1
  Mn  Mn140  1  0.25018796  0.16619384  0.12511876  1
  Mn  Mn141  1  0.00037614  0.49935332  0.25028338  1
  Mn  Mn142  1  0.74973091  0.16642887  0.37479818  1
  Mn  Mn143  1  0.74856492  -0.00085625  0.12552266  1
  Fe  Fe144  1  0.49999372  0.16658428  -0.00007048  1
  Fe  Fe145  1  0.25038184  -0.00034441  0.37462805  1
  Fe  Fe146  1  -0.00068941  0.66677838  0.00068043  1
  Fe  Fe147  1  0.74916289  0.83352011  0.37558399  1
  Fe  Fe148  1  0.50052963  0.66722576  0.75016430  1
  Fe  Fe149  1  0.49987657  0.83375521  -0.00156772  1
  Fe  Fe150  1  0.49968558  -0.00020000  -0.00111307  1
  Fe  Fe151  1  0.74904917  0.50043469  0.12460687  1
  Fe  Fe152  1  0.50125353  0.16630187  0.75077126  1
  Fe  Fe153  1  0.00007533  0.83310014  0.75123539  1
  Fe  Fe154  1  -0.00035668  0.33302188  0.24972311  1
  Fe  Fe155  1  -0.00075384  0.83336168  0.00052925  1
  Fe  Fe156  1  0.50015698  0.83349857  0.75012942  1
  Fe  Fe157  1  0.25060312  0.49914237  0.62492825  1
  Fe  Fe158  1  0.75022608  -0.00003656  0.62431875  1
  Fe  Fe159  1  0.25094139  -0.00000350  0.62397409  1
  Fe  Fe160  1  0.49976347  0.66707550  -0.00048462  1
  Fe  Fe161  1  0.74936270  0.83345612  0.12507276  1
  Fe  Fe162  1  0.75073858  0.16668746  0.62454857  1
  Fe  Fe163  1  0.50022448  0.00031918  0.50097685  1
  Fe  Fe164  1  0.75050958  0.33430794  0.87425184  1
  Fe  Fe165  1  -0.00107307  -0.00086364  0.24897499  1
  Fe  Fe166  1  0.74931595  -0.00054884  0.37569032  1
  Fe  Fe167  1  0.25065483  0.50046661  0.87597471  1
  Fe  Fe168  1  0.74927106  0.66688024  0.12485820  1
  Fe  Fe169  1  0.75036384  0.83343617  0.62445243  1
  Fe  Fe170  1  0.49997244  0.66731370  0.50026380  1
  Fe  Fe171  1  0.25105992  0.16567338  0.62378720  1
  Fe  Fe172  1  0.25020417  0.16576190  0.37496440  1
  Fe  Fe173  1  0.24975292  0.66678688  0.37500534  1
  Fe  Fe174  1  0.50012644  0.50002786  -0.00009981  1
  Fe  Fe175  1  0.24971334  0.33233135  0.37603609  1
  Fe  Fe176  1  0.00021216  0.33296227  0.75050676  1
  Fe  Fe177  1  0.24971882  0.83388524  0.12592743  1
  Fe  Fe178  1  -0.00096188  0.83347282  0.24907961  1
  Fe  Fe179  1  0.50020180  0.33308262  -0.00033105  1
  Fe  Fe180  1  0.74949012  0.33337937  0.37515503  1
  Fe  Fe181  1  0.24919337  -0.00001223  0.12555118  1
  Fe  Fe182  1  -0.00113764  -0.00108805  -0.00065876  1
  Fe  Fe183  1  0.49965221  0.33334076  0.24941456  1
  Fe  Fe184  1  0.75028232  0.66651502  0.62481610  1
  Fe  Fe185  1  0.49965411  0.50087388  0.49985562  1
  Fe  Fe186  1  0.25015264  0.66733950  0.12504696  1
  Fe  Fe187  1  0.75052015  0.50069372  0.87461363  1
  Fe  Fe188  1  0.00044765  0.16618508  0.75016958  1
  Fe  Fe189  1  0.50036797  0.00056887  0.75076582  1
  Fe  Fe190  1  0.74975963  0.49999663  0.62486761  1
  Fe  Fe191  1  -0.00047602  0.49958330  0.00028819  1
  P  P192  1  0.04302983  0.24952599  0.10351256  1
  P  P193  1  0.04214109  0.25077201  0.35192297  1
  P  P194  1  0.04305605  0.24938705  0.60415294  1
  P  P195  1  0.04217206  0.24949837  0.85168151  1
  P  P196  1  0.04090393  0.58293143  0.10172210  1
  P  P197  1  0.04301437  0.58340431  0.35326661  1
  P  P198  1  0.04282672  0.58347573  0.60393766  1
  P  P199  1  0.04240369  0.58351717  0.85517914  1
  P  P200  1  0.04033769  0.91658815  0.10213165  1
  P  P201  1  0.04116692  0.91632179  0.35047749  1
  P  P202  1  0.04321974  0.91657318  0.60339735  1
  P  P203  1  0.04211919  0.91501158  0.85363410  1
  P  P204  1  0.54148063  0.25033425  0.10132685  1
  P  P205  1  0.54204920  0.25163082  0.35216123  1
  P  P206  1  0.54338346  0.24964666  0.60391669  1
  P  P207  1  0.54255411  0.24874149  0.85340197  1
  P  P208  1  0.54133873  0.58348108  0.10093204  1
  P  P209  1  0.54281360  0.58365651  0.35362952  1
  P  P210  1  0.54131350  0.58427651  0.60179727  1
  P  P211  1  0.54229056  0.58528138  0.85307424  1
  P  P212  1  0.54072483  0.91677021  0.10046099  1
  P  P213  1  0.54228579  0.91675380  0.35356950  1
  P  P214  1  0.54197046  0.91817118  0.60376390  1
  P  P215  1  0.54155412  0.91673871  0.85174277  1
  P  P216  1  0.45692267  0.08357808  0.14576578  1
  P  P217  1  0.45797912  0.08226096  0.39792415  1
  P  P218  1  0.45956510  0.08333761  0.64872384  1
  P  P219  1  0.45886107  0.08352911  0.89775113  1
  P  P220  1  0.45788251  0.41528723  0.14659786  1
  P  P221  1  0.45790037  0.41804742  0.39761502  1
  P  P222  1  0.45776072  0.41750749  0.64689548  1
  P  P223  1  0.45908299  0.41661242  0.89859224  1
  P  P224  1  0.45766197  0.74993324  0.14535717  1
  P  P225  1  0.45741440  0.74909983  0.39797857  1
  P  P226  1  0.45885156  0.74986092  0.64841546  1
  P  P227  1  0.45857288  0.75005354  0.89750387  1
  P  P228  1  0.95680370  0.08103697  0.14670721  1
  P  P229  1  0.95726429  0.08267927  0.39574788  1
  P  P230  1  0.95833663  0.08436686  0.64755520  1
  P  P231  1  0.95777255  0.08206466  0.89688244  1
  P  P232  1  0.95771508  0.41549867  0.14712566  1
  P  P233  1  0.95692350  0.41613563  0.39666263  1
  P  P234  1  0.95770363  0.41535889  0.64844321  1
  P  P235  1  0.95810256  0.41709243  0.89739069  1
  P  P236  1  0.95778757  0.75103178  0.14652875  1
  P  P237  1  0.95681694  0.75058911  0.39626367  1
  P  P238  1  0.95775799  0.75153306  0.64844138  1
  P  P239  1  0.95792285  0.75040769  0.89906528  1
  P  P240  1  0.20765184  0.08201609  0.22835245  1
  P  P241  1  0.20897408  0.08244943  0.47662388  1
  P  P242  1  0.20941335  0.08291151  0.72569305  1
  P  P243  1  0.20707515  0.08292650  0.97850324  1
  P  P244  1  0.20716044  0.41609958  0.22945873  1
  P  P245  1  0.20796643  0.41495319  0.47815873  1
  P  P246  1  0.20847690  0.41804698  0.72799350  1
  P  P247  1  0.20790142  0.41835746  0.97780309  1
  P  P248  1  0.20845366  0.74984329  0.22689625  1
  P  P249  1  0.20769710  0.74851788  0.47756853  1
  P  P250  1  0.20747546  0.74974576  0.72876155  1
  P  P251  1  0.20786439  0.75032412  0.97974657  1
  P  P252  1  0.70632852  0.08326693  0.22865915  1
  P  P253  1  0.70818465  0.08170397  0.47826696  1
  P  P254  1  0.70908795  0.08370078  0.72593423  1
  P  P255  1  0.70672955  0.08315936  0.97782902  1
  P  P256  1  0.70707036  0.41827205  0.22707044  1
  P  P257  1  0.70777076  0.41585163  0.47763877  1
  P  P258  1  0.70791532  0.41830237  0.72800440  1
  P  P259  1  0.70895458  0.41775085  0.97600741  1
  P  P260  1  0.70776353  0.75061727  0.22648908  1
  P  P261  1  0.70813600  0.75118603  0.47833210  1
  P  P262  1  0.70865174  0.75004183  0.72576632  1
  P  P263  1  0.70718429  0.74991105  0.97850949  1
  P  P264  1  0.29303053  0.25025729  0.02187636  1
  P  P265  1  0.29145395  0.24972323  0.27394716  1
  P  P266  1  0.29263536  0.24815554  0.52174187  1
  P  P267  1  0.29338744  0.24956505  0.77120435  1
  P  P268  1  0.29208817  0.58443794  0.02315333  1
  P  P269  1  0.29240315  0.58533606  0.27263569  1
  P  P270  1  0.29242784  0.58156088  0.52260879  1
  P  P271  1  0.29295756  0.58165248  0.77303800  1
  P  P272  1  0.29090094  0.91713344  0.02406040  1
  P  P273  1  0.29191950  0.91760926  0.27184752  1
  P  P274  1  0.29269612  0.91751138  0.52190373  1
  P  P275  1  0.29328245  0.91702363  0.77140495  1
  P  P276  1  0.79243931  0.25076867  0.02101448  1
  P  P277  1  0.79173654  0.25173053  0.27234072  1
  P  P278  1  0.79235735  0.24885380  0.52215580  1
  P  P279  1  0.79212620  0.25139765  0.77207286  1
  P  P280  1  0.79071801  0.58322290  0.02313062  1
  P  P281  1  0.79236444  0.58390348  0.27066933  1
  P  P282  1  0.79143297  0.58307977  0.52330684  1
  P  P283  1  0.79213171  0.58262989  0.77173402  1
  P  P284  1  0.79167555  0.91535372  0.02264585  1
  P  P285  1  0.79019558  0.91607428  0.27347697  1
  P  P286  1  0.79146338  0.91654340  0.52270221  1
  P  P287  1  0.79224285  0.91664966  0.77033223  1
  O  O288  1  0.03751782  0.25007192  0.18338817  1
  O  O289  1  0.03705687  0.25037336  0.43192380  1
  O  O290  1  0.03791073  0.24920526  0.68411608  1
  O  O291  1  0.03740693  0.24907865  0.93171544  1
  O  O292  1  0.03648885  0.58313348  0.18175452  1
  O  O293  1  0.03781032  0.58353520  0.43322538  1
  O  O294  1  0.03804724  0.58353571  0.68398836  1
  O  O295  1  0.03670025  0.58320947  0.93504689  1
  O  O296  1  0.03489840  0.91668200  0.18202295  1
  O  O297  1  0.03700053  0.91659067  0.43055073  1
  O  O298  1  0.03854620  0.91632353  0.68335750  1
  O  O299  1  0.03626332  0.91553870  0.93347242  1
  O  O300  1  0.53621848  0.25104335  0.18129946  1
  O  O301  1  0.53745527  0.25135793  0.43216646  1
  O  O302  1  0.53817839  0.24900536  0.68386170  1
  O  O303  1  0.53687760  0.24876702  0.93328139  1
  O  O304  1  0.53673542  0.58286302  0.18092358  1
  O  O305  1  0.53751891  0.58372249  0.43353790  1
  O  O306  1  0.53630767  0.58482607  0.68178476  1
  O  O307  1  0.53698875  0.58521539  0.93290142  1
  O  O308  1  0.53622235  0.91639807  0.18047106  1
  O  O309  1  0.53719038  0.91701861  0.43353356  1
  O  O310  1  0.53672125  0.91809107  0.68364032  1
  O  O311  1  0.53627939  0.91646170  0.93162836  1
  O  O312  1  0.46227899  0.08377011  0.06589191  1
  O  O313  1  0.46282455  0.08287595  0.31793979  1
  O  O314  1  0.46465351  0.08283704  0.56878068  1
  O  O315  1  0.46457751  0.08351732  0.81788006  1
  O  O316  1  0.46322174  0.41542107  0.06671945  1
  O  O317  1  0.46285643  0.41744156  0.31764018  1
  O  O318  1  0.46309168  0.41817942  0.56699370  1
  O  O319  1  0.46368810  0.41698165  0.81861537  1
  O  O320  1  0.46278711  0.74994402  0.06544049  1
  O  O321  1  0.46230480  0.74932759  0.31798120  1
  O  O322  1  0.46367321  0.74965767  0.56842295  1
  O  O323  1  0.46376317  0.75020402  0.81761086  1
  O  O324  1  0.96194876  0.08084537  0.06671838  1
  O  O325  1  0.96204967  0.08199169  0.31574012  1
  O  O326  1  0.96305362  0.08416397  0.56752022  1
  O  O327  1  0.96348374  0.08296775  0.81695336  1
  O  O328  1  0.96325822  0.41642827  0.06719077  1
  O  O329  1  0.96199796  0.41561292  0.31667309  1
  O  O330  1  0.96262959  0.41567569  0.56843191  1
  O  O331  1  0.96359433  0.41636617  0.81748858  1
  O  O332  1  0.96318224  0.75095719  0.06664576  1
  O  O333  1  0.96194374  0.75084028  0.31627681  1
  O  O334  1  0.96261795  0.75121141  0.56844536  1
  O  O335  1  0.96291513  0.75060082  0.81909963  1
  O  O336  1  0.21188142  0.08254211  0.05848749  1
  O  O337  1  0.21304629  0.08196672  0.30822106  1
  O  O338  1  0.21427477  0.08276279  0.55653331  1
  O  O339  1  0.21394974  0.08310504  0.80571100  1
  O  O340  1  0.21263146  0.41796585  0.05783558  1
  O  O341  1  0.21245234  0.41551572  0.30938986  1
  O  O342  1  0.21365418  0.41544361  0.55808151  1
  O  O343  1  0.21393154  0.41846261  0.80794190  1
  O  O344  1  0.21295412  0.75040612  0.05967814  1
  O  O345  1  0.21310630  0.74956850  0.30691845  1
  O  O346  1  0.21292778  0.74880817  0.55751734  1
  O  O347  1  0.21270603  0.74992874  0.80872165  1
  O  O348  1  0.71130903  0.08306288  0.05784775  1
  O  O349  1  0.71173015  0.08284145  0.30863193  1
  O  O350  1  0.71393290  0.08190964  0.55812026  1
  O  O351  1  0.71389336  0.08375150  0.80593660  1
  O  O352  1  0.71353311  0.41807901  0.05599335  1
  O  O353  1  0.71208596  0.41756206  0.30698756  1
  O  O354  1  0.71308980  0.41635713  0.55756657  1
  O  O355  1  0.71365072  0.41824503  0.80784034  1
  O  O356  1  0.71211963  0.75015989  0.05841920  1
  O  O357  1  0.71272818  0.75089908  0.30647076  1
  O  O358  1  0.71394456  0.75070576  0.55814021  1
  O  O359  1  0.71299248  0.74948490  0.80581320  1
  O  O360  1  0.28650281  0.24963038  0.19395111  1
  O  O361  1  0.28707007  0.24838953  0.44189731  1
  O  O362  1  0.28840396  0.24913601  0.69121514  1
  O  O363  1  0.28810627  0.25036524  0.94190761  1
  O  O364  1  0.28697708  0.58565529  0.19269699  1
  O  O365  1  0.28712350  0.58242120  0.44272288  1
  O  O366  1  0.28773687  0.58121809  0.69308596  1
  O  O367  1  0.28713196  0.58351794  0.94319553  1
  O  O368  1  0.28626461  0.91749971  0.19199105  1
  O  O369  1  0.28734620  0.91743534  0.44194130  1
  O  O370  1  0.28836495  0.91746324  0.69141486  1
  O  O371  1  0.28658936  0.91674954  0.94403046  1
  O  O372  1  0.78664616  0.25161521  0.19234809  1
  O  O373  1  0.78674909  0.24945751  0.44226257  1
  O  O374  1  0.78706973  0.25087147  0.69214731  1
  O  O375  1  0.78725631  0.25118126  0.94106117  1
  O  O376  1  0.78670497  0.58371984  0.19082183  1
  O  O377  1  0.78680922  0.58364551  0.44329484  1
  O  O378  1  0.78705151  0.58283584  0.69183246  1
  O  O379  1  0.78614265  0.58309314  0.94311568  1
  O  O380  1  0.78488571  0.91582405  0.19354535  1
  O  O381  1  0.78592594  0.91660355  0.44281233  1
  O  O382  1  0.78708335  0.91670502  0.69040630  1
  O  O383  1  0.78707671  0.91566118  0.94264079  1
  O  O384  1  0.22856091  0.25002934  0.05680814  1
  O  O385  1  0.22732144  0.25000151  0.30986238  1
  O  O386  1  0.22861159  0.24818426  0.55806695  1
  O  O387  1  0.22897358  0.25030709  0.80634734  1
  O  O388  1  0.22775963  0.58517492  0.05872706  1
  O  O389  1  0.22812770  0.58477492  0.30835194  1
  O  O390  1  0.22820948  0.58110159  0.55852612  1
  O  O391  1  0.22862356  0.58149661  0.80868128  1
  O  O392  1  0.22663301  0.91749983  0.05955328  1
  O  O393  1  0.22783816  0.91772050  0.30815459  1
  O  O394  1  0.22845140  0.91784698  0.55767713  1
  O  O395  1  0.22881437  0.91667083  0.80641564  1
  O  O396  1  0.72805782  0.25086030  0.05626475  1
  O  O397  1  0.72746975  0.25149704  0.30799980  1
  O  O398  1  0.72819101  0.24850245  0.55815214  1
  O  O399  1  0.72787715  0.25179414  0.80772804  1
  O  O400  1  0.72650685  0.58291842  0.05891437  1
  O  O401  1  0.72830139  0.58384439  0.30676675  1
  O  O402  1  0.72718851  0.58249514  0.55895449  1
  O  O403  1  0.72785547  0.58210962  0.80752946  1
  O  O404  1  0.72713776  0.91478865  0.05768074  1
  O  O405  1  0.72621861  0.91578573  0.30988053  1
  O  O406  1  0.72752620  0.91645453  0.55932648  1
  O  O407  1  0.72791163  0.91672777  0.80581978  1
  O  O408  1  0.27177512  0.08157903  0.19217366  1
  O  O409  1  0.27303887  0.08204670  0.44035975  1
  O  O410  1  0.27370983  0.08236055  0.69011830  1
  O  O411  1  0.27162995  0.08326607  0.94367091  1
  O  O412  1  0.27151620  0.41699671  0.19414315  1
  O  O413  1  0.27205960  0.41464893  0.44196769  1
  O  O414  1  0.27266552  0.41777280  0.69206151  1
  O  O415  1  0.27240992  0.41854128  0.94263035  1
  O  O416  1  0.27265587  0.74955725  0.19117877  1
  O  O417  1  0.27201622  0.74849162  0.44200940  1
  O  O418  1  0.27184973  0.74962001  0.69358317  1
  O  O419  1  0.27212258  0.74996788  0.94409114  1
  O  O420  1  0.77063779  0.08304664  0.19323329  1
  O  O421  1  0.77209738  0.08184021  0.44167512  1
  O  O422  1  0.77326438  0.08363189  0.69012911  1
  O  O423  1  0.77128633  0.08342645  0.94314954  1
  O  O424  1  0.77147182  0.41930010  0.19160821  1
  O  O425  1  0.77197145  0.41517262  0.44171489  1
  O  O426  1  0.77194279  0.41851229  0.69157239  1
  O  O427  1  0.77320281  0.41798497  0.94031199  1
  O  O428  1  0.77190666  0.75092304  0.19045286  1
  O  O429  1  0.77208445  0.75201938  0.44169361  1
  O  O430  1  0.77298284  0.75061867  0.69054163  1
  O  O431  1  0.77147769  0.74981881  0.94297189  1
  O  O432  1  0.02109566  0.08119329  0.18228222  1
  O  O433  1  0.02177655  0.08305684  0.43071921  1
  O  O434  1  0.02271898  0.08420057  0.68281490  1
  O  O435  1  0.02190033  0.08091315  0.93294502  1
  O  O436  1  0.02191718  0.41465989  0.18311391  1
  O  O437  1  0.02136078  0.41670546  0.43180570  1
  O  O438  1  0.02211348  0.41473483  0.68375069  1
  O  O439  1  0.02228741  0.41801464  0.93329436  1
  O  O440  1  0.02188412  0.75167646  0.18276010  1
  O  O441  1  0.02129672  0.75025297  0.43131667  1
  O  O442  1  0.02214960  0.75178406  0.68386788  1
  O  O443  1  0.02200833  0.75061798  0.93509709  1
  O  O444  1  0.52115289  0.08383988  0.18149701  1
  O  O445  1  0.52237248  0.08158384  0.43333744  1
  O  O446  1  0.52367781  0.08338720  0.68491123  1
  O  O447  1  0.52274830  0.08350545  0.93443411  1
  O  O448  1  0.52207595  0.41482144  0.18268180  1
  O  O449  1  0.52220885  0.41892622  0.43326101  1
  O  O450  1  0.52200689  0.41724220  0.68242198  1
  O  O451  1  0.52332104  0.41636250  0.93417188  1
  O  O452  1  0.52195007  0.75006350  0.18100483  1
  O  O453  1  0.52180433  0.74922841  0.43332989  1
  O  O454  1  0.52302119  0.74963596  0.68436485  1
  O  O455  1  0.52259670  0.74953658  0.93377951  1
  O  O456  1  0.47738463  0.25004201  0.06521504  1
  O  O457  1  0.47757088  0.25189789  0.31695579  1
  O  O458  1  0.47911054  0.25007457  0.56847683  1
  O  O459  1  0.47851908  0.24829241  0.81701953  1
  O  O460  1  0.47711290  0.58382553  0.06531224  1
  O  O461  1  0.47855479  0.58318463  0.31798369  1
  O  O462  1  0.47721530  0.58392466  0.56566343  1
  O  O463  1  0.47808151  0.58594773  0.81708423  1
  O  O464  1  0.47652232  0.91710051  0.06483840  1
  O  O465  1  0.47794751  0.91645091  0.31817296  1
  O  O466  1  0.47788345  0.91846565  0.56748048  1
  O  O467  1  0.47757263  0.91737498  0.81537431  1
  O  O468  1  0.97877631  0.24932215  0.06800147  1
  O  O469  1  0.97782645  0.25101550  0.31634901  1
  O  O470  1  0.97870641  0.24949701  0.56870636  1
  O  O471  1  0.97792070  0.24994809  0.81601610  1
  O  O472  1  0.97663343  0.58234734  0.06620787  1
  O  O473  1  0.97862362  0.58331180  0.31813555  1
  O  O474  1  0.97824997  0.58365208  0.56917111  1
  O  O475  1  0.97833121  0.58341368  0.81913098  1
  O  O476  1  0.97635432  0.91638964  0.06554030  1
  O  O477  1  0.97666139  0.91582222  0.31541861  1
  O  O478  1  0.97865247  0.91696137  0.56859141  1
  O  O479  1  0.97808385  0.91519821  0.81718791  1
  O  O480  1  0.07443077  0.31260514  0.07485505  1
  O  O481  1  0.07287131  0.31436298  0.32384645  1
  O  O482  1  0.07420740  0.31286903  0.57589875  1
  O  O483  1  0.07306978  0.31327883  0.82397957  1
  O  O484  1  0.07091055  0.64715212  0.07357343  1
  O  O485  1  0.07393425  0.64683779  0.32480467  1
  O  O486  1  0.07383521  0.64690713  0.57568327  1
  O  O487  1  0.07351493  0.64714850  0.82720072  1
  O  O488  1  0.07112522  0.98015624  0.07352049  1
  O  O489  1  0.07140656  0.98016284  0.32191429  1
  O  O490  1  0.07411745  0.98008908  0.57486388  1
  O  O491  1  0.07376792  0.97823218  0.82540272  1
  O  O492  1  0.57249072  0.31374514  0.07260079  1
  O  O493  1  0.57268806  0.31512601  0.32354873  1
  O  O494  1  0.57454902  0.31330662  0.57630536  1
  O  O495  1  0.57344103  0.31258485  0.82561332  1
  O  O496  1  0.57243726  0.64699787  0.07315049  1
  O  O497  1  0.57369372  0.64719374  0.32497709  1
  O  O498  1  0.57209148  0.64789137  0.57334870  1
  O  O499  1  0.57369463  0.64824996  0.82396954  1
  O  O500  1  0.57176053  0.98043181  0.07261379  1
  O  O501  1  0.57333429  0.97995338  0.32482227  1
  O  O502  1  0.57298726  0.98142475  0.57487541  1
  O  O503  1  0.57315906  0.98006016  0.82377999  1
  O  O504  1  0.42598452  0.02008494  0.17419340  1
  O  O505  1  0.42701332  0.01893115  0.42636695  1
  O  O506  1  0.42847388  0.01997928  0.67725943  1
  O  O507  1  0.42789873  0.01971271  0.92577940  1
  O  O508  1  0.42683941  0.35202767  0.17556603  1
  O  O509  1  0.42716977  0.35442098  0.42591553  1
  O  O510  1  0.42677092  0.35375673  0.67458095  1
  O  O511  1  0.42800365  0.35299631  0.92632913  1
  O  O512  1  0.42667315  0.68650319  0.17391616  1
  O  O513  1  0.42695260  0.68549943  0.42660641  1
  O  O514  1  0.42747505  0.68665954  0.67680626  1
  O  O515  1  0.42697401  0.68698385  0.92600549  1
  O  O516  1  0.92591334  0.01779718  0.17564380  1
  O  O517  1  0.92635558  0.01946128  0.42479821  1
  O  O518  1  0.92715080  0.02082844  0.67533291  1
  O  O519  1  0.92635118  0.01857444  0.92456531  1
  O  O520  1  0.92672942  0.35183466  0.17496527  1
  O  O521  1  0.92603214  0.35287291  0.42546557  1
  O  O522  1  0.92676951  0.35192939  0.67679460  1
  O  O523  1  0.92729621  0.35341503  0.92542036  1
  O  O524  1  0.92695052  0.68722107  0.17432094  1
  O  O525  1  0.92575585  0.68713844  0.42469244  1
  O  O526  1  0.92692353  0.68782843  0.67642497  1
  O  O527  1  0.92763271  0.68628348  0.92734650  1
  O  O528  1  0.17649029  0.01879982  0.19949525  1
  O  O529  1  0.17755122  0.01911209  0.44842529  1
  O  O530  1  0.17827245  0.01941659  0.69769217  1
  O  O531  1  0.17617624  0.01963011  0.94969634  1
  O  O532  1  0.17636981  0.35286318  0.20051903  1
  O  O533  1  0.17718647  0.35118085  0.45027184  1
  O  O534  1  0.17742264  0.35417977  0.70069178  1
  O  O535  1  0.17704647  0.35477233  0.94951825  1
  O  O536  1  0.17693644  0.68684833  0.19825271  1
  O  O537  1  0.17698820  0.68497486  0.44922214  1
  O  O538  1  0.17640377  0.68610471  0.70114500  1
  O  O539  1  0.17647271  0.68708625  0.95136715  1
  O  O540  1  0.67473853  0.02018245  0.20033659  1
  O  O541  1  0.67735299  0.01817395  0.44970560  1
  O  O542  1  0.67823426  0.01998838  0.69803508  1
  O  O543  1  0.67613703  0.01956754  0.94934630  1
  O  O544  1  0.67651103  0.35465066  0.19844567  1
  O  O545  1  0.67695949  0.35216969  0.44945258  1
  O  O546  1  0.67668074  0.35469451  0.70020677  1
  O  O547  1  0.67879064  0.35364748  0.94770223  1
  O  O548  1  0.67766077  0.68645025  0.19823339  1
  O  O549  1  0.67738553  0.68751232  0.44994776  1
  O  O550  1  0.67859553  0.68604500  0.69711615  1
  O  O551  1  0.67618638  0.68643859  0.95006285  1
  O  O552  1  0.32380675  0.31382158  0.05014414  1
  O  O553  1  0.32253117  0.31322336  0.30197723  1
  O  O554  1  0.32422159  0.31141048  0.54979635  1
  O  O555  1  0.32468737  0.31304267  0.79913093  1
  O  O556  1  0.32304110  0.64805482  0.05106703  1
  O  O557  1  0.32296086  0.64873789  0.30161734  1
  O  O558  1  0.32348672  0.64494762  0.55112968  1
  O  O559  1  0.32355761  0.64573694  0.80056406  1
  O  O560  1  0.32190490  0.98072633  0.05187239  1
  O  O561  1  0.32309999  0.98084070  0.30049098  1
  O  O562  1  0.32380725  0.98072836  0.55054212  1
  O  O563  1  0.32422876  0.98029603  0.80023879  1
  O  O564  1  0.82384479  0.31394476  0.04936858  1
  O  O565  1  0.82208668  0.31542327  0.30086650  1
  O  O566  1  0.82360122  0.31220100  0.55032297  1
  O  O567  1  0.82269910  0.31511452  0.80051313  1
  O  O568  1  0.82075360  0.64736897  0.05148214  1
  O  O569  1  0.82354689  0.64742136  0.29882100  1
  O  O570  1  0.82166052  0.64704902  0.55183115  1
  O  O571  1  0.82288402  0.64633028  0.80020007  1
  O  O572  1  0.82222920  0.97910768  0.05083578  1
  O  O573  1  0.82054608  0.98016181  0.30153435  1
  O  O574  1  0.82243412  0.98015807  0.55104367  1
  O  O575  1  0.82345839  0.97995798  0.79885109  1
  O  O576  1  0.42559185  0.14680036  0.17451000  1
  O  O577  1  0.42752781  0.14620343  0.42594469  1
  O  O578  1  0.42888736  0.14722548  0.67661946  1
  O  O579  1  0.42756639  0.14687784  0.92603072  1
  O  O580  1  0.42697525  0.47899633  0.17470857  1
  O  O581  1  0.42690338  0.48154004  0.42594304  1
  O  O582  1  0.42653205  0.48063009  0.67563853  1
  O  O583  1  0.42871043  0.48052502  0.92703312  1
  O  O584  1  0.42646640  0.81324367  0.17397122  1
  O  O585  1  0.42620794  0.81256043  0.42598284  1
  O  O586  1  0.42870203  0.81404852  0.67658201  1
  O  O587  1  0.42826936  0.81414601  0.92600790  1
  O  O588  1  0.92572315  0.14481421  0.17431423  1
  O  O589  1  0.92629673  0.14638353  0.42353825  1
  O  O590  1  0.92778365  0.14791591  0.67623890  1
  O  O591  1  0.92702665  0.14570612  0.92519211  1
  O  O592  1  0.92677318  0.47905408  0.17531213  1
  O  O593  1  0.92581531  0.47975562  0.42467251  1
  O  O594  1  0.92702235  0.47920060  0.67622228  1
  O  O595  1  0.92686883  0.48051051  0.92557108  1
  O  O596  1  0.92644331  0.81420938  0.17519615  1
  O  O597  1  0.92586795  0.81396255  0.42478066  1
  O  O598  1  0.92711673  0.81508418  0.67691574  1
  O  O599  1  0.92641812  0.81359022  0.92723197  1
  O  O600  1  0.07401030  0.18577831  0.07575584  1
  O  O601  1  0.07305618  0.18702491  0.32422200  1
  O  O602  1  0.07413495  0.18618913  0.57505557  1
  O  O603  1  0.07260270  0.18562923  0.82333319  1
  O  O604  1  0.07219054  0.51951006  0.07382268  1
  O  O605  1  0.07417046  0.51997883  0.32526447  1
  O  O606  1  0.07349485  0.51978896  0.57580410  1
  O  O607  1  0.07402112  0.52048411  0.82658766  1
  O  O608  1  0.07162900  0.85304014  0.07420334  1
  O  O609  1  0.07211818  0.85274431  0.32228496  1
  O  O610  1  0.07418573  0.85332613  0.57456899  1
  O  O611  1  0.07273765  0.85129053  0.82531110  1
  O  O612  1  0.57243427  0.18650448  0.07376997  1
  O  O613  1  0.57277709  0.18783414  0.32421165  1
  O  O614  1  0.57443498  0.18647238  0.57501358  1
  O  O615  1  0.57387527  0.18555495  0.82470681  1
  O  O616  1  0.57161461  0.51951460  0.07245597  1
  O  O617  1  0.57433286  0.52055999  0.32497745  1
  O  O618  1  0.57214872  0.52046664  0.57397854  1
  O  O619  1  0.57285402  0.52135145  0.82494857  1
  O  O620  1  0.57114771  0.85301771  0.07175703  1
  O  O621  1  0.57326313  0.85311932  0.32541045  1
  O  O622  1  0.57294438  0.85443816  0.57583199  1
  O  O623  1  0.57193369  0.85285218  0.82304642  1
  O  O624  1  0.32405781  0.18683501  0.05013869  1
  O  O625  1  0.32187715  0.18565949  0.30192052  1
  O  O626  1  0.32339486  0.18451057  0.55038623  1
  O  O627  1  0.32414796  0.18613198  0.79984609  1
  O  O628  1  0.32296793  0.52097141  0.05171900  1
  O  O629  1  0.32373793  0.52159094  0.29994253  1
  O  O630  1  0.32314637  0.51779079  0.55059693  1
  O  O631  1  0.32415395  0.51869000  0.80223018  1
  O  O632  1  0.32119892  0.85324028  0.05263619  1
  O  O633  1  0.32310998  0.85396336  0.29982029  1
  O  O634  1  0.32350483  0.85361644  0.54963805  1
  O  O635  1  0.32432354  0.85352323  0.79969493  1
  O  O636  1  0.82321929  0.18706172  0.04923408  1
  O  O637  1  0.82309861  0.18811340  0.29976162  1
  O  O638  1  0.82311708  0.18511427  0.55031915  1
  O  O639  1  0.82334844  0.18794941  0.80010066  1
  O  O640  1  0.82207968  0.51999457  0.05144268  1
  O  O641  1  0.82384236  0.52075787  0.29927361  1
  O  O642  1  0.82255258  0.51950983  0.55114141  1
  O  O643  1  0.82335703  0.51952881  0.80076234  1
  O  O644  1  0.82253384  0.85200953  0.05136431  1
  O  O645  1  0.82164210  0.85282695  0.30162846  1
  O  O646  1  0.82269521  0.85306035  0.55092860  1
  O  O647  1  0.82322302  0.85320410  0.79893891  1
  O  O648  1  0.17672958  0.14579036  0.20046818  1
  O  O649  1  0.17844897  0.14625866  0.44789593  1
  O  O650  1  0.17919431  0.14691664  0.69739396  1
  O  O651  1  0.17611220  0.14643368  0.95006336  1
  O  O652  1  0.17581257  0.47973212  0.20181923  1
  O  O653  1  0.17665281  0.47837212  0.45024073  1
  O  O654  1  0.17750984  0.48124368  0.69905909  1
  O  O655  1  0.17730124  0.48201958  0.94960624  1
  O  O656  1  0.17842085  0.81418186  0.19881897  1
  O  O657  1  0.17663724  0.81218680  0.44964853  1
  O  O658  1  0.17645750  0.81308372  0.70032527  1
  O  O659  1  0.17694159  0.81383211  0.95126968  1
  O  O660  1  0.67567406  0.14712669  0.20069464  1
  O  O661  1  0.67655547  0.14508886  0.45040122  1
  O  O662  1  0.67844617  0.14754819  0.69792576  1
  O  O663  1  0.67569965  0.14654864  0.94955177  1
  O  O664  1  0.67592134  0.48163251  0.19858321  1
  O  O665  1  0.67682923  0.47943662  0.44959422  1
  O  O666  1  0.67677942  0.48157342  0.69915963  1
  O  O667  1  0.67762133  0.48096537  0.94754297  1
  O  O668  1  0.67633213  0.81381002  0.19806717  1
  O  O669  1  0.67656028  0.81442346  0.45015342  1
  O  O670  1  0.67736657  0.81350068  0.69797376  1
  O  O671  1  0.67601618  0.81312290  0.94956236  1
