# generated using pymatgen
data_Na2MnFe(PO4)2
_symmetry_space_group_name_H-M   'P 1'
_cell_length_a   22.34149747
_cell_length_b   20.09382605
_cell_length_c   19.44881516
_cell_angle_alpha   89.96728699
_cell_angle_beta   89.98255500
_cell_angle_gamma   90.05832254
_symmetry_Int_Tables_number   1
_chemical_formula_structural   Na2MnFe(PO4)2
_chemical_formula_sum   'Na96 Mn48 Fe48 P96 O384'
_cell_volume   8731.07563101
_cell_formula_units_Z   48
loop_
 _symmetry_equiv_pos_site_id
 _symmetry_equiv_pos_as_xyz
  1  'x, y, z'
loop_
 _atom_site_type_symbol
 _atom_site_label
 _atom_site_symmetry_multiplicity
 _atom_site_fract_x
 _atom_site_fract_y
 _atom_site_fract_z
 _atom_site_occupancy
  Na  Na0  1  0.14020265  0.25058820  0.24408376  1
  Na  Na1  1  0.13966867  0.25023814  0.49419120  1
  Na  Na2  1  0.13977098  0.25071840  0.74317933  1
  Na  Na3  1  0.14008337  0.24965094  0.99257471  1
  Na  Na4  1  0.14043036  0.58343989  0.24439675  1
  Na  Na5  1  0.14089183  0.58275967  0.49454790  1
  Na  Na6  1  0.14036689  0.58287042  0.74319336  1
  Na  Na7  1  0.14015937  0.58149457  0.99294625  1
  Na  Na8  1  0.14083784  0.91678426  0.24497793  1
  Na  Na9  1  0.14027870  0.91555745  0.49510162  1
  Na  Na10  1  0.14021174  0.91605566  0.74397006  1
  Na  Na11  1  0.14057401  0.91645499  0.99377051  1
  Na  Na12  1  0.63991643  0.25155097  0.24320710  1
  Na  Na13  1  0.64042385  0.25101817  0.49172175  1
  Na  Na14  1  0.64002789  0.25025357  0.74394197  1
  Na  Na15  1  0.64038082  0.25032943  0.99284083  1
  Na  Na16  1  0.64065437  0.58386257  0.24477806  1
  Na  Na17  1  0.64129830  0.58276501  0.49325367  1
  Na  Na18  1  0.64000756  0.58342061  0.74402666  1
  Na  Na19  1  0.64047521  0.58354989  0.99314598  1
  Na  Na20  1  0.64099328  0.91810725  0.24451340  1
  Na  Na21  1  0.64061518  0.91646728  0.49263814  1
  Na  Na22  1  0.63999754  0.91664894  0.74384365  1
  Na  Na23  1  0.64064359  0.91805349  0.99220884  1
  Na  Na24  1  0.35998481  0.08354835  0.00553789  1
  Na  Na25  1  0.35970300  0.08480173  0.25598559  1
  Na  Na26  1  0.35950730  0.08321659  0.50671058  1
  Na  Na27  1  0.36003496  0.08377201  0.75696575  1
  Na  Na28  1  0.35926035  0.41506823  0.00557542  1
  Na  Na29  1  0.35980142  0.41673083  0.25557943  1
  Na  Na30  1  0.36023287  0.41606908  0.50647771  1
  Na  Na31  1  0.35911923  0.41623239  0.75607959  1
  Na  Na32  1  0.35957134  0.74762885  0.00551095  1
  Na  Na33  1  0.35968450  0.75007727  0.25613054  1
  Na  Na34  1  0.36010106  0.74995105  0.50740703  1
  Na  Na35  1  0.36023335  0.74876787  0.75716462  1
  Na  Na36  1  0.85966629  0.08396622  0.00556866  1
  Na  Na37  1  0.85929699  0.08488871  0.25694696  1
  Na  Na38  1  0.85941191  0.08422389  0.50541339  1
  Na  Na39  1  0.85901332  0.08385409  0.75749665  1
  Na  Na40  1  0.85925271  0.41582591  0.00466921  1
  Na  Na41  1  0.85891202  0.41703210  0.25693764  1
  Na  Na42  1  0.85998345  0.41618277  0.50610991  1
  Na  Na43  1  0.85952304  0.41615583  0.75664724  1
  Na  Na44  1  0.85929543  0.74972757  0.00581557  1
  Na  Na45  1  0.85939322  0.74987901  0.25820737  1
  Na  Na46  1  0.86002910  0.74969435  0.50661666  1
  Na  Na47  1  0.85974050  0.75005350  0.75770294  1
  Na  Na48  1  0.10989852  0.08402192  0.11898445  1
  Na  Na49  1  0.10958587  0.08392911  0.36934195  1
  Na  Na50  1  0.10865542  0.08395333  0.61960237  1
  Na  Na51  1  0.10942207  0.08428916  0.86842681  1
  Na  Na52  1  0.10950433  0.41602184  0.11832755  1
  Na  Na53  1  0.10999242  0.41555215  0.36903763  1
  Na  Na54  1  0.11004707  0.41573673  0.61898400  1
  Na  Na55  1  0.10967068  0.41619260  0.86638427  1
  Na  Na56  1  0.10941524  0.74906799  0.11979192  1
  Na  Na57  1  0.10999451  0.75072362  0.36966525  1
  Na  Na58  1  0.10981937  0.75015313  0.61991997  1
  Na  Na59  1  0.10936037  0.74862156  0.86781385  1
  Na  Na60  1  0.61002604  0.08536463  0.11802687  1
  Na  Na61  1  0.60966584  0.08495166  0.36752594  1
  Na  Na62  1  0.60953784  0.08325234  0.61904249  1
  Na  Na63  1  0.60979073  0.08231593  0.86755382  1
  Na  Na64  1  0.60996651  0.41769421  0.11815682  1
  Na  Na65  1  0.61007458  0.41674184  0.36837242  1
  Na  Na66  1  0.61009320  0.41691821  0.61806755  1
  Na  Na67  1  0.60985196  0.41640258  0.86800425  1
  Na  Na68  1  0.61001540  0.75137446  0.11925909  1
  Na  Na69  1  0.61045869  0.75114119  0.36895934  1
  Na  Na70  1  0.60983613  0.74942176  0.61919011  1
  Na  Na71  1  0.60913139  0.75059053  0.86853869  1
  Na  Na72  1  0.39021492  0.25040832  0.13084880  1
  Na  Na73  1  0.39037576  0.25154922  0.38089451  1
  Na  Na74  1  0.39049657  0.25008616  0.63115487  1
  Na  Na75  1  0.38999090  0.24848226  0.88142405  1
  Na  Na76  1  0.39008689  0.58275803  0.12995511  1
  Na  Na77  1  0.39092378  0.58301663  0.38185903  1
  Na  Na78  1  0.39083493  0.58293495  0.63197400  1
  Na  Na79  1  0.38990549  0.58247275  0.88147508  1
  Na  Na80  1  0.39083765  0.91808995  0.13084947  1
  Na  Na81  1  0.39036784  0.91652060  0.38178596  1
  Na  Na82  1  0.39118459  0.91555422  0.63192252  1
  Na  Na83  1  0.39088145  0.91558848  0.88040675  1
  Na  Na84  1  0.88952916  0.24904879  0.13065606  1
  Na  Na85  1  0.88992613  0.24987028  0.38132238  1
  Na  Na86  1  0.89009196  0.25082483  0.63081943  1
  Na  Na87  1  0.88954690  0.25018547  0.88088696  1
  Na  Na88  1  0.88972123  0.58252698  0.13197300  1
  Na  Na89  1  0.89006819  0.58344612  0.38222743  1
  Na  Na90  1  0.89060027  0.58268643  0.63213489  1
  Na  Na91  1  0.89012986  0.58243612  0.88033356  1
  Na  Na92  1  0.89043332  0.91680410  0.13149225  1
  Na  Na93  1  0.89021369  0.91740940  0.38241864  1
  Na  Na94  1  0.89030828  0.91632512  0.63181659  1
  Na  Na95  1  0.89000659  0.91658413  0.88177726  1
  Mn  Mn96  1  -0.00023195  0.83261009  0.00084361  1
  Mn  Mn97  1  0.25095546  0.66673004  0.37508405  1
  Mn  Mn98  1  0.49977182  0.16751224  0.49953637  1
  Mn  Mn99  1  0.00031133  0.83301812  0.25058020  1
  Mn  Mn100  1  0.00001167  0.49938737  -0.00038474  1
  Mn  Mn101  1  0.74961180  0.66632244  0.12549094  1
  Mn  Mn102  1  0.75011428  0.33421962  0.62448455  1
  Mn  Mn103  1  -0.00023956  0.66578657  -0.00043410  1
  Mn  Mn104  1  0.24988174  -0.00074645  0.37581567  1
  Mn  Mn105  1  0.49989269  -0.00021848  0.49962392  1
  Mn  Mn106  1  0.50061401  0.49967530  0.24994758  1
  Mn  Mn107  1  0.25061076  0.00077000  0.12466725  1
  Mn  Mn108  1  0.50015467  0.16642674  -0.00037828  1
  Mn  Mn109  1  -0.00047904  0.33195159  0.24930249  1
  Mn  Mn110  1  0.25050933  0.66621250  0.62513283  1
  Mn  Mn111  1  0.74996103  0.66623977  0.87544549  1
  Mn  Mn112  1  0.00037130  0.00079454  0.00027149  1
  Mn  Mn113  1  0.50012667  0.49987269  0.00002466  1
  Mn  Mn114  1  0.00070767  0.49940312  0.50080869  1
  Mn  Mn115  1  -0.00052609  0.00024252  0.75013877  1
  Mn  Mn116  1  0.24960374  0.16753669  0.62559239  1
  Mn  Mn117  1  0.50002555  0.83463284  0.24910028  1
  Mn  Mn118  1  0.75052081  0.00148167  0.12463404  1
  Mn  Mn119  1  0.49961948  0.33244471  0.74924442  1
  Mn  Mn120  1  0.24979508  -0.00061660  0.62581518  1
  Mn  Mn121  1  0.00066193  0.66737823  0.50152196  1
  Mn  Mn122  1  0.24943913  0.66482753  0.12542431  1
  Mn  Mn123  1  0.49981140  0.66738426  0.25066447  1
  Mn  Mn124  1  0.75003541  0.00018435  0.62475661  1
  Mn  Mn125  1  0.75017128  0.66569508  0.62568394  1
  Mn  Mn126  1  0.25045310  0.83216910  0.87502352  1
  Mn  Mn127  1  0.50060241  0.00174962  0.25044783  1
  Mn  Mn128  1  0.75024540  0.83414319  0.12579692  1
  Mn  Mn129  1  0.74973966  0.33369922  0.12477548  1
  Mn  Mn130  1  -0.00045671  0.33212811  -0.00094867  1
  Mn  Mn131  1  -0.00007095  0.00044521  0.50086366  1
  Mn  Mn132  1  0.75031949  0.83324256  0.62478116  1
  Mn  Mn133  1  0.50047773  0.66700934  0.50042305  1
  Mn  Mn134  1  -0.00035860  0.50004112  0.25012854  1
  Mn  Mn135  1  0.25013506  0.83258951  0.12461474  1
  Mn  Mn136  1  0.49971117  0.49993677  0.74991441  1
  Mn  Mn137  1  0.00017204  0.00104591  0.25106005  1
  Mn  Mn138  1  0.74945481  0.16705814  0.62459402  1
  Mn  Mn139  1  0.25059191  0.49905897  0.37502639  1
  Mn  Mn140  1  0.24994618  0.16781685  0.37601056  1
  Mn  Mn141  1  0.24935767  0.33322451  0.12398894  1
  Mn  Mn142  1  0.49989643  0.83366470  -0.00052366  1
  Mn  Mn143  1  0.25040769  0.00033509  0.87463848  1
  Fe  Fe144  1  -0.00003464  0.83322032  0.75062340  1
  Fe  Fe145  1  0.74959409  0.83362723  0.87540347  1
  Fe  Fe146  1  0.75067961  0.83343965  0.37518622  1
  Fe  Fe147  1  0.50009077  0.83271904  0.75062100  1
  Fe  Fe148  1  0.74994104  0.33408876  0.37425634  1
  Fe  Fe149  1  0.75051628  0.66617143  0.37544568  1
  Fe  Fe150  1  0.50035871  0.33301380  -0.00040378  1
  Fe  Fe151  1  0.75051210  0.50014952  0.37503055  1
  Fe  Fe152  1  -0.00014742  0.33299782  0.50016238  1
  Fe  Fe153  1  0.74993813  0.50012516  0.12520510  1
  Fe  Fe154  1  0.74997478  0.00039660  0.87532898  1
  Fe  Fe155  1  -0.00008840  0.49943863  0.74949842  1
  Fe  Fe156  1  -0.00030236  0.83343087  0.50087849  1
  Fe  Fe157  1  0.24995238  0.16713482  0.12497931  1
  Fe  Fe158  1  0.49971475  0.16811004  0.24896536  1
  Fe  Fe159  1  0.74915897  0.33365189  0.87488275  1
  Fe  Fe160  1  -0.00011766  0.66657333  0.25105338  1
  Fe  Fe161  1  0.24950020  0.66526299  0.87495835  1
  Fe  Fe162  1  0.74958625  0.16738171  0.12459878  1
  Fe  Fe163  1  0.24970445  0.49874957  0.12403475  1
  Fe  Fe164  1  0.25040413  0.83273082  0.62546313  1
  Fe  Fe165  1  0.25052435  0.83298524  0.37524714  1
  Fe  Fe166  1  0.24936126  0.16694048  0.87489129  1
  Fe  Fe167  1  0.50031018  0.00015807  -0.00101870  1
  Fe  Fe168  1  -0.00022032  0.16674027  -0.00062447  1
  Fe  Fe169  1  0.50009183  -0.00045505  0.74926973  1
  Fe  Fe170  1  -0.00109950  0.16732095  0.74921536  1
  Fe  Fe171  1  0.25032195  0.33349573  0.62547092  1
  Fe  Fe172  1  0.24963020  0.49894282  0.87421646  1
  Fe  Fe173  1  0.50053512  0.83321879  0.50102561  1
  Fe  Fe174  1  0.24974868  0.33313007  0.87479059  1
  Fe  Fe175  1  0.25030769  0.49946328  0.62519410  1
  Fe  Fe176  1  0.49972848  0.33403822  0.24991283  1
  Fe  Fe177  1  0.50061732  0.49980823  0.50029278  1
  Fe  Fe178  1  0.50043589  0.16624267  0.74989151  1
  Fe  Fe179  1  -0.00045865  0.16719216  0.50026445  1
  Fe  Fe180  1  0.74972439  0.49975284  0.87483624  1
  Fe  Fe181  1  0.74943998  0.16703111  0.87483664  1
  Fe  Fe182  1  -0.00026849  0.33269563  0.74940192  1
  Fe  Fe183  1  0.24992995  0.33383540  0.37491290  1
  Fe  Fe184  1  0.50016131  0.66691322  -0.00022197  1
  Fe  Fe185  1  -0.00045018  0.66663197  0.74993452  1
  Fe  Fe186  1  0.00002847  0.16677389  0.25020206  1
  Fe  Fe187  1  0.75000216  0.00100491  0.37454913  1
  Fe  Fe188  1  0.74949456  0.16745205  0.37446087  1
  Fe  Fe189  1  0.50048263  0.66612646  0.74990409  1
  Fe  Fe190  1  0.74991694  0.49952975  0.62444125  1
  Fe  Fe191  1  0.50069519  0.33325912  0.49977371  1
  P  P192  1  0.04209001  0.24809438  0.10213073  1
  P  P193  1  0.04193314  0.24869256  0.35324145  1
  P  P194  1  0.04093224  0.25016128  0.60227401  1
  P  P195  1  0.04105410  0.24959540  0.85112553  1
  P  P196  1  0.04257311  0.58305406  0.10353464  1
  P  P197  1  0.04239943  0.58436418  0.35314875  1
  P  P198  1  0.04285800  0.58307715  0.60469293  1
  P  P199  1  0.04123037  0.58284419  0.85072629  1
  P  P200  1  0.04306515  0.91679939  0.10356645  1
  P  P201  1  0.04258121  0.91678392  0.35436402  1
  P  P202  1  0.04172843  0.91522786  0.60370792  1
  P  P203  1  0.04209865  0.91579524  0.85267491  1
  P  P204  1  0.54220976  0.25172892  0.10256348  1
  P  P205  1  0.54129584  0.25105827  0.35129233  1
  P  P206  1  0.54286140  0.25078689  0.60231332  1
  P  P207  1  0.54200445  0.24857804  0.85237414  1
  P  P208  1  0.54255846  0.58492076  0.10227152  1
  P  P209  1  0.54272621  0.58318832  0.35390736  1
  P  P210  1  0.54262002  0.58246031  0.60267079  1
  P  P211  1  0.54193913  0.58442614  0.85281420  1
  P  P212  1  0.54280352  0.91892089  0.10166796  1
  P  P213  1  0.54310725  0.91705839  0.35346933  1
  P  P214  1  0.54234136  0.91565256  0.60336999  1
  P  P215  1  0.54129197  0.91697836  0.85146904  1
  P  P216  1  0.45801435  0.08515436  0.14697763  1
  P  P217  1  0.45698841  0.08437872  0.39642852  1
  P  P218  1  0.45841929  0.08337481  0.64826274  1
  P  P219  1  0.45821784  0.08167748  0.89614858  1
  P  P220  1  0.45804699  0.41546622  0.14689623  1
  P  P221  1  0.45912773  0.41636604  0.39830198  1
  P  P222  1  0.45757311  0.41651278  0.64584198  1
  P  P223  1  0.45780885  0.41495503  0.89747104  1
  P  P224  1  0.45725395  0.75018367  0.14618669  1
  P  P225  1  0.45797974  0.75164692  0.39823502  1
  P  P226  1  0.45917750  0.74960992  0.64863120  1
  P  P227  1  0.45795634  0.74847725  0.89663805  1
  P  P228  1  0.95761145  0.08498355  0.14750153  1
  P  P229  1  0.95781366  0.08513339  0.39779339  1
  P  P230  1  0.95688440  0.08504614  0.64725555  1
  P  P231  1  0.95772037  0.08494764  0.89675306  1
  P  P232  1  0.95660882  0.41592612  0.14671372  1
  P  P233  1  0.95809792  0.41530688  0.39785042  1
  P  P234  1  0.95862713  0.41574482  0.64809439  1
  P  P235  1  0.95762067  0.41613224  0.89529336  1
  P  P236  1  0.95707413  0.74824216  0.14843845  1
  P  P237  1  0.95801541  0.75090351  0.39820992  1
  P  P238  1  0.95820299  0.75035926  0.64885630  1
  P  P239  1  0.95722281  0.74973390  0.89613023  1
  P  P240  1  0.20789431  0.08504733  0.22764553  1
  P  P241  1  0.20710295  0.08318597  0.47876259  1
  P  P242  1  0.20699002  0.08389922  0.72885521  1
  P  P243  1  0.20790376  0.08475326  0.97757742  1
  P  P244  1  0.20743872  0.41736935  0.22719661  1
  P  P245  1  0.20802542  0.41512803  0.47845720  1
  P  P246  1  0.20880608  0.41654545  0.72719205  1
  P  P247  1  0.20791870  0.41609158  0.97596710  1
  P  P248  1  0.20733060  0.74983176  0.22868009  1
  P  P249  1  0.20850899  0.75106599  0.47825883  1
  P  P250  1  0.20842276  0.74996546  0.72790798  1
  P  P251  1  0.20731404  0.74749324  0.97712798  1
  P  P252  1  0.70798706  0.08570218  0.22781730  1
  P  P253  1  0.70819469  0.08399087  0.47591887  1
  P  P254  1  0.70756446  0.08358735  0.72876865  1
  P  P255  1  0.70838108  0.08424276  0.97647395  1
  P  P256  1  0.70789846  0.41831951  0.22792709  1
  P  P257  1  0.70895825  0.41730375  0.47638643  1
  P  P258  1  0.70762116  0.41806618  0.72784946  1
  P  P259  1  0.70823153  0.41705347  0.97669043  1
  P  P260  1  0.70778854  0.75019141  0.22949586  1
  P  P261  1  0.70934990  0.74967579  0.47663265  1
  P  P262  1  0.70771769  0.75022547  0.72882093  1
  P  P263  1  0.70744174  0.75111787  0.97759729  1
  P  P264  1  0.29184922  0.24860138  0.02149816  1
  P  P265  1  0.29198215  0.25177390  0.27233140  1
  P  P266  1  0.29211333  0.25176503  0.52263260  1
  P  P267  1  0.29114622  0.25049098  0.77324563  1
  P  P268  1  0.29145058  0.58080444  0.02128310  1
  P  P269  1  0.29344750  0.58251071  0.27159358  1
  P  P270  1  0.29289814  0.58156826  0.52299775  1
  P  P271  1  0.29137741  0.58228659  0.77300325  1
  P  P272  1  0.29322820  0.91638285  0.02161937  1
  P  P273  1  0.29269666  0.91572411  0.27275424  1
  P  P274  1  0.29249198  0.91494018  0.52291954  1
  P  P275  1  0.29285722  0.91589666  0.77141687  1
  P  P276  1  0.79136039  0.24905929  0.02150654  1
  P  P277  1  0.79095332  0.25051701  0.27288737  1
  P  P278  1  0.79197149  0.25041441  0.52059587  1
  P  P279  1  0.79071507  0.25044646  0.77342869  1
  P  P280  1  0.79188085  0.58167150  0.02240059  1
  P  P281  1  0.79152266  0.58302449  0.27341217  1
  P  P282  1  0.79277672  0.58181440  0.52209743  1
  P  P283  1  0.79190083  0.58158071  0.77231647  1
  P  P284  1  0.79254186  0.91726149  0.02122724  1
  P  P285  1  0.79168212  0.91747741  0.27376960  1
  P  P286  1  0.79272137  0.91692950  0.52085331  1
  P  P287  1  0.79112076  0.91684718  0.77385545  1
  O  O288  1  0.03722597  0.24813636  0.18209708  1
  O  O289  1  0.03660669  0.24922425  0.43313191  1
  O  O290  1  0.03544395  0.25033324  0.68215552  1
  O  O291  1  0.03624865  0.24912349  0.93111145  1
  O  O292  1  0.03755410  0.58357235  0.18351617  1
  O  O293  1  0.03754631  0.58402136  0.43317852  1
  O  O294  1  0.03729534  0.58307554  0.68453432  1
  O  O295  1  0.03662198  0.58251653  0.93074753  1
  O  O296  1  0.03801416  0.91697925  0.18355657  1
  O  O297  1  0.03708058  0.91642037  0.43433051  1
  O  O298  1  0.03603010  0.91507889  0.68365417  1
  O  O299  1  0.03734269  0.91605592  0.93269100  1
  O  O300  1  0.53660508  0.25166325  0.18242061  1
  O  O301  1  0.53654818  0.25126988  0.43128257  1
  O  O302  1  0.53757047  0.24985928  0.68222599  1
  O  O303  1  0.53683257  0.24922361  0.93228424  1
  O  O304  1  0.53743120  0.58433391  0.18226070  1
  O  O305  1  0.53747364  0.58244641  0.43385621  1
  O  O306  1  0.53733423  0.58303339  0.68263820  1
  O  O307  1  0.53663280  0.58447228  0.93272643  1
  O  O308  1  0.53777163  0.91888113  0.18165119  1
  O  O309  1  0.53815051  0.91636787  0.43345805  1
  O  O310  1  0.53669451  0.91605112  0.68325616  1
  O  O311  1  0.53649748  0.91727186  0.93142918  1
  O  O312  1  0.46313320  0.08443653  0.06704251  1
  O  O313  1  0.46219782  0.08510272  0.31648802  1
  O  O314  1  0.46333889  0.08356767  0.56825469  1
  O  O315  1  0.46368478  0.08190995  0.81627538  1
  O  O316  1  0.46326653  0.41540872  0.06696287  1
  O  O317  1  0.46418613  0.41611930  0.31829213  1
  O  O318  1  0.46318790  0.41667780  0.56597625  1
  O  O319  1  0.46275491  0.41529872  0.81751211  1
  O  O320  1  0.46263065  0.74968738  0.06623617  1
  O  O321  1  0.46270116  0.75156901  0.31823992  1
  O  O322  1  0.46408340  0.75030020  0.56866950  1
  O  O323  1  0.46367197  0.74843141  0.81677645  1
  O  O324  1  0.96285818  0.08488277  0.06749863  1
  O  O325  1  0.96314364  0.08510920  0.31785495  1
  O  O326  1  0.96241896  0.08490951  0.56733683  1
  O  O327  1  0.96283202  0.08491994  0.81678659  1
  O  O328  1  0.96164775  0.41589624  0.06671195  1
  O  O329  1  0.96289996  0.41561161  0.31788114  1
  O  O330  1  0.96367650  0.41554204  0.56813173  1
  O  O331  1  0.96300618  0.41599459  0.81539193  1
  O  O332  1  0.96198741  0.74842298  0.06840504  1
  O  O333  1  0.96327970  0.74987848  0.31829872  1
  O  O334  1  0.96328383  0.75101293  0.56887199  1
  O  O335  1  0.96249873  0.74999558  0.81618389  1
  O  O336  1  0.21334196  0.08505691  0.05753526  1
  O  O337  1  0.21303476  0.08463833  0.30760630  1
  O  O338  1  0.21215479  0.08321876  0.55871395  1
  O  O339  1  0.21217244  0.08439879  0.80881053  1
  O  O340  1  0.21269318  0.41639508  0.05594731  1
  O  O341  1  0.21265402  0.41660467  0.30712355  1
  O  O342  1  0.21343391  0.41541811  0.55832262  1
  O  O343  1  0.21376418  0.41661050  0.80709814  1
  O  O344  1  0.21230414  0.74759889  0.05709851  1
  O  O345  1  0.21292203  0.75038895  0.30863695  1
  O  O346  1  0.21389754  0.75114849  0.55824123  1
  O  O347  1  0.21340580  0.74876555  0.80782954  1
  O  O348  1  0.71310969  0.08425000  0.05645249  1
  O  O349  1  0.71325592  0.08548266  0.30769326  1
  O  O350  1  0.71282394  0.08354727  0.55594304  1
  O  O351  1  0.71284778  0.08366646  0.80865096  1
  O  O352  1  0.71299922  0.41695049  0.05663958  1
  O  O353  1  0.71337233  0.41803965  0.30777512  1
  O  O354  1  0.71369788  0.41721230  0.55637448  1
  O  O355  1  0.71276207  0.41767969  0.80774990  1
  O  O356  1  0.71245318  0.75090258  0.05757958  1
  O  O357  1  0.71334284  0.75016935  0.30938342  1
  O  O358  1  0.71410445  0.74924473  0.55666326  1
  O  O359  1  0.71286277  0.75072428  0.80876062  1
  O  O360  1  0.28664642  0.25108546  0.19240068  1
  O  O361  1  0.28699657  0.25203211  0.44268511  1
  O  O362  1  0.28630078  0.25115957  0.69326133  1
  O  O363  1  0.28645037  0.24871185  0.94163495  1
  O  O364  1  0.28815475  0.58201316  0.19166614  1
  O  O365  1  0.28814546  0.58205421  0.44303721  1
  O  O366  1  0.28661623  0.58229017  0.69300379  1
  O  O367  1  0.28582001  0.58115135  0.94139837  1
  O  O368  1  0.28756795  0.91627464  0.19277270  1
  O  O369  1  0.28741993  0.91471845  0.44291659  1
  O  O370  1  0.28748027  0.91531142  0.69149060  1
  O  O371  1  0.28806822  0.91645146  0.94165750  1
  O  O372  1  0.78617409  0.25066710  0.19291605  1
  O  O373  1  0.78656005  0.25045431  0.44073969  1
  O  O374  1  0.78605209  0.25088938  0.69343836  1
  O  O375  1  0.78574294  0.24918190  0.94168402  1
  O  O376  1  0.78656389  0.58319066  0.19346991  1
  O  O377  1  0.78755570  0.58230753  0.44218286  1
  O  O378  1  0.78667775  0.58139028  0.69238482  1
  O  O379  1  0.78651781  0.58179770  0.94245009  1
  O  O380  1  0.78695292  0.91798119  0.19374557  1
  O  O381  1  0.78764138  0.91677574  0.44095516  1
  O  O382  1  0.78673212  0.91701333  0.69379469  1
  O  O383  1  0.78700887  0.91693572  0.94133473  1
  O  O384  1  0.22767977  0.24816034  0.05768032  1
  O  O385  1  0.22776571  0.25218377  0.30829597  1
  O  O386  1  0.22779630  0.25177673  0.55824319  1
  O  O387  1  0.22691122  0.25026137  0.80902590  1
  O  O388  1  0.22738095  0.58042053  0.05770234  1
  O  O389  1  0.22913820  0.58289914  0.30704978  1
  O  O390  1  0.22850118  0.58164396  0.55827475  1
  O  O391  1  0.22710259  0.58218909  0.80873398  1
  O  O392  1  0.22880272  0.91662020  0.05668592  1
  O  O393  1  0.22837041  0.91491935  0.30842533  1
  O  O394  1  0.22813091  0.91495321  0.55846518  1
  O  O395  1  0.22860093  0.91605768  0.80692612  1
  O  O396  1  0.72734047  0.24916987  0.05800008  1
  O  O397  1  0.72677910  0.25018599  0.30879209  1
  O  O398  1  0.72778508  0.25072638  0.55646211  1
  O  O399  1  0.72651751  0.24979531  0.80913111  1
  O  O400  1  0.72762038  0.58172782  0.05822785  1
  O  O401  1  0.72744253  0.58235662  0.30949901  1
  O  O402  1  0.72849386  0.58136856  0.55804380  1
  O  O403  1  0.72769019  0.58182899  0.80820357  1
  O  O404  1  0.72838164  0.91764024  0.05713416  1
  O  O405  1  0.72751793  0.91654318  0.30949727  1
  O  O406  1  0.72836587  0.91666324  0.55636328  1
  O  O407  1  0.72684472  0.91663592  0.80930124  1
  O  O408  1  0.27221010  0.08548362  0.19194400  1
  O  O409  1  0.27149279  0.08329218  0.44365380  1
  O  O410  1  0.27137374  0.08379420  0.69366334  1
  O  O411  1  0.27213214  0.08503551  0.94170865  1
  O  O412  1  0.27168790  0.41748115  0.19135020  1
  O  O413  1  0.27223745  0.41470357  0.44229678  1
  O  O414  1  0.27288782  0.41649608  0.69092114  1
  O  O415  1  0.27220229  0.41634727  0.94023820  1
  O  O416  1  0.27156196  0.74911758  0.19303827  1
  O  O417  1  0.27275305  0.75127738  0.44234997  1
  O  O418  1  0.27274693  0.75026405  0.69235772  1
  O  O419  1  0.27176114  0.74721057  0.94184969  1
  O  O420  1  0.77216896  0.08601476  0.19166853  1
  O  O421  1  0.77244201  0.08490700  0.44033323  1
  O  O422  1  0.77180560  0.08381260  0.69302623  1
  O  O423  1  0.77255994  0.08467354  0.94063046  1
  O  O424  1  0.77199258  0.41828374  0.19159506  1
  O  O425  1  0.77313019  0.41741908  0.44051533  1
  O  O426  1  0.77189158  0.41857315  0.69186163  1
  O  O427  1  0.77235976  0.41715574  0.94071315  1
  O  O428  1  0.77194552  0.75000898  0.19353624  1
  O  O429  1  0.77350935  0.75044136  0.44088400  1
  O  O430  1  0.77204505  0.74982945  0.69341298  1
  O  O431  1  0.77178143  0.75112560  0.94215192  1
  O  O432  1  0.02192104  0.08524827  0.18323873  1
  O  O433  1  0.02195550  0.08518274  0.43378351  1
  O  O434  1  0.02110260  0.08495024  0.68308280  1
  O  O435  1  0.02198185  0.08523297  0.93254862  1
  O  O436  1  0.02106903  0.41607339  0.18164911  1
  O  O437  1  0.02240341  0.41483576  0.43338645  1
  O  O438  1  0.02276335  0.41523273  0.68401511  1
  O  O439  1  0.02179763  0.41573978  0.93114960  1
  O  O440  1  0.02156536  0.74796566  0.18362976  1
  O  O441  1  0.02224286  0.75185141  0.43411077  1
  O  O442  1  0.02240140  0.74984110  0.68470565  1
  O  O443  1  0.02152618  0.74957481  0.93167393  1
  O  O444  1  0.52229850  0.08596421  0.18264781  1
  O  O445  1  0.52139969  0.08402092  0.43157701  1
  O  O446  1  0.52263985  0.08356828  0.68403160  1
  O  O447  1  0.52235424  0.08180818  0.93235098  1
  O  O448  1  0.52232890  0.41522136  0.18261317  1
  O  O449  1  0.52328195  0.41615006  0.43437231  1
  O  O450  1  0.52173282  0.41648461  0.68167049  1
  O  O451  1  0.52217770  0.41515208  0.93286269  1
  O  O452  1  0.52159623  0.75048993  0.18160226  1
  O  O453  1  0.52244609  0.75163258  0.43343787  1
  O  O454  1  0.52328614  0.74887456  0.68457769  1
  O  O455  1  0.52200052  0.74859158  0.93308265  1
  O  O456  1  0.47810393  0.25159720  0.06628155  1
  O  O457  1  0.47710134  0.25114326  0.31537167  1
  O  O458  1  0.47848579  0.25192826  0.56679091  1
  O  O459  1  0.47775698  0.24788527  0.81661916  1
  O  O460  1  0.47822799  0.58486702  0.06673318  1
  O  O461  1  0.47847022  0.58303994  0.31837118  1
  O  O462  1  0.47839126  0.58241861  0.56701143  1
  O  O463  1  0.47773043  0.58459396  0.81692230  1
  O  O464  1  0.47838659  0.91871456  0.06633970  1
  O  O465  1  0.47870605  0.91765537  0.31831371  1
  O  O466  1  0.47822599  0.91525738  0.56707204  1
  O  O467  1  0.47724958  0.91722238  0.81544679  1
  O  O468  1  0.97765170  0.24799078  0.06678512  1
  O  O469  1  0.97770903  0.24794059  0.31716270  1
  O  O470  1  0.97695811  0.25027725  0.56572313  1
  O  O471  1  0.97673664  0.25029306  0.81545809  1
  O  O472  1  0.97811655  0.58261748  0.06844048  1
  O  O473  1  0.97797308  0.58459020  0.31785401  1
  O  O474  1  0.97870998  0.58311263  0.56884615  1
  O  O475  1  0.97698068  0.58331028  0.81520164  1
  O  O476  1  0.97860125  0.91697158  0.06856939  1
  O  O477  1  0.97835368  0.91686447  0.31874624  1
  O  O478  1  0.97765867  0.91535026  0.56750749  1
  O  O479  1  0.97767515  0.91588970  0.81752053  1
  O  O480  1  0.07285905  0.31202531  0.07411345  1
  O  O481  1  0.07267354  0.31241039  0.32465472  1
  O  O482  1  0.07206219  0.31368908  0.57379489  1
  O  O483  1  0.07220172  0.31323893  0.82308089  1
  O  O484  1  0.07363770  0.64628778  0.07463037  1
  O  O485  1  0.07306599  0.64806246  0.32490288  1
  O  O486  1  0.07420542  0.64650810  0.57645488  1
  O  O487  1  0.07242724  0.64640348  0.82284519  1
  O  O488  1  0.07423542  0.98017916  0.07517765  1
  O  O489  1  0.07358639  0.98059108  0.32660139  1
  O  O490  1  0.07287479  0.97919105  0.57649276  1
  O  O491  1  0.07322160  0.97942517  0.82473616  1
  O  O492  1  0.57315490  0.31517997  0.07372263  1
  O  O493  1  0.57251366  0.31448531  0.32300967  1
  O  O494  1  0.57412107  0.31418938  0.57405490  1
  O  O495  1  0.57303927  0.31215320  0.82422641  1
  O  O496  1  0.57329542  0.64852673  0.07399662  1
  O  O497  1  0.57341045  0.64719467  0.32632492  1
  O  O498  1  0.57423996  0.64580659  0.57470842  1
  O  O499  1  0.57318052  0.64757562  0.82401375  1
  O  O500  1  0.57335456  0.98257118  0.07302835  1
  O  O501  1  0.57423562  0.98078086  0.32567261  1
  O  O502  1  0.57345313  0.97927721  0.57513352  1
  O  O503  1  0.57283498  0.98002366  0.82281877  1
  O  O504  1  0.42697543  0.02166226  0.17532021  1
  O  O505  1  0.42593008  0.02076366  0.42455650  1
  O  O506  1  0.42767042  0.01949533  0.67605571  1
  O  O507  1  0.42744070  0.01818198  0.92503526  1
  O  O508  1  0.42674381  0.35239957  0.17579870  1
  O  O509  1  0.42791764  0.35296779  0.42666606  1
  O  O510  1  0.42623664  0.35310399  0.67412432  1
  O  O511  1  0.42728848  0.35118879  0.92572744  1
  O  O512  1  0.42599342  0.68701210  0.17494949  1
  O  O513  1  0.42691421  0.68788058  0.42599987  1
  O  O514  1  0.42786022  0.68588029  0.67622745  1
  O  O515  1  0.42697126  0.68512116  0.92547831  1
  O  O516  1  0.92679892  0.02107182  0.17545822  1
  O  O517  1  0.92676708  0.02130655  0.42544321  1
  O  O518  1  0.92577565  0.02130404  0.67511067  1
  O  O519  1  0.92704371  0.02100009  0.92462345  1
  O  O520  1  0.92570815  0.35222296  0.17470911  1
  O  O521  1  0.92709797  0.35181102  0.42612033  1
  O  O522  1  0.92677602  0.35270369  0.67638423  1
  O  O523  1  0.92606467  0.35292438  0.92377909  1
  O  O524  1  0.92632154  0.68480876  0.17725445  1
  O  O525  1  0.92717036  0.68731731  0.42673252  1
  O  O526  1  0.92719466  0.68637595  0.67633613  1
  O  O527  1  0.92599757  0.68615327  0.92424399  1
  O  O528  1  0.17707743  0.02120639  0.19980461  1
  O  O529  1  0.17610554  0.01962494  0.45071802  1
  O  O530  1  0.17601424  0.02015590  0.70111594  1
  O  O531  1  0.17708732  0.02069971  0.95018399  1
  O  O532  1  0.17595877  0.35411066  0.19885193  1
  O  O533  1  0.17691645  0.35190037  0.44956927  1
  O  O534  1  0.17775486  0.35291980  0.69897946  1
  O  O535  1  0.17752760  0.35195957  0.94799526  1
  O  O536  1  0.17590475  0.68632113  0.20100887  1
  O  O537  1  0.17775915  0.68693148  0.45089875  1
  O  O538  1  0.17708287  0.68677504  0.69928926  1
  O  O539  1  0.17650496  0.68403606  0.94845879  1
  O  O540  1  0.67695739  0.02201033  0.19974448  1
  O  O541  1  0.67826492  0.01984438  0.44738177  1
  O  O542  1  0.67658940  0.02010457  0.70019374  1
  O  O543  1  0.67835250  0.02003315  0.94803690  1
  O  O544  1  0.67660650  0.35486125  0.19973243  1
  O  O545  1  0.67854653  0.35337998  0.44785521  1
  O  O546  1  0.67680013  0.35430026  0.69958392  1
  O  O547  1  0.67785445  0.35303681  0.94821247  1
  O  O548  1  0.67636187  0.68688658  0.20109240  1
  O  O549  1  0.67923823  0.68547702  0.44846640  1
  O  O550  1  0.67665305  0.68657115  0.70091389  1
  O  O551  1  0.67635793  0.68744015  0.94992133  1
  O  O552  1  0.32269314  0.31247476  0.04942333  1
  O  O553  1  0.32276436  0.31549537  0.30044796  1
  O  O554  1  0.32324841  0.31477576  0.55172533  1
  O  O555  1  0.32211777  0.31395324  0.80185266  1
  O  O556  1  0.32269772  0.64429643  0.04939838  1
  O  O557  1  0.32470270  0.64600721  0.29966388  1
  O  O558  1  0.32411571  0.64512301  0.55092230  1
  O  O559  1  0.32186648  0.64614430  0.80142527  1
  O  O560  1  0.32435061  0.97987405  0.04972030  1
  O  O561  1  0.32330138  0.97965154  0.30068692  1
  O  O562  1  0.32345491  0.97890496  0.55036625  1
  O  O563  1  0.32380564  0.97974593  0.79893641  1
  O  O564  1  0.82279404  0.31255906  0.04943675  1
  O  O565  1  0.82124262  0.31462249  0.30123092  1
  O  O566  1  0.82341953  0.31363474  0.54915233  1
  O  O567  1  0.82077207  0.31450854  0.80194959  1
  O  O568  1  0.82296485  0.64543007  0.05016866  1
  O  O569  1  0.82160452  0.64711608  0.30208860  1
  O  O570  1  0.82365955  0.64545936  0.55055631  1
  O  O571  1  0.82301277  0.64536843  0.79988103  1
  O  O572  1  0.82399292  0.98069996  0.04931015  1
  O  O573  1  0.82160998  0.98177407  0.30199780  1
  O  O574  1  0.82355983  0.98055271  0.54934187  1
  O  O575  1  0.82155111  0.98079954  0.80218563  1
  O  O576  1  0.42717087  0.14878229  0.17517453  1
  O  O577  1  0.42583070  0.14754923  0.42512182  1
  O  O578  1  0.42764885  0.14707994  0.67639670  1
  O  O579  1  0.42691672  0.14508907  0.92428545  1
  O  O580  1  0.42740765  0.47940723  0.17469480  1
  O  O581  1  0.42873054  0.48038450  0.42631034  1
  O  O582  1  0.42635632  0.47974537  0.67453552  1
  O  O583  1  0.42671798  0.47850276  0.92529667  1
  O  O584  1  0.42640026  0.81402635  0.17384822  1
  O  O585  1  0.42752508  0.81505480  0.42719358  1
  O  O586  1  0.42880193  0.81327154  0.67753195  1
  O  O587  1  0.42673417  0.81217105  0.92422832  1
  O  O588  1  0.92655142  0.14816179  0.17618851  1
  O  O589  1  0.92678463  0.14837359  0.42638753  1
  O  O590  1  0.92596859  0.14847030  0.67563190  1
  O  O591  1  0.92665336  0.14817174  0.92534234  1
  O  O592  1  0.92553355  0.47917549  0.17517315  1
  O  O593  1  0.92746558  0.47908659  0.42583220  1
  O  O594  1  0.92861542  0.47997701  0.67626057  1
  O  O595  1  0.92669827  0.47963010  0.92368735  1
  O  O596  1  0.92633303  0.81211391  0.17612177  1
  O  O597  1  0.92698858  0.81445807  0.42617801  1
  O  O598  1  0.92742579  0.81381012  0.67758623  1
  O  O599  1  0.92615083  0.81293856  0.92504582  1
  O  O600  1  0.07300239  0.18500286  0.07308089  1
  O  O601  1  0.07319523  0.18551335  0.32466248  1
  O  O602  1  0.07188758  0.18648173  0.57424114  1
  O  O603  1  0.07152316  0.18602772  0.82237855  1
  O  O604  1  0.07350569  0.51944541  0.07532803  1
  O  O605  1  0.07325875  0.52063969  0.32531394  1
  O  O606  1  0.07404982  0.51975587  0.57619200  1
  O  O607  1  0.07151008  0.51889538  0.82238557  1
  O  O608  1  0.07379927  0.85308261  0.07565072  1
  O  O609  1  0.07398373  0.85373044  0.32587537  1
  O  O610  1  0.07276556  0.85199563  0.57516912  1
  O  O611  1  0.07271332  0.85219350  0.82421367  1
  O  O612  1  0.57354522  0.18830188  0.07450739  1
  O  O613  1  0.57159898  0.18709322  0.32302141  1
  O  O614  1  0.57345006  0.18712674  0.57388327  1
  O  O615  1  0.57281193  0.18500463  0.82409601  1
  O  O616  1  0.57354035  0.52126930  0.07434524  1
  O  O617  1  0.57415563  0.52022479  0.32511481  1
  O  O618  1  0.57309549  0.51874413  0.57424355  1
  O  O619  1  0.57269646  0.52048075  0.82520519  1
  O  O620  1  0.57387491  0.85531737  0.07389309  1
  O  O621  1  0.57403572  0.85391854  0.32450056  1
  O  O622  1  0.57328413  0.85214648  0.57496210  1
  O  O623  1  0.57142532  0.85265856  0.82360846  1
  O  O624  1  0.32312227  0.18558635  0.05052886  1
  O  O625  1  0.32314076  0.18841955  0.30066904  1
  O  O626  1  0.32292624  0.18777308  0.55022177  1
  O  O627  1  0.32183126  0.18658178  0.80105255  1
  O  O628  1  0.32239440  0.51729307  0.04978934  1
  O  O629  1  0.32452969  0.51921963  0.30018581  1
  O  O630  1  0.32327960  0.51790126  0.55147188  1
  O  O631  1  0.32250041  0.51882887  0.80118241  1
  O  O632  1  0.32406069  0.85271043  0.04945569  1
  O  O633  1  0.32374442  0.85228888  0.30089651  1
  O  O634  1  0.32336385  0.85173942  0.55206457  1
  O  O635  1  0.32420898  0.85278242  0.79989430  1
  O  O636  1  0.82212554  0.18566173  0.05044397  1
  O  O637  1  0.82230571  0.18731729  0.30117356  1
  O  O638  1  0.82289025  0.18696914  0.54916631  1
  O  O639  1  0.82206117  0.18702696  0.80116279  1
  O  O640  1  0.82263660  0.51822455  0.05102108  1
  O  O641  1  0.82322745  0.51988059  0.30144708  1
  O  O642  1  0.82370945  0.51839601  0.55067825  1
  O  O643  1  0.82272209  0.51828879  0.80113066  1
  O  O644  1  0.82366849  0.85396561  0.04996458  1
  O  O645  1  0.82320133  0.85414928  0.30151877  1
  O  O646  1  0.82398878  0.85378308  0.54980904  1
  O  O647  1  0.82203894  0.85325129  0.80195616  1
  O  O648  1  0.17703563  0.14853749  0.19935936  1
  O  O649  1  0.17608367  0.14669080  0.45075288  1
  O  O650  1  0.17572197  0.14705286  0.70027520  1
  O  O651  1  0.17664408  0.14776945  0.94859532  1
  O  O652  1  0.17693076  0.48111360  0.19890395  1
  O  O653  1  0.17709898  0.47881652  0.45027501  1
  O  O654  1  0.17810288  0.48018659  0.69856199  1
  O  O655  1  0.17659998  0.47918931  0.94727237  1
  O  O656  1  0.17637501  0.81319132  0.20009933  1
  O  O657  1  0.17735580  0.81416128  0.44950783  1
  O  O658  1  0.17786560  0.81384745  0.69991378  1
  O  O659  1  0.17650785  0.81132417  0.94943215  1
  O  O660  1  0.67708361  0.14902554  0.19887710  1
  O  O661  1  0.67666887  0.14732340  0.44811292  1
  O  O662  1  0.67626574  0.14684125  0.70018268  1
  O  O663  1  0.67680025  0.14734399  0.94820994  1
  O  O664  1  0.67713589  0.48181437  0.19921245  1
  O  O665  1  0.67775446  0.48067548  0.44831812  1
  O  O666  1  0.67655682  0.48128059  0.69898461  1
  O  O667  1  0.67698931  0.48036359  0.94837951  1
  O  O668  1  0.67666840  0.81366176  0.20114296  1
  O  O669  1  0.67794449  0.81305871  0.44886563  1
  O  O670  1  0.67666714  0.81342227  0.70004800  1
  O  O671  1  0.67680529  0.81471329  0.94908840  1
