# generated using pymatgen
data_Na2MnFe(PO4)2
_symmetry_space_group_name_H-M   'P 1'
_cell_length_a   22.34374573
_cell_length_b   20.09233556
_cell_length_c   19.44937183
_cell_angle_alpha   89.96972567
_cell_angle_beta   90.01542671
_cell_angle_gamma   90.01521391
_symmetry_Int_Tables_number   1
_chemical_formula_structural   Na2MnFe(PO4)2
_chemical_formula_sum   'Na96 Mn48 Fe48 P96 O384'
_cell_volume   8731.56096395
_cell_formula_units_Z   48
loop_
 _symmetry_equiv_pos_site_id
 _symmetry_equiv_pos_as_xyz
  1  'x, y, z'
loop_
 _atom_site_type_symbol
 _atom_site_label
 _atom_site_symmetry_multiplicity
 _atom_site_fract_x
 _atom_site_fract_y
 _atom_site_fract_z
 _atom_site_occupancy
  Na  Na0  1  0.13956663  0.24963960  0.24396594  1
  Na  Na1  1  0.13964407  0.24943501  0.49368597  1
  Na  Na2  1  0.13968462  0.24804079  0.74245863  1
  Na  Na3  1  0.14016883  0.24999443  0.99385531  1
  Na  Na4  1  0.14045484  0.58376961  0.24479361  1
  Na  Na5  1  0.14049483  0.58431620  0.49432114  1
  Na  Na6  1  0.14045470  0.58089853  0.74357353  1
  Na  Na7  1  0.14051722  0.58368462  0.99385320  1
  Na  Na8  1  0.14068438  0.91650011  0.24508769  1
  Na  Na9  1  0.14042306  0.91570809  0.49264674  1
  Na  Na10  1  0.14034077  0.91416881  0.74248150  1
  Na  Na11  1  0.14065934  0.91721827  0.99354786  1
  Na  Na12  1  0.63976454  0.25107268  0.24359453  1
  Na  Na13  1  0.64001901  0.24932213  0.49231327  1
  Na  Na14  1  0.64013304  0.24971737  0.74297286  1
  Na  Na15  1  0.64027675  0.25191461  0.99434245  1
  Na  Na16  1  0.64070264  0.58447096  0.24317167  1
  Na  Na17  1  0.64026328  0.58371968  0.49396902  1
  Na  Na18  1  0.63993386  0.58412331  0.74363941  1
  Na  Na19  1  0.64027665  0.58470427  0.99354318  1
  Na  Na20  1  0.64053249  0.91747488  0.24415644  1
  Na  Na21  1  0.64028557  0.91791756  0.49386677  1
  Na  Na22  1  0.64039898  0.91684836  0.74333570  1
  Na  Na23  1  0.64040483  0.91689001  0.99396851  1
  Na  Na24  1  0.35943452  0.08376081  0.00547217  1
  Na  Na25  1  0.35965509  0.08345065  0.25640760  1
  Na  Na26  1  0.35996426  0.08285279  0.50590449  1
  Na  Na27  1  0.35903705  0.08131671  0.75504896  1
  Na  Na28  1  0.35920011  0.41729656  0.00585491  1
  Na  Na29  1  0.35959155  0.41703677  0.25638034  1
  Na  Na30  1  0.36007460  0.41702584  0.50705515  1
  Na  Na31  1  0.35986060  0.41502419  0.75657328  1
  Na  Na32  1  0.36054844  0.75057664  0.00677165  1
  Na  Na33  1  0.36024481  0.75053438  0.25705537  1
  Na  Na34  1  0.36033534  0.75023944  0.50659103  1
  Na  Na35  1  0.36010777  0.74807557  0.75727147  1
  Na  Na36  1  0.85918943  0.08453271  0.00547628  1
  Na  Na37  1  0.85950275  0.08487518  0.25787978  1
  Na  Na38  1  0.85947313  0.08318156  0.50660940  1
  Na  Na39  1  0.85947693  0.08274936  0.75524940  1
  Na  Na40  1  0.85938468  0.41740692  0.00598485  1
  Na  Na41  1  0.85965659  0.41545154  0.25625429  1
  Na  Na42  1  0.85958563  0.41429729  0.50659393  1
  Na  Na43  1  0.85995281  0.41570113  0.75704363  1
  Na  Na44  1  0.85951067  0.75001859  0.00563710  1
  Na  Na45  1  0.85973454  0.75137536  0.25639753  1
  Na  Na46  1  0.86031020  0.75111888  0.50750799  1
  Na  Na47  1  0.85995444  0.75030199  0.75590372  1
  Na  Na48  1  0.10964296  0.08411062  0.11943655  1
  Na  Na49  1  0.10968337  0.08340714  0.36921002  1
  Na  Na50  1  0.10904856  0.08312736  0.61738834  1
  Na  Na51  1  0.10953737  0.08322645  0.86746183  1
  Na  Na52  1  0.10939758  0.41555654  0.11901459  1
  Na  Na53  1  0.10923819  0.41491128  0.36997700  1
  Na  Na54  1  0.10928553  0.41570402  0.61943956  1
  Na  Na55  1  0.10915313  0.41589991  0.86784357  1
  Na  Na56  1  0.11008101  0.74867569  0.11915904  1
  Na  Na57  1  0.11027779  0.74967997  0.36946702  1
  Na  Na58  1  0.10965296  0.75054091  0.61745311  1
  Na  Na59  1  0.10981522  0.74913289  0.86840785  1
  Na  Na60  1  0.60956147  0.08358147  0.11939051  1
  Na  Na61  1  0.60974392  0.08335269  0.36827014  1
  Na  Na62  1  0.60999868  0.08450772  0.61745550  1
  Na  Na63  1  0.60963037  0.08390018  0.86765088  1
  Na  Na64  1  0.60988063  0.41738515  0.11884255  1
  Na  Na65  1  0.60950942  0.41575808  0.36763812  1
  Na  Na66  1  0.60925749  0.41794627  0.61901110  1
  Na  Na67  1  0.60936108  0.41857068  0.86845184  1
  Na  Na68  1  0.60997355  0.75086067  0.11885747  1
  Na  Na69  1  0.60985773  0.74995362  0.36925096  1
  Na  Na70  1  0.60970008  0.75158053  0.61951281  1
  Na  Na71  1  0.60956697  0.75008170  0.86883321  1
  Na  Na72  1  0.39011571  0.24975907  0.13140711  1
  Na  Na73  1  0.39040895  0.24941868  0.38084171  1
  Na  Na74  1  0.39035056  0.25146193  0.63151973  1
  Na  Na75  1  0.39022111  0.25024502  0.88054109  1
  Na  Na76  1  0.39060663  0.58491630  0.13187627  1
  Na  Na77  1  0.39073948  0.58353709  0.38127918  1
  Na  Na78  1  0.39102384  0.58416366  0.63211683  1
  Na  Na79  1  0.39024468  0.58401827  0.88154729  1
  Na  Na80  1  0.39075214  0.91586064  0.13163574  1
  Na  Na81  1  0.39030841  0.91529677  0.38183202  1
  Na  Na82  1  0.39027495  0.91667460  0.63106312  1
  Na  Na83  1  0.39037612  0.91489486  0.88099406  1
  Na  Na84  1  0.88986494  0.25022342  0.13217215  1
  Na  Na85  1  0.88987137  0.24906374  0.38191914  1
  Na  Na86  1  0.89004653  0.25004012  0.63110811  1
  Na  Na87  1  0.88995196  0.25051008  0.88043398  1
  Na  Na88  1  0.89049323  0.58123463  0.13100305  1
  Na  Na89  1  0.89054391  0.58274975  0.38158791  1
  Na  Na90  1  0.89091693  0.58364904  0.63167341  1
  Na  Na91  1  0.89033783  0.58228486  0.88088942  1
  Na  Na92  1  0.89033127  0.91707522  0.13142406  1
  Na  Na93  1  0.89080417  0.91730892  0.38318918  1
  Na  Na94  1  0.89009957  0.91738014  0.63122138  1
  Na  Na95  1  0.89022397  0.91615887  0.88021328  1
  Mn  Mn96  1  0.50034100  0.50027180  0.25037103  1
  Mn  Mn97  1  0.75003363  0.66696521  0.87500946  1
  Mn  Mn98  1  0.75057927  0.49911259  0.37414568  1
  Mn  Mn99  1  0.25051501  0.83217867  0.62444861  1
  Mn  Mn100  1  0.25058008  0.00087658  0.12396317  1
  Mn  Mn101  1  0.74986482  0.00070068  0.12506203  1
  Mn  Mn102  1  0.25047968  0.83317276  0.12538168  1
  Mn  Mn103  1  0.00036035  -0.00018362  0.74888572  1
  Mn  Mn104  1  0.24975062  0.50148879  0.12608036  1
  Mn  Mn105  1  0.00027435  0.00082062  0.25105053  1
  Mn  Mn106  1  0.00044155  0.66678213  0.75002009  1
  Mn  Mn107  1  0.74891764  0.33180967  0.62572697  1
  Mn  Mn108  1  0.49993444  0.16718017  0.49949310  1
  Mn  Mn109  1  0.24962307  0.33197759  0.87560042  1
  Mn  Mn110  1  0.75045690  0.66768327  0.12429387  1
  Mn  Mn111  1  0.49990701  -0.00088905  0.24927610  1
  Mn  Mn112  1  0.75060703  0.66743916  0.37467349  1
  Mn  Mn113  1  0.74997838  0.83518886  0.37584227  1
  Mn  Mn114  1  0.25001098  0.66608426  0.87516371  1
  Mn  Mn115  1  -0.00014449  0.16695194  -0.00046573  1
  Mn  Mn116  1  0.24948887  0.50113546  0.37613809  1
  Mn  Mn117  1  0.75013644  0.49933216  0.62425260  1
  Mn  Mn118  1  0.50043648  0.16718980  -0.00054070  1
  Mn  Mn119  1  0.50023826  0.50071026  0.49984694  1
  Mn  Mn120  1  0.49956412  -0.00083811  -0.00037894  1
  Mn  Mn121  1  0.74970817  0.00032748  0.87502183  1
  Mn  Mn122  1  0.24972223  -0.00091919  0.87484896  1
  Mn  Mn123  1  0.74940374  0.33362844  0.87497829  1
  Mn  Mn124  1  0.49988756  -0.00017143  0.74973689  1
  Mn  Mn125  1  0.00024944  0.83270740  0.00012111  1
  Mn  Mn126  1  0.49935384  0.16798976  0.74866397  1
  Mn  Mn127  1  0.49974638  0.33411314  -0.00010294  1
  Mn  Mn128  1  0.50005613  0.83313621  0.50041192  1
  Mn  Mn129  1  0.25057163  0.16611243  0.37528882  1
  Mn  Mn130  1  0.49939712  0.50159701  -0.00036608  1
  Mn  Mn131  1  -0.00021007  0.00009473  -0.00040726  1
  Mn  Mn132  1  0.24953141  0.33313755  0.12486066  1
  Mn  Mn133  1  0.00018445  0.83299601  0.25046636  1
  Mn  Mn134  1  0.00088670  0.49803929  0.25158911  1
  Mn  Mn135  1  0.00004548  0.33343101  0.00003356  1
  Mn  Mn136  1  -0.00054377  0.66479756  -0.00107450  1
  Mn  Mn137  1  0.74933095  0.16833274  0.12599536  1
  Mn  Mn138  1  -0.00022825  0.49912932  0.50061484  1
  Mn  Mn139  1  0.24997160  0.33339055  0.37497641  1
  Mn  Mn140  1  -0.00015206  0.66565026  0.25024379  1
  Mn  Mn141  1  0.24976208  0.16525783  0.62449273  1
  Mn  Mn142  1  0.75082901  0.66709294  0.62495659  1
  Mn  Mn143  1  0.25046281  0.49914219  0.62495775  1
  Fe  Fe144  1  0.00007189  0.00050939  0.50036773  1
  Fe  Fe145  1  0.74990900  0.83408833  0.62527445  1
  Fe  Fe146  1  -0.00040604  0.16650268  0.25077953  1
  Fe  Fe147  1  0.00005133  0.83342656  0.49983993  1
  Fe  Fe148  1  0.50000139  0.83313321  0.75059001  1
  Fe  Fe149  1  0.49956936  0.16642413  0.25004307  1
  Fe  Fe150  1  0.24980955  0.33215874  0.62555197  1
  Fe  Fe151  1  -0.00072159  0.16688370  0.74896970  1
  Fe  Fe152  1  0.74999471  0.50040943  0.12494529  1
  Fe  Fe153  1  0.24985994  0.16652723  0.12511045  1
  Fe  Fe154  1  -0.00005001  0.16723762  0.49995646  1
  Fe  Fe155  1  0.74968995  0.50027063  0.87520214  1
  Fe  Fe156  1  0.25105489  0.66717248  0.37517120  1
  Fe  Fe157  1  -0.00031431  0.33210041  0.25038476  1
  Fe  Fe158  1  0.74933776  0.33312278  0.37504222  1
  Fe  Fe159  1  0.74935829  0.00054506  0.62499921  1
  Fe  Fe160  1  0.74979933  0.16580775  0.62417689  1
  Fe  Fe161  1  0.24952959  0.16561578  0.87405099  1
  Fe  Fe162  1  0.49957382  0.50121827  0.74986934  1
  Fe  Fe163  1  0.50008126  0.66758991  0.75047806  1
  Fe  Fe164  1  0.75039141  0.33420301  0.12473830  1
  Fe  Fe165  1  0.00001003  0.49971281  0.74954414  1
  Fe  Fe166  1  0.25003972  0.83241350  0.87468279  1
  Fe  Fe167  1  0.50066376  0.83267352  0.25067073  1
  Fe  Fe168  1  0.50069850  0.66692092  0.25032346  1
  Fe  Fe169  1  0.75073366  0.83444719  0.12524827  1
  Fe  Fe170  1  0.00013610  0.49882703  0.00013107  1
  Fe  Fe171  1  0.50038775  0.33472967  0.74997090  1
  Fe  Fe172  1  0.49984389  0.33395451  0.49962863  1
  Fe  Fe173  1  0.50040222  0.66717553  0.50066619  1
  Fe  Fe174  1  -0.00058972  0.33241763  0.50056708  1
  Fe  Fe175  1  -0.00006187  0.83351465  0.74902428  1
  Fe  Fe176  1  0.24994207  0.66627687  0.62490333  1
  Fe  Fe177  1  -0.00016361  0.33319277  0.74954271  1
  Fe  Fe178  1  0.25044325  0.83319254  0.37515871  1
  Fe  Fe179  1  0.74944081  0.16684314  0.37507456  1
  Fe  Fe180  1  0.50048976  0.83249021  0.00058140  1
  Fe  Fe181  1  0.49929338  0.33322255  0.24952951  1
  Fe  Fe182  1  0.24965359  -0.00147180  0.62484134  1
  Fe  Fe183  1  0.74937414  0.16684226  0.87486278  1
  Fe  Fe184  1  0.00030137  0.66669868  0.50096329  1
  Fe  Fe185  1  0.75006218  0.83391700  0.87460979  1
  Fe  Fe186  1  0.50032320  0.66745304  0.00037633  1
  Fe  Fe187  1  0.24986267  0.49930751  0.87476029  1
  Fe  Fe188  1  0.24997740  -0.00009661  0.37491898  1
  Fe  Fe189  1  0.50013280  -0.00027459  0.49922057  1
  Fe  Fe190  1  0.25025675  0.66746623  0.12507935  1
  Fe  Fe191  1  0.75054833  0.00071395  0.37546462  1
  P  P192  1  0.04230095  0.24962365  0.10390306  1
  P  P193  1  0.04117639  0.24925704  0.35274657  1
  P  P194  1  0.04116884  0.24974601  0.60230133  1
  P  P195  1  0.04108380  0.24980895  0.85074095  1
  P  P196  1  0.04234170  0.58095006  0.10245068  1
  P  P197  1  0.04278437  0.58297210  0.35454646  1
  P  P198  1  0.04220472  0.58382777  0.60307278  1
  P  P199  1  0.04222725  0.58112540  0.85238055  1
  P  P200  1  0.04314783  0.91696394  0.10324269  1
  P  P201  1  0.04243019  0.91663961  0.35457192  1
  P  P202  1  0.04137903  0.91638919  0.60130486  1
  P  P203  1  0.04242098  0.91523479  0.85163378  1
  P  P204  1  0.54236942  0.25043580  0.10390293  1
  P  P205  1  0.54094010  0.25019696  0.35140262  1
  P  P206  1  0.54204570  0.25254532  0.60215588  1
  P  P207  1  0.54233298  0.25181554  0.85172466  1
  P  P208  1  0.54223120  0.58551285  0.10295556  1
  P  P209  1  0.54280576  0.58476365  0.35286054  1
  P  P210  1  0.54215264  0.58531679  0.60342977  1
  P  P211  1  0.54113152  0.58459854  0.85186004  1
  P  P212  1  0.54232044  0.91497373  0.10276057  1
  P  P213  1  0.54218843  0.91539189  0.35275508  1
  P  P214  1  0.54213366  0.91803823  0.60250253  1
  P  P215  1  0.54212427  0.91490248  0.85283245  1
  P  P216  1  0.45776656  0.08407696  0.14738974  1
  P  P217  1  0.45823942  0.08216607  0.39672661  1
  P  P218  1  0.45729988  0.08336929  0.64569701  1
  P  P219  1  0.45725615  0.08332839  0.89627123  1
  P  P220  1  0.45757187  0.41648202  0.14767024  1
  P  P221  1  0.45773709  0.41554389  0.39711061  1
  P  P222  1  0.45865865  0.41752742  0.64817007  1
  P  P223  1  0.45717265  0.41770622  0.89586666  1
  P  P224  1  0.45902575  0.75029878  0.14842309  1
  P  P225  1  0.45845476  0.74846188  0.39738020  1
  P  P226  1  0.45858467  0.75039192  0.64871337  1
  P  P227  1  0.45871398  0.74982967  0.89810702  1
  P  P228  1  0.95713222  0.08465167  0.14815234  1
  P  P229  1  0.95873837  0.08410430  0.39877785  1
  P  P230  1  0.95807203  0.08473129  0.64616825  1
  P  P231  1  0.95718232  0.08368582  0.89566332  1
  P  P232  1  0.95793378  0.41503016  0.14795240  1
  P  P233  1  0.95763291  0.41405221  0.39788966  1
  P  P234  1  0.95828483  0.41630302  0.64813544  1
  P  P235  1  0.95780866  0.41752954  0.89671088  1
  P  P236  1  0.95719778  0.74923557  0.14689185  1
  P  P237  1  0.95859388  0.74963422  0.39897926  1
  P  P238  1  0.95823854  0.75132845  0.64659402  1
  P  P239  1  0.95729779  0.74971713  0.89596114  1
  P  P240  1  0.20797102  0.08378320  0.22781985  1
  P  P241  1  0.20797789  0.08139188  0.47778099  1
  P  P242  1  0.20712696  0.08063824  0.72706073  1
  P  P243  1  0.20743198  0.08460919  0.97719488  1
  P  P244  1  0.20685394  0.41702344  0.22852253  1
  P  P245  1  0.20736774  0.41630245  0.47916971  1
  P  P246  1  0.20798555  0.41441850  0.72787559  1
  P  P247  1  0.20738637  0.41784592  0.97742154  1
  P  P248  1  0.20831224  0.74895324  0.22853074  1
  P  P249  1  0.20934876  0.74946835  0.47687466  1
  P  P250  1  0.20795811  0.74783873  0.72746373  1
  P  P251  1  0.20778595  0.75096550  0.97764340  1
  P  P252  1  0.70733583  0.08403306  0.22929589  1
  P  P253  1  0.70833187  0.08340025  0.47709115  1
  P  P254  1  0.70809278  0.08360179  0.72658165  1
  P  P255  1  0.70709610  0.08523257  0.97747062  1
  P  P256  1  0.70861813  0.41650784  0.22669108  1
  P  P257  1  0.70735378  0.41516745  0.47704467  1
  P  P258  1  0.70723130  0.41690318  0.72851799  1
  P  P259  1  0.70747795  0.41864482  0.97808206  1
  P  P260  1  0.70828412  0.75224516  0.22741143  1
  P  P261  1  0.70781769  0.75102889  0.47880595  1
  P  P262  1  0.70834478  0.75161184  0.72776944  1
  P  P263  1  0.70824814  0.75211561  0.97757491  1
  P  P264  1  0.29198280  0.24825028  0.02211489  1
  P  P265  1  0.29267694  0.24959074  0.27142825  1
  P  P266  1  0.29226246  0.25062307  0.52274291  1
  P  P267  1  0.29171871  0.24782866  0.77195980  1
  P  P268  1  0.29250495  0.58505652  0.02274092  1
  P  P269  1  0.29254313  0.58519805  0.27273304  1
  P  P270  1  0.29269385  0.58489449  0.52263608  1
  P  P271  1  0.29212148  0.58128039  0.77237104  1
  P  P272  1  0.29322346  0.91635823  0.02139097  1
  P  P273  1  0.29169874  0.91694285  0.27358508  1
  P  P274  1  0.29207645  0.91746670  0.52163781  1
  P  P275  1  0.29218988  0.91434047  0.77205315  1
  P  P276  1  0.79211103  0.25175533  0.02244393  1
  P  P277  1  0.79086801  0.25068613  0.27356188  1
  P  P278  1  0.79131456  0.24825807  0.52181691  1
  P  P279  1  0.79153262  0.24808580  0.77217261  1
  P  P280  1  0.79196208  0.58225686  0.02198508  1
  P  P281  1  0.79302475  0.58330999  0.27102153  1
  P  P282  1  0.79354271  0.58307262  0.52153524  1
  P  P283  1  0.79229105  0.58220405  0.77255161  1
  P  P284  1  0.79226496  0.91614236  0.02211852  1
  P  P285  1  0.79298874  0.91879055  0.27290437  1
  P  P286  1  0.79123176  0.91784948  0.52362617  1
  P  P287  1  0.79180091  0.91603900  0.77168862  1
  O  O288  1  0.03709828  0.24951009  0.18381530  1
  O  O289  1  0.03598482  0.24920542  0.43266234  1
  O  O290  1  0.03595124  0.24963373  0.68215019  1
  O  O291  1  0.03664665  0.25012665  0.93074674  1
  O  O292  1  0.03733953  0.58129897  0.18244486  1
  O  O293  1  0.03738777  0.58369004  0.43446917  1
  O  O294  1  0.03691991  0.58326418  0.68300949  1
  O  O295  1  0.03678774  0.58071518  0.93231751  1
  O  O296  1  0.03808888  0.91716911  0.18325797  1
  O  O297  1  0.03684437  0.91664783  0.43445361  1
  O  O298  1  0.03670841  0.91612033  0.68130548  1
  O  O299  1  0.03724075  0.91570003  0.93157523  1
  O  O300  1  0.53679568  0.25019337  0.18380143  1
  O  O301  1  0.53632710  0.25044700  0.43140592  1
  O  O302  1  0.53684732  0.25258836  0.68209061  1
  O  O303  1  0.53732989  0.25134701  0.93169694  1
  O  O304  1  0.53717911  0.58538112  0.18291875  1
  O  O305  1  0.53775041  0.58458454  0.43283824  1
  O  O306  1  0.53654071  0.58508402  0.68327207  1
  O  O307  1  0.53636165  0.58472664  0.93183780  1
  O  O308  1  0.53715217  0.91485900  0.18272206  1
  O  O309  1  0.53682870  0.91613271  0.43267110  1
  O  O310  1  0.53704809  0.91762673  0.68236232  1
  O  O311  1  0.53692439  0.91471899  0.93277770  1
  O  O312  1  0.46269039  0.08400662  0.06742535  1
  O  O313  1  0.46347596  0.08284858  0.31678143  1
  O  O314  1  0.46265810  0.08287003  0.56574133  1
  O  O315  1  0.46234465  0.08336746  0.81627392  1
  O  O316  1  0.46246149  0.41719037  0.06768797  1
  O  O317  1  0.46293616  0.41546180  0.31716631  1
  O  O318  1  0.46327437  0.41758617  0.56815723  1
  O  O319  1  0.46254297  0.41764298  0.81596317  1
  O  O320  1  0.46413242  0.75043707  0.06850673  1
  O  O321  1  0.46387830  0.74862409  0.31756000  1
  O  O322  1  0.46359133  0.75024953  0.56878363  1
  O  O323  1  0.46375706  0.74986467  0.81822295  1
  O  O324  1  0.96191150  0.08439022  0.06813941  1
  O  O325  1  0.96349130  0.08415286  0.31881495  1
  O  O326  1  0.96367522  0.08468231  0.56632361  1
  O  O327  1  0.96256009  0.08386834  0.81571521  1
  O  O328  1  0.96300427  0.41590252  0.06799614  1
  O  O329  1  0.96315768  0.41369113  0.31799464  1
  O  O330  1  0.96315895  0.41562450  0.56818801  1
  O  O331  1  0.96317376  0.41750754  0.81684926  1
  O  O332  1  0.96220335  0.74909740  0.06690688  1
  O  O333  1  0.96351862  0.74946795  0.31896666  1
  O  O334  1  0.96381429  0.75094787  0.56670860  1
  O  O335  1  0.96269609  0.75031676  0.81600066  1
  O  O336  1  0.21278134  0.08497128  0.05714493  1
  O  O337  1  0.21348321  0.08281083  0.30775901  1
  O  O338  1  0.21295402  0.08113446  0.55771231  1
  O  O339  1  0.21230161  0.08131722  0.80698198  1
  O  O340  1  0.21259673  0.41779201  0.05736097  1
  O  O341  1  0.21193389  0.41699130  0.30850385  1
  O  O342  1  0.21290222  0.41552747  0.55910575  1
  O  O343  1  0.21318312  0.41484028  0.80780270  1
  O  O344  1  0.21283772  0.75046254  0.05760235  1
  O  O345  1  0.21386938  0.74899450  0.30840908  1
  O  O346  1  0.21385127  0.74930418  0.55687316  1
  O  O347  1  0.21297212  0.74868746  0.80738420  1
  O  O348  1  0.71217590  0.08508932  0.05742985  1
  O  O349  1  0.71274818  0.08369773  0.30920151  1
  O  O350  1  0.71352967  0.08354297  0.55702066  1
  O  O351  1  0.71279022  0.08381509  0.80655878  1
  O  O352  1  0.71299799  0.41855677  0.05796974  1
  O  O353  1  0.71363086  0.41574713  0.30667623  1
  O  O354  1  0.71209414  0.41514096  0.55702658  1
  O  O355  1  0.71248814  0.41753630  0.80845518  1
  O  O356  1  0.71375792  0.75211829  0.05750553  1
  O  O357  1  0.71333050  0.75179193  0.30739786  1
  O  O358  1  0.71312428  0.75126885  0.55875414  1
  O  O359  1  0.71355047  0.75164570  0.80773765  1
  O  O360  1  0.28741079  0.24919517  0.19148750  1
  O  O361  1  0.28739468  0.25045043  0.44274420  1
  O  O362  1  0.28641630  0.24870279  0.69200760  1
  O  O363  1  0.28651531  0.24802479  0.94213730  1
  O  O364  1  0.28727740  0.58549299  0.19279808  1
  O  O365  1  0.28747562  0.58514641  0.44268399  1
  O  O366  1  0.28707805  0.58179341  0.69249580  1
  O  O367  1  0.28739351  0.58426755  0.94284257  1
  O  O368  1  0.28724333  0.91673540  0.19357691  1
  O  O369  1  0.28671102  0.91746372  0.44177669  1
  O  O370  1  0.28701630  0.91482006  0.69208712  1
  O  O371  1  0.28797197  0.91561706  0.94147113  1
  O  O372  1  0.78613525  0.25161095  0.19359292  1
  O  O373  1  0.78586532  0.24883053  0.44195926  1
  O  O374  1  0.78617838  0.24772567  0.69222703  1
  O  O375  1  0.78680846  0.25109687  0.94255946  1
  O  O376  1  0.78753455  0.58303573  0.19105903  1
  O  O377  1  0.78864055  0.58322348  0.44152747  1
  O  O378  1  0.78739768  0.58253698  0.69256009  1
  O  O379  1  0.78644416  0.58212868  0.94202137  1
  O  O380  1  0.78800866  0.91818208  0.19295283  1
  O  O381  1  0.78651211  0.91868242  0.44364308  1
  O  O382  1  0.78636113  0.91617660  0.69182961  1
  O  O383  1  0.78671413  0.91598101  0.94217215  1
  O  O384  1  0.22776397  0.24813581  0.05804640  1
  O  O385  1  0.22835501  0.24941403  0.30677649  1
  O  O386  1  0.22784060  0.25043256  0.55794916  1
  O  O387  1  0.22745678  0.24764136  0.80774480  1
  O  O388  1  0.22815500  0.58565959  0.05833541  1
  O  O389  1  0.22828401  0.58549038  0.30848184  1
  O  O390  1  0.22838837  0.58428446  0.55824471  1
  O  O391  1  0.22788221  0.58133998  0.80819050  1
  O  O392  1  0.22891382  0.91666759  0.05672855  1
  O  O393  1  0.22750327  0.91701415  0.30924542  1
  O  O394  1  0.22793469  0.91691728  0.55781627  1
  O  O395  1  0.22792507  0.91413822  0.80776774  1
  O  O396  1  0.72786571  0.25260081  0.05828746  1
  O  O397  1  0.72663678  0.24998995  0.30934229  1
  O  O398  1  0.72714562  0.24783242  0.55786210  1
  O  O399  1  0.72734798  0.24859109  0.80807605  1
  O  O400  1  0.72784330  0.58277269  0.05798446  1
  O  O401  1  0.72875666  0.58337845  0.30654730  1
  O  O402  1  0.72901122  0.58345564  0.55627956  1
  O  O403  1  0.72792821  0.58233357  0.80794339  1
  O  O404  1  0.72811363  0.91594923  0.05820786  1
  O  O405  1  0.72853669  0.91960787  0.30821824  1
  O  O406  1  0.72705978  0.91733143  0.55944667  1
  O  O407  1  0.72772140  0.91621353  0.80798657  1
  O  O408  1  0.27217979  0.08481507  0.19184399  1
  O  O409  1  0.27229630  0.08139091  0.44224702  1
  O  O410  1  0.27144600  0.08046249  0.69144847  1
  O  O411  1  0.27167870  0.08435564  0.94139627  1
  O  O412  1  0.27122320  0.41699138  0.19338906  1
  O  O413  1  0.27162705  0.41702276  0.44368807  1
  O  O414  1  0.27222028  0.41417584  0.69207013  1
  O  O415  1  0.27168968  0.41737578  0.94187908  1
  O  O416  1  0.27247532  0.74853529  0.19230688  1
  O  O417  1  0.27358437  0.74964237  0.44129127  1
  O  O418  1  0.27234585  0.74764049  0.69199772  1
  O  O419  1  0.27212712  0.75111601  0.94210413  1
  O  O420  1  0.77150016  0.08421669  0.19348879  1
  O  O421  1  0.77238393  0.08369478  0.44065924  1
  O  O422  1  0.77230239  0.08361530  0.69076994  1
  O  O423  1  0.77142899  0.08511993  0.94194279  1
  O  O424  1  0.77274714  0.41649456  0.19059108  1
  O  O425  1  0.77187572  0.41486856  0.44210275  1
  O  O426  1  0.77152630  0.41599144  0.69312751  1
  O  O427  1  0.77159297  0.41853129  0.94182466  1
  O  O428  1  0.77257188  0.75207959  0.19184867  1
  O  O429  1  0.77213351  0.75116049  0.44345364  1
  O  O430  1  0.77255116  0.75185035  0.69195259  1
  O  O431  1  0.77236353  0.75156289  0.94158570  1
  O  O432  1  0.02160804  0.08532047  0.18342437  1
  O  O433  1  0.02290143  0.08449863  0.43457309  1
  O  O434  1  0.02209670  0.08497496  0.68253869  1
  O  O435  1  0.02153389  0.08339522  0.93108588  1
  O  O436  1  0.02221161  0.41392881  0.18368224  1
  O  O437  1  0.02178646  0.41430511  0.43387052  1
  O  O438  1  0.02247462  0.41676115  0.68398719  1
  O  O439  1  0.02200530  0.41782676  0.93288089  1
  O  O440  1  0.02167215  0.74930386  0.18192264  1
  O  O441  1  0.02284104  0.75032562  0.43471370  1
  O  O442  1  0.02236671  0.75152268  0.68278291  1
  O  O443  1  0.02157692  0.74907582  0.93145115  1
  O  O444  1  0.52206134  0.08368681  0.18278673  1
  O  O445  1  0.52236809  0.08223823  0.43277480  1
  O  O446  1  0.52157236  0.08385269  0.68117833  1
  O  O447  1  0.52166579  0.08295830  0.93136740  1
  O  O448  1  0.52191429  0.41599369  0.18308738  1
  O  O449  1  0.52202951  0.41576813  0.43283004  1
  O  O450  1  0.52280017  0.41721571  0.68404623  1
  O  O451  1  0.52136814  0.41792150  0.93168643  1
  O  O452  1  0.52314425  0.75072211  0.18471631  1
  O  O453  1  0.52254111  0.74870423  0.43367957  1
  O  O454  1  0.52275908  0.75062540  0.68475213  1
  O  O455  1  0.52282403  0.74946075  0.93447146  1
  O  O456  1  0.47816145  0.25023618  0.06807868  1
  O  O457  1  0.47677621  0.25042808  0.31555847  1
  O  O458  1  0.47777352  0.25208915  0.56641705  1
  O  O459  1  0.47795925  0.25239054  0.81627369  1
  O  O460  1  0.47794200  0.58609783  0.06722370  1
  O  O461  1  0.47851267  0.58467980  0.31725934  1
  O  O462  1  0.47811921  0.58528843  0.56694723  1
  O  O463  1  0.47700421  0.58506805  0.81591563  1
  O  O464  1  0.47804227  0.91475629  0.06705278  1
  O  O465  1  0.47799258  0.91463431  0.31684533  1
  O  O466  1  0.47789135  0.91821282  0.56666889  1
  O  O467  1  0.47787403  0.91505018  0.81704560  1
  O  O468  1  0.97802273  0.25006377  0.06828833  1
  O  O469  1  0.97710186  0.24921198  0.31628830  1
  O  O470  1  0.97704038  0.24939422  0.56604262  1
  O  O471  1  0.97677043  0.24964360  0.81532086  1
  O  O472  1  0.97797357  0.58051120  0.06688750  1
  O  O473  1  0.97855134  0.58216841  0.31895363  1
  O  O474  1  0.97801811  0.58403772  0.56724849  1
  O  O475  1  0.97806026  0.58155147  0.81640760  1
  O  O476  1  0.97864374  0.91673034  0.06825546  1
  O  O477  1  0.97827013  0.91670592  0.31867620  1
  O  O478  1  0.97717035  0.91577245  0.56561490  1
  O  O479  1  0.97810456  0.91523437  0.81599556  1
  O  O480  1  0.07374729  0.31282073  0.07523368  1
  O  O481  1  0.07212279  0.31287999  0.32439536  1
  O  O482  1  0.07164397  0.31366600  0.57386509  1
  O  O483  1  0.07152835  0.31370372  0.82231118  1
  O  O484  1  0.07304694  0.64472616  0.07431316  1
  O  O485  1  0.07371904  0.64623861  0.32563407  1
  O  O486  1  0.07282903  0.64767980  0.57492938  1
  O  O487  1  0.07350645  0.64499100  0.82521942  1
  O  O488  1  0.07385270  0.98058393  0.07478197  1
  O  O489  1  0.07367245  0.98008457  0.32630318  1
  O  O490  1  0.07120282  0.98086754  0.57326152  1
  O  O491  1  0.07354334  0.97881256  0.82364898  1
  O  O492  1  0.57332833  0.31401979  0.07553583  1
  O  O493  1  0.57220020  0.31344581  0.32276456  1
  O  O494  1  0.57268564  0.31599125  0.57331775  1
  O  O495  1  0.57328736  0.31539801  0.82371729  1
  O  O496  1  0.57358143  0.64858197  0.07420438  1
  O  O497  1  0.57373901  0.64805450  0.32406447  1
  O  O498  1  0.57305606  0.64885119  0.57491002  1
  O  O499  1  0.57279651  0.64777161  0.82366910  1
  O  O500  1  0.57308159  0.97898258  0.07510256  1
  O  O501  1  0.57315825  0.97888340  0.32440739  1
  O  O502  1  0.57280327  0.98159420  0.57372060  1
  O  O503  1  0.57329314  0.97863713  0.82515942  1
  O  O504  1  0.42623128  0.02053009  0.17488006  1
  O  O505  1  0.42782639  0.01823037  0.42486822  1
  O  O506  1  0.42608195  0.02019721  0.67437856  1
  O  O507  1  0.42604843  0.01985726  0.92428109  1
  O  O508  1  0.42663387  0.35285878  0.17564708  1
  O  O509  1  0.42688132  0.35220486  0.42597576  1
  O  O510  1  0.42734410  0.35420319  0.67650699  1
  O  O511  1  0.42596089  0.35429953  0.92429136  1
  O  O512  1  0.42855387  0.68641467  0.17684897  1
  O  O513  1  0.42777625  0.68503257  0.42640408  1
  O  O514  1  0.42761277  0.68691124  0.67714127  1
  O  O515  1  0.42753898  0.68644143  0.92674092  1
  O  O516  1  0.92662358  0.02078345  0.17626917  1
  O  O517  1  0.92859218  0.01994989  0.42725998  1
  O  O518  1  0.92704362  0.02092408  0.67393703  1
  O  O519  1  0.92613517  0.02006428  0.92376046  1
  O  O520  1  0.92676467  0.35155976  0.17616239  1
  O  O521  1  0.92670913  0.35076594  0.42681177  1
  O  O522  1  0.92769270  0.35259658  0.67686173  1
  O  O523  1  0.92690750  0.35366554  0.92463719  1
  O  O524  1  0.92625657  0.68567992  0.17505250  1
  O  O525  1  0.92838059  0.68562096  0.42727244  1
  O  O526  1  0.92695826  0.68781946  0.67469577  1
  O  O527  1  0.92613305  0.68592952  0.92348742  1
  O  O528  1  0.17720379  0.02017472  0.19938472  1
  O  O529  1  0.17698289  0.01829058  0.44874061  1
  O  O530  1  0.17661000  0.01687082  0.69876801  1
  O  O531  1  0.17642026  0.02068641  0.94977419  1
  O  O532  1  0.17580840  0.35360326  0.20027223  1
  O  O533  1  0.17620598  0.35308369  0.45052940  1
  O  O534  1  0.17723694  0.35075457  0.69952830  1
  O  O535  1  0.17589677  0.35427207  0.94997422  1
  O  O536  1  0.17711945  0.68580988  0.19954066  1
  O  O537  1  0.17821126  0.68611237  0.44856181  1
  O  O538  1  0.17744899  0.68399080  0.69930595  1
  O  O539  1  0.17648795  0.68755491  0.94950161  1
  O  O540  1  0.67609155  0.02081518  0.20048763  1
  O  O541  1  0.67763321  0.01963624  0.44886734  1
  O  O542  1  0.67755730  0.01965513  0.69830905  1
  O  O543  1  0.67603654  0.02155079  0.94971160  1
  O  O544  1  0.67740846  0.35329173  0.19805380  1
  O  O545  1  0.67653965  0.35175133  0.44830814  1
  O  O546  1  0.67589529  0.35332501  0.70087903  1
  O  O547  1  0.67617388  0.35508936  0.95013710  1
  O  O548  1  0.67697083  0.68882308  0.19944554  1
  O  O549  1  0.67696847  0.68738589  0.45060754  1
  O  O550  1  0.67756002  0.68762508  0.70025580  1
  O  O551  1  0.67685919  0.68840455  0.95011204  1
  O  O552  1  0.32276099  0.31239348  0.04940706  1
  O  O553  1  0.32352437  0.31334569  0.29929709  1
  O  O554  1  0.32279123  0.31419680  0.55136649  1
  O  O555  1  0.32308334  0.31100004  0.80046583  1
  O  O556  1  0.32323298  0.64874286  0.05102948  1
  O  O557  1  0.32390201  0.64819550  0.30157317  1
  O  O558  1  0.32314967  0.64836263  0.55166761  1
  O  O559  1  0.32351951  0.64459368  0.80051275  1
  O  O560  1  0.32418003  0.98018531  0.04904335  1
  O  O561  1  0.32264707  0.98057742  0.30152399  1
  O  O562  1  0.32260031  0.98092989  0.55073138  1
  O  O563  1  0.32346112  0.97778271  0.80004266  1
  O  O564  1  0.82315194  0.31529548  0.05062360  1
  O  O565  1  0.82147132  0.31419254  0.30254628  1
  O  O566  1  0.82236959  0.31171665  0.55045068  1
  O  O567  1  0.82275744  0.31186105  0.79952127  1
  O  O568  1  0.82343433  0.64598295  0.04911933  1
  O  O569  1  0.82404284  0.64698098  0.29894210  1
  O  O570  1  0.82476414  0.64630866  0.54998774  1
  O  O571  1  0.82342598  0.64589530  0.80020462  1
  O  O572  1  0.82304790  0.98023214  0.04946110  1
  O  O573  1  0.82398595  0.98215260  0.30153860  1
  O  O574  1  0.82193552  0.98140983  0.55234035  1
  O  O575  1  0.82313510  0.97958255  0.79968019  1
  O  O576  1  0.42753050  0.14772291  0.17634384  1
  O  O577  1  0.42667910  0.14543010  0.42476259  1
  O  O578  1  0.42611500  0.14707680  0.67324219  1
  O  O579  1  0.42652729  0.14699565  0.92426551  1
  O  O580  1  0.42677528  0.48015848  0.17580895  1
  O  O581  1  0.42674097  0.47931223  0.42489756  1
  O  O582  1  0.42850982  0.48167594  0.67650387  1
  O  O583  1  0.42599449  0.48106631  0.92438750  1
  O  O584  1  0.42776559  0.81360846  0.17710777  1
  O  O585  1  0.42706110  0.81193258  0.42538303  1
  O  O586  1  0.42790885  0.81424771  0.67675444  1
  O  O587  1  0.42817263  0.81355163  0.92672071  1
  O  O588  1  0.92611417  0.14793524  0.17680414  1
  O  O589  1  0.92715417  0.14725121  0.42686625  1
  O  O590  1  0.92683681  0.14792444  0.67485651  1
  O  O591  1  0.92606979  0.14697404  0.92412217  1
  O  O592  1  0.92728241  0.47860126  0.17646833  1
  O  O593  1  0.92646499  0.47783449  0.42522468  1
  O  O594  1  0.92729064  0.48003074  0.67585910  1
  O  O595  1  0.92672486  0.48061368  0.92586581  1
  O  O596  1  0.92632507  0.81280293  0.17508668  1
  O  O597  1  0.92719521  0.81313631  0.42667881  1
  O  O598  1  0.92731345  0.81482906  0.67504933  1
  O  O599  1  0.92615972  0.81289959  0.92453984  1
  O  O600  1  0.07324867  0.18626517  0.07510910  1
  O  O601  1  0.07214751  0.18567736  0.32437560  1
  O  O602  1  0.07260539  0.18657744  0.57369340  1
  O  O603  1  0.07195003  0.18623307  0.82256303  1
  O  O604  1  0.07321837  0.51744961  0.07422144  1
  O  O605  1  0.07409293  0.51928871  0.32713276  1
  O  O606  1  0.07351385  0.52040636  0.57519326  1
  O  O607  1  0.07306262  0.51796090  0.82323988  1
  O  O608  1  0.07429984  0.85348815  0.07533060  1
  O  O609  1  0.07369590  0.85328371  0.32627274  1
  O  O610  1  0.07322058  0.85350764  0.57284008  1
  O  O611  1  0.07306259  0.85163004  0.82330438  1
  O  O612  1  0.57386314  0.18724907  0.07541961  1
  O  O613  1  0.57102809  0.18588861  0.32348416  1
  O  O614  1  0.57320035  0.18884938  0.57441229  1
  O  O615  1  0.57299047  0.18804401  0.82363670  1
  O  O616  1  0.57259748  0.52146677  0.07503108  1
  O  O617  1  0.57374161  0.52097322  0.32496972  1
  O  O618  1  0.57345355  0.52183887  0.57527796  1
  O  O619  1  0.57118314  0.52050640  0.82336884  1
  O  O620  1  0.57346880  0.85188142  0.07392818  1
  O  O621  1  0.57325275  0.85181968  0.32481791  1
  O  O622  1  0.57328367  0.85447361  0.57465705  1
  O  O623  1  0.57278768  0.85152341  0.82387747  1
  O  O624  1  0.32312392  0.18513630  0.05095494  1
  O  O625  1  0.32407818  0.18650101  0.30013651  1
  O  O626  1  0.32338034  0.18689512  0.55024656  1
  O  O627  1  0.32226338  0.18383316  0.79970524  1
  O  O628  1  0.32352552  0.52157596  0.05117305  1
  O  O629  1  0.32309989  0.52108289  0.30037614  1
  O  O630  1  0.32405508  0.52124591  0.55018170  1
  O  O631  1  0.32234175  0.51737809  0.80088364  1
  O  O632  1  0.32448435  0.85337287  0.05047297  1
  O  O633  1  0.32208277  0.85301457  0.30207889  1
  O  O634  1  0.32365448  0.85399728  0.54951709  1
  O  O635  1  0.32273699  0.85059413  0.80045396  1
  O  O636  1  0.82291716  0.18817873  0.05091050  1
  O  O637  1  0.82187047  0.18692299  0.30133727  1
  O  O638  1  0.82243534  0.18485294  0.55023226  1
  O  O639  1  0.82216471  0.18467896  0.80108287  1
  O  O640  1  0.82268195  0.51888507  0.05090801  1
  O  O641  1  0.82429881  0.51998183  0.29933581  1
  O  O642  1  0.82412990  0.51922736  0.54948530  1
  O  O643  1  0.82284021  0.51857913  0.80098529  1
  O  O644  1  0.82341228  0.85299628  0.05097287  1
  O  O645  1  0.82368229  0.85512798  0.30141329  1
  O  O646  1  0.82214519  0.85399786  0.55129914  1
  O  O647  1  0.82262969  0.85258778  0.80047138  1
  O  O648  1  0.17683501  0.14733252  0.19995011  1
  O  O649  1  0.17723968  0.14545594  0.45026701  1
  O  O650  1  0.17595414  0.14406659  0.69878666  1
  O  O651  1  0.17648572  0.14777073  0.94805706  1
  O  O652  1  0.17590936  0.48067860  0.20069888  1
  O  O653  1  0.17614812  0.48003838  0.45173150  1
  O  O654  1  0.17684220  0.47789758  0.69978861  1
  O  O655  1  0.17720493  0.48157766  0.94861570  1
  O  O656  1  0.17736559  0.81279240  0.20071916  1
  O  O657  1  0.17901837  0.81349182  0.44847894  1
  O  O658  1  0.17678354  0.81107816  0.69872248  1
  O  O659  1  0.17723135  0.81461550  0.94899300  1
  O  O660  1  0.67607670  0.14751737  0.20123491  1
  O  O661  1  0.67710533  0.14681647  0.44860943  1
  O  O662  1  0.67699016  0.14687390  0.69784319  1
  O  O663  1  0.67653951  0.14885199  0.94893681  1
  O  O664  1  0.67815886  0.48073694  0.19908312  1
  O  O665  1  0.67660738  0.47894838  0.44908459  1
  O  O666  1  0.67635914  0.48024569  0.69977678  1
  O  O667  1  0.67656677  0.48206224  0.94920696  1
  O  O668  1  0.67797153  0.81614714  0.19931084  1
  O  O669  1  0.67641736  0.81430961  0.45056351  1
  O  O670  1  0.67722526  0.81484093  0.69904270  1
  O  O671  1  0.67754088  0.81549744  0.94873734  1
