# generated using pymatgen
data_Na2MnFe(PO4)2
_symmetry_space_group_name_H-M   'P 1'
_cell_length_a   22.33901903
_cell_length_b   20.08928482
_cell_length_c   19.45336221
_cell_angle_alpha   89.99777984
_cell_angle_beta   90.01391455
_cell_angle_gamma   89.92747648
_symmetry_Int_Tables_number   1
_chemical_formula_structural   Na2MnFe(PO4)2
_chemical_formula_sum   'Na96 Mn48 Fe48 P96 O384'
_cell_volume   8730.17373404
_cell_formula_units_Z   48
loop_
 _symmetry_equiv_pos_site_id
 _symmetry_equiv_pos_as_xyz
  1  'x, y, z'
loop_
 _atom_site_type_symbol
 _atom_site_label
 _atom_site_symmetry_multiplicity
 _atom_site_fract_x
 _atom_site_fract_y
 _atom_site_fract_z
 _atom_site_occupancy
  Na  Na0  1  0.13941692  0.25105604  0.24297270  1
  Na  Na1  1  0.13947798  0.24963336  0.49296823  1
  Na  Na2  1  0.13945311  0.24972679  0.74400456  1
  Na  Na3  1  0.13980868  0.25201670  0.99310475  1
  Na  Na4  1  0.14057664  0.58288229  0.24236346  1
  Na  Na5  1  0.14019642  0.58375630  0.49458559  1
  Na  Na6  1  0.13979213  0.58389510  0.74470761  1
  Na  Na7  1  0.14017426  0.58281047  0.99291344  1
  Na  Na8  1  0.14031376  0.91618078  0.24411699  1
  Na  Na9  1  0.14012971  0.91651445  0.49439165  1
  Na  Na10  1  0.14033686  0.91715550  0.74415723  1
  Na  Na11  1  0.14049786  0.91754601  0.99368072  1
  Na  Na12  1  0.64029483  0.25047806  0.24364656  1
  Na  Na13  1  0.63956290  0.25170804  0.49319214  1
  Na  Na14  1  0.64014118  0.24909628  0.74360830  1
  Na  Na15  1  0.64030090  0.24986078  0.99268076  1
  Na  Na16  1  0.64093089  0.58300298  0.24407698  1
  Na  Na17  1  0.64035582  0.58367114  0.49402572  1
  Na  Na18  1  0.64008935  0.58234519  0.74366732  1
  Na  Na19  1  0.64100985  0.58333036  0.99359028  1
  Na  Na20  1  0.64082179  0.91639694  0.24323699  1
  Na  Na21  1  0.64078240  0.91668475  0.49456170  1
  Na  Na22  1  0.64076602  0.91594887  0.74428461  1
  Na  Na23  1  0.64112078  0.91550071  0.99324990  1
  Na  Na24  1  0.35954746  0.08545287  0.00566790  1
  Na  Na25  1  0.35987817  0.08390901  0.25535828  1
  Na  Na26  1  0.35929454  0.08315576  0.50636037  1
  Na  Na27  1  0.35934564  0.08451748  0.75611071  1
  Na  Na28  1  0.35943660  0.41719296  0.00501914  1
  Na  Na29  1  0.35935242  0.41675619  0.25419537  1
  Na  Na30  1  0.36001006  0.41624451  0.50691666  1
  Na  Na31  1  0.35934094  0.41623507  0.75706491  1
  Na  Na32  1  0.35989428  0.74907385  0.00636415  1
  Na  Na33  1  0.35996946  0.74939481  0.25630175  1
  Na  Na34  1  0.36035788  0.74965835  0.50676985  1
  Na  Na35  1  0.35976600  0.74929263  0.75622995  1
  Na  Na36  1  0.85963720  0.08304192  0.00663063  1
  Na  Na37  1  0.85958964  0.08540247  0.25678504  1
  Na  Na38  1  0.86010896  0.08438279  0.50759329  1
  Na  Na39  1  0.85971713  0.08275791  0.75699855  1
  Na  Na40  1  0.85984745  0.41670317  0.00723868  1
  Na  Na41  1  0.85977031  0.41581240  0.25571378  1
  Na  Na42  1  0.85964592  0.41676726  0.50575949  1
  Na  Na43  1  0.85914348  0.41586127  0.75700114  1
  Na  Na44  1  0.85982399  0.74934813  0.00682967  1
  Na  Na45  1  0.86021258  0.74970414  0.25580040  1
  Na  Na46  1  0.86001420  0.75010987  0.50710159  1
  Na  Na47  1  0.85953908  0.74832201  0.75720950  1
  Na  Na48  1  0.10915096  0.08500049  0.11920261  1
  Na  Na49  1  0.10921514  0.08303872  0.36905732  1
  Na  Na50  1  0.10876658  0.08409043  0.61877004  1
  Na  Na51  1  0.10905680  0.08370130  0.86877636  1
  Na  Na52  1  0.10948627  0.41722216  0.11680042  1
  Na  Na53  1  0.10929146  0.41541115  0.36843328  1
  Na  Na54  1  0.10920203  0.41612074  0.61915745  1
  Na  Na55  1  0.10947863  0.41674068  0.86850245  1
  Na  Na56  1  0.10971133  0.75015190  0.11770365  1
  Na  Na57  1  0.10949524  0.74930853  0.36949209  1
  Na  Na58  1  0.10944240  0.75075893  0.61938591  1
  Na  Na59  1  0.10974190  0.75012798  0.86882097  1
  Na  Na60  1  0.60991190  0.08372173  0.11716818  1
  Na  Na61  1  0.60960984  0.08379120  0.36970572  1
  Na  Na62  1  0.60949875  0.08315775  0.61875182  1
  Na  Na63  1  0.61027487  0.08439027  0.86836540  1
  Na  Na64  1  0.61016758  0.41557985  0.11812170  1
  Na  Na65  1  0.61005524  0.41682278  0.36885472  1
  Na  Na66  1  0.60950735  0.41624877  0.61834102  1
  Na  Na67  1  0.60955278  0.41715872  0.86758903  1
  Na  Na68  1  0.61061539  0.74916786  0.11862445  1
  Na  Na69  1  0.60995971  0.75000178  0.36976962  1
  Na  Na70  1  0.60983157  0.74871575  0.61939823  1
  Na  Na71  1  0.61003830  0.74902519  0.86893854  1
  Na  Na72  1  0.38998392  0.25045477  0.12904344  1
  Na  Na73  1  0.39031581  0.25041674  0.38129824  1
  Na  Na74  1  0.38989318  0.25138684  0.63123009  1
  Na  Na75  1  0.38978928  0.25106883  0.88135393  1
  Na  Na76  1  0.38986197  0.58311864  0.13075460  1
  Na  Na77  1  0.39074445  0.58378701  0.38050379  1
  Na  Na78  1  0.39102646  0.58263739  0.63209059  1
  Na  Na79  1  0.38970807  0.58338671  0.88168711  1
  Na  Na80  1  0.39119414  0.91562733  0.13084479  1
  Na  Na81  1  0.39067274  0.91675846  0.38191082  1
  Na  Na82  1  0.39060852  0.91513032  0.63053396  1
  Na  Na83  1  0.39090406  0.91728261  0.88116212  1
  Na  Na84  1  0.88980880  0.25059581  0.13178134  1
  Na  Na85  1  0.89041010  0.24959419  0.38138960  1
  Na  Na86  1  0.88993430  0.24955819  0.63116020  1
  Na  Na87  1  0.89001432  0.24863937  0.88235089  1
  Na  Na88  1  0.89045654  0.58339618  0.13125502  1
  Na  Na89  1  0.89081780  0.58211922  0.38151850  1
  Na  Na90  1  0.89010072  0.58387542  0.63165886  1
  Na  Na91  1  0.88996767  0.58295107  0.88282832  1
  Na  Na92  1  0.89070902  0.91732704  0.13133663  1
  Na  Na93  1  0.89074920  0.91638061  0.38159731  1
  Na  Na94  1  0.89047932  0.91761542  0.63255016  1
  Na  Na95  1  0.89036091  0.91678417  0.88159683  1
  Mn  Mn96  1  -0.00041685  0.83300945  0.50122438  1
  Mn  Mn97  1  -0.00101176  0.33265827  0.74958272  1
  Mn  Mn98  1  0.00020012  0.49968427  0.49999537  1
  Mn  Mn99  1  0.50006589  0.00003963  0.74976791  1
  Mn  Mn100  1  0.75011718  0.49956099  0.62519391  1
  Mn  Mn101  1  0.24961323  -0.00046106  0.62583123  1
  Mn  Mn102  1  0.25072646  0.83291577  0.87514950  1
  Mn  Mn103  1  0.75003953  0.33267769  0.87559622  1
  Mn  Mn104  1  0.74957027  0.16672303  0.62536121  1
  Mn  Mn105  1  0.50010584  -0.00020372  0.24979043  1
  Mn  Mn106  1  0.00086045  0.66699558  0.25009902  1
  Mn  Mn107  1  0.50096317  0.83205557  0.25108991  1
  Mn  Mn108  1  0.50053377  0.00004599  -0.00029652  1
  Mn  Mn109  1  0.75012542  0.00016607  0.12484911  1
  Mn  Mn110  1  0.75000868  0.49982277  0.12514594  1
  Mn  Mn111  1  0.24944419  0.33384263  0.37428474  1
  Mn  Mn112  1  -0.00019283  0.00040049  0.25082986  1
  Mn  Mn113  1  0.50058059  0.83224173  0.75032732  1
  Mn  Mn114  1  -0.00094162  0.50076053  0.74973213  1
  Mn  Mn115  1  0.25059969  0.00117385  0.87435718  1
  Mn  Mn116  1  0.50054300  0.66683497  0.00018253  1
  Mn  Mn117  1  0.74916387  0.16834803  0.37596123  1
  Mn  Mn118  1  0.75025714  0.83326694  0.62581622  1
  Mn  Mn119  1  0.50010552  -0.00026655  0.49994469  1
  Mn  Mn120  1  0.24975976  0.49957890  0.37450573  1
  Mn  Mn121  1  0.50046184  0.33315805  0.24953409  1
  Mn  Mn122  1  0.25040224  0.66641956  0.37486954  1
  Mn  Mn123  1  -0.00014064  0.83355485  0.75036816  1
  Mn  Mn124  1  0.24992407  0.00059211  0.12449133  1
  Mn  Mn125  1  0.25045205  0.16631595  0.37434610  1
  Mn  Mn126  1  0.75048934  0.83214785  0.87471755  1
  Mn  Mn127  1  0.75028332  0.66631476  0.37499634  1
  Mn  Mn128  1  0.24895596  0.16822502  0.12522526  1
  Mn  Mn129  1  0.24904812  0.16747163  0.62497356  1
  Mn  Mn130  1  -0.00032473  0.16685265  0.00034667  1
  Mn  Mn131  1  0.25088092  0.83274124  0.12454529  1
  Mn  Mn132  1  0.25036500  0.66692424  0.62498192  1
  Mn  Mn133  1  0.49908733  0.16794775  0.74902373  1
  Mn  Mn134  1  0.00063107  0.49900485  0.25004601  1
  Mn  Mn135  1  0.75073869  0.83357695  0.37535116  1
  Mn  Mn136  1  0.50085432  0.49958051  -0.00035742  1
  Mn  Mn137  1  0.24993244  0.49925600  0.62535410  1
  Mn  Mn138  1  0.50034926  0.16699855  0.24945146  1
  Mn  Mn139  1  0.00038625  0.83419246  -0.00041278  1
  Mn  Mn140  1  0.50019123  0.50012262  0.50012744  1
  Mn  Mn141  1  0.75042847  0.00094714  0.37422201  1
  Mn  Mn142  1  0.24968255  0.83365599  0.37481519  1
  Mn  Mn143  1  0.49991599  0.50041770  0.24982091  1
  Fe  Fe144  1  0.00023245  0.83346901  0.25022633  1
  Fe  Fe145  1  -0.00027442  0.66668964  0.75054556  1
  Fe  Fe146  1  -0.00033927  0.33239911  0.49945246  1
  Fe  Fe147  1  0.24918543  0.16813663  0.87515992  1
  Fe  Fe148  1  0.50064282  0.66684121  0.25047682  1
  Fe  Fe149  1  0.74995818  0.00018919  0.62564815  1
  Fe  Fe150  1  -0.00029536  0.49998674  -0.00026299  1
  Fe  Fe151  1  -0.00013814  0.66640575  0.49999230  1
  Fe  Fe152  1  -0.00025512  0.16658008  0.50001391  1
  Fe  Fe153  1  -0.00022289  0.33327730  0.00002513  1
  Fe  Fe154  1  0.49968790  0.33345219  -0.00128864  1
  Fe  Fe155  1  -0.00029998  0.66712977  0.00022690  1
  Fe  Fe156  1  0.49952371  0.16703223  0.49987530  1
  Fe  Fe157  1  0.75088359  0.83270978  0.12414979  1
  Fe  Fe158  1  0.50040560  0.83281067  0.00002173  1
  Fe  Fe159  1  0.74937885  0.33327612  0.12491292  1
  Fe  Fe160  1  0.25010601  -0.00031548  0.37510108  1
  Fe  Fe161  1  -0.00019509  0.33283377  0.24940506  1
  Fe  Fe162  1  0.75025274  -0.00050683  0.87562457  1
  Fe  Fe163  1  -0.00050855  0.16694972  0.25055126  1
  Fe  Fe164  1  0.24940629  0.33399118  0.87478226  1
  Fe  Fe165  1  0.75075906  0.66603695  0.12492759  1
  Fe  Fe166  1  0.50035139  0.33349819  0.74961462  1
  Fe  Fe167  1  0.75065792  0.49995130  0.37495752  1
  Fe  Fe168  1  0.49947792  0.33379150  0.50012685  1
  Fe  Fe169  1  0.24968962  0.66612353  0.12470926  1
  Fe  Fe170  1  0.00001781  0.00048272  0.75031303  1
  Fe  Fe171  1  0.24955946  0.66640682  0.87528503  1
  Fe  Fe172  1  0.00014109  0.00053474  0.00061966  1
  Fe  Fe173  1  -0.00046787  0.16645917  0.75015464  1
  Fe  Fe174  1  -0.00020612  0.00025052  0.50061072  1
  Fe  Fe175  1  0.24928805  0.33319154  0.62575214  1
  Fe  Fe176  1  0.25011678  0.33444750  0.12355778  1
  Fe  Fe177  1  0.75015610  0.33414747  0.37451167  1
  Fe  Fe178  1  0.75039196  0.66588665  0.62545588  1
  Fe  Fe179  1  0.50044922  0.66641687  0.50071598  1
  Fe  Fe180  1  0.49943933  0.66636253  0.74986487  1
  Fe  Fe181  1  0.74986597  0.16695098  0.12502187  1
  Fe  Fe182  1  0.74951607  0.33364166  0.62490764  1
  Fe  Fe183  1  0.74981885  0.66563922  0.87543208  1
  Fe  Fe184  1  0.50070836  0.83252324  0.50044789  1
  Fe  Fe185  1  0.24989009  0.50026878  0.87545497  1
  Fe  Fe186  1  0.74987946  0.49954277  0.87542645  1
  Fe  Fe187  1  0.24992475  0.50019807  0.12373210  1
  Fe  Fe188  1  0.50008236  0.16720567  -0.00119021  1
  Fe  Fe189  1  0.49969048  0.49984910  0.74974677  1
  Fe  Fe190  1  0.25009591  0.83322114  0.62510398  1
  Fe  Fe191  1  0.75013953  0.16620745  0.87497357  1
  P  P192  1  0.04177830  0.25166906  0.10288174  1
  P  P193  1  0.04122479  0.24989291  0.35203584  1
  P  P194  1  0.04087082  0.24960623  0.60161401  1
  P  P195  1  0.04126812  0.24890426  0.85257620  1
  P  P196  1  0.04122252  0.58341095  0.10114619  1
  P  P197  1  0.04323521  0.58294331  0.35330981  1
  P  P198  1  0.04193634  0.58490249  0.60292474  1
  P  P199  1  0.04114125  0.58445343  0.85347660  1
  P  P200  1  0.04250257  0.91832392  0.10295183  1
  P  P201  1  0.04204135  0.91537944  0.35324093  1
  P  P202  1  0.04181566  0.91858164  0.60338164  1
  P  P203  1  0.04215239  0.91825614  0.85289401  1
  P  P204  1  0.54161084  0.25031346  0.10034050  1
  P  P205  1  0.54262106  0.25009365  0.35393430  1
  P  P206  1  0.54109848  0.25070033  0.60149091  1
  P  P207  1  0.54186174  0.25150166  0.85247862  1
  P  P208  1  0.54343940  0.58330995  0.10334671  1
  P  P209  1  0.54260335  0.58483233  0.35299212  1
  P  P210  1  0.54221839  0.58392586  0.60349235  1
  P  P211  1  0.54098105  0.58335916  0.85121978  1
  P  P212  1  0.54298033  0.91485561  0.10223460  1
  P  P213  1  0.54329358  0.91635782  0.35383432  1
  P  P214  1  0.54263526  0.91490005  0.60264059  1
  P  P215  1  0.54311754  0.91637517  0.85355629  1
  P  P216  1  0.45773259  0.08366976  0.14574856  1
  P  P217  1  0.45752599  0.08457414  0.39759693  1
  P  P218  1  0.45700885  0.08374624  0.64600887  1
  P  P219  1  0.45770861  0.08495130  0.89708722  1
  P  P220  1  0.45771260  0.41636690  0.14590463  1
  P  P221  1  0.45763651  0.41611004  0.39762111  1
  P  P222  1  0.45847128  0.41631189  0.64819380  1
  P  P223  1  0.45809697  0.41592535  0.89609317  1
  P  P224  1  0.45826058  0.74871551  0.14764470  1
  P  P225  1  0.45891754  0.74932575  0.39872421  1
  P  P226  1  0.45797667  0.74820614  0.64693967  1
  P  P227  1  0.45776296  0.75071011  0.89743531  1
  P  P228  1  0.95751332  0.08491593  0.14796545  1
  P  P229  1  0.95841051  0.08334175  0.39868481  1
  P  P230  1  0.95829525  0.08363123  0.64814532  1
  P  P231  1  0.95782543  0.08192293  0.89743295  1
  P  P232  1  0.95813521  0.41552897  0.14660438  1
  P  P233  1  0.95807468  0.41456804  0.39709718  1
  P  P234  1  0.95663805  0.41656003  0.64643430  1
  P  P235  1  0.95829591  0.41625230  0.89848652  1
  P  P236  1  0.95851383  0.75131380  0.14719518  1
  P  P237  1  0.95765892  0.74886403  0.39768692  1
  P  P238  1  0.95766653  0.74874824  0.64785727  1
  P  P239  1  0.95789821  0.74892579  0.89748620  1
  P  P240  1  0.20696826  0.08324186  0.22848648  1
  P  P241  1  0.20760952  0.08198116  0.47731801  1
  P  P242  1  0.20684731  0.08434045  0.72866964  1
  P  P243  1  0.20740044  0.08553180  0.97709602  1
  P  P244  1  0.20781204  0.41704817  0.22514325  1
  P  P245  1  0.20677864  0.41638441  0.47856733  1
  P  P246  1  0.20738129  0.41537032  0.72867814  1
  P  P247  1  0.20853428  0.41720276  0.97680658  1
  P  P248  1  0.20770731  0.74883893  0.22691788  1
  P  P249  1  0.20741194  0.75027011  0.47853144  1
  P  P250  1  0.20780351  0.75099818  0.72790375  1
  P  P251  1  0.20789133  0.74822964  0.97788101  1
  P  P252  1  0.70753358  0.08502237  0.22709474  1
  P  P253  1  0.70749607  0.08343000  0.47885736  1
  P  P254  1  0.70771241  0.08179084  0.72855894  1
  P  P255  1  0.70899058  0.08362255  0.97695232  1
  P  P256  1  0.70789764  0.41532304  0.22795188  1
  P  P257  1  0.70863861  0.41708471  0.47673478  1
  P  P258  1  0.70763760  0.41518876  0.72784459  1
  P  P259  1  0.70770935  0.41741622  0.97766911  1
  P  P260  1  0.70952439  0.74982700  0.22623824  1
  P  P261  1  0.70792285  0.74979063  0.47884805  1
  P  P262  1  0.70830179  0.74762765  0.72816043  1
  P  P263  1  0.70847767  0.74815843  0.97805869  1
  P  P264  1  0.29130596  0.25203311  0.02112444  1
  P  P265  1  0.29264403  0.25092752  0.27089366  1
  P  P266  1  0.29168455  0.25135513  0.52266336  1
  P  P267  1  0.29094614  0.25083665  0.77320929  1
  P  P268  1  0.29126377  0.58334494  0.02216415  1
  P  P269  1  0.29259985  0.58286294  0.27055003  1
  P  P270  1  0.29341421  0.58284446  0.52224600  1
  P  P271  1  0.29100378  0.58332611  0.77373454  1
  P  P272  1  0.29337606  0.91694749  0.02153481  1
  P  P273  1  0.29286636  0.91780546  0.27245710  1
  P  P274  1  0.29212050  0.91565727  0.52244707  1
  P  P275  1  0.29328333  0.91633333  0.77149924  1
  P  P276  1  0.79112386  0.24978602  0.02330361  1
  P  P277  1  0.79184281  0.25149781  0.27195786  1
  P  P278  1  0.79152418  0.25201800  0.52247077  1
  P  P279  1  0.79205289  0.24847583  0.77267499  1
  P  P280  1  0.79226823  0.58399395  0.02204121  1
  P  P281  1  0.79283368  0.58197860  0.27229714  1
  P  P282  1  0.79245254  0.58389531  0.52257023  1
  P  P283  1  0.79139338  0.58239493  0.77365145  1
  P  P284  1  0.79235511  0.91560729  0.02207381  1
  P  P285  1  0.79327308  0.91644540  0.27111490  1
  P  P286  1  0.79275841  0.91822430  0.52330311  1
  P  P287  1  0.79219491  0.91761629  0.77271619  1
  O  O288  1  0.03671599  0.25175014  0.18272189  1
  O  O289  1  0.03619319  0.25010657  0.43193085  1
  O  O290  1  0.03593798  0.24884884  0.68152384  1
  O  O291  1  0.03616052  0.24958849  0.93245742  1
  O  O292  1  0.03705003  0.58283254  0.18115608  1
  O  O293  1  0.03784333  0.58324819  0.43320962  1
  O  O294  1  0.03635487  0.58507715  0.68286671  1
  O  O295  1  0.03580589  0.58425835  0.93333506  1
  O  O296  1  0.03716983  0.91752811  0.18284863  1
  O  O297  1  0.03665878  0.91563249  0.43313568  1
  O  O298  1  0.03636066  0.91872084  0.68329903  1
  O  O299  1  0.03712694  0.91828237  0.93283987  1
  O  O300  1  0.53717650  0.25001926  0.18036916  1
  O  O301  1  0.53725461  0.25005785  0.43380856  1
  O  O302  1  0.53621264  0.25121334  0.68146700  1
  O  O303  1  0.53653686  0.25102215  0.93233728  1
  O  O304  1  0.53845640  0.58365632  0.18326795  1
  O  O305  1  0.53724513  0.58479390  0.43292996  1
  O  O306  1  0.53651966  0.58362250  0.68331055  1
  O  O307  1  0.53659187  0.58304581  0.93119572  1
  O  O308  1  0.53795856  0.91519153  0.18223826  1
  O  O309  1  0.53804860  0.91593767  0.43377022  1
  O  O310  1  0.53733180  0.91531139  0.68258915  1
  O  O311  1  0.53788955  0.91592087  0.93348381  1
  O  O312  1  0.46309561  0.08410903  0.06580073  1
  O  O313  1  0.46255572  0.08427710  0.31757861  1
  O  O314  1  0.46236816  0.08414967  0.56609241  1
  O  O315  1  0.46252825  0.08475932  0.81708338  1
  O  O316  1  0.46295152  0.41599178  0.06596410  1
  O  O317  1  0.46277387  0.41640242  0.31770248  1
  O  O318  1  0.46314886  0.41654037  0.56820463  1
  O  O319  1  0.46337193  0.41606947  0.81623989  1
  O  O320  1  0.46335697  0.74968499  0.06772031  1
  O  O321  1  0.46420430  0.74887827  0.31875848  1
  O  O322  1  0.46355007  0.74842503  0.56709617  1
  O  O323  1  0.46283041  0.74986414  0.81752293  1
  O  O324  1  0.96268140  0.08444920  0.06808267  1
  O  O325  1  0.96330292  0.08411442  0.31877395  1
  O  O326  1  0.96338067  0.08328682  0.56827525  1
  O  O327  1  0.96312124  0.08207527  0.81758987  1
  O  O328  1  0.96332563  0.41595103  0.06669406  1
  O  O329  1  0.96366315  0.41442537  0.31718531  1
  O  O330  1  0.96194455  0.41635122  0.56657307  1
  O  O331  1  0.96268185  0.41667021  0.81849064  1
  O  O332  1  0.96376985  0.75094739  0.06725638  1
  O  O333  1  0.96327167  0.74978919  0.31779523  1
  O  O334  1  0.96280665  0.74862480  0.56790475  1
  O  O335  1  0.96310379  0.74879468  0.81754677  1
  O  O336  1  0.21247457  0.08528600  0.05706178  1
  O  O337  1  0.21250750  0.08248917  0.30840165  1
  O  O338  1  0.21246305  0.08238289  0.55729912  1
  O  O339  1  0.21224467  0.08520404  0.80854823  1
  O  O340  1  0.21368500  0.41760571  0.05665239  1
  O  O341  1  0.21257871  0.41703150  0.30516182  1
  O  O342  1  0.21160001  0.41569992  0.55854795  1
  O  O343  1  0.21288636  0.41564865  0.80853679  1
  O  O344  1  0.21324721  0.74791073  0.05782335  1
  O  O345  1  0.21262065  0.74925280  0.30690227  1
  O  O346  1  0.21260553  0.75076318  0.55846642  1
  O  O347  1  0.21310716  0.75027076  0.80783550  1
  O  O348  1  0.71384471  0.08422356  0.05692872  1
  O  O349  1  0.71253975  0.08506314  0.30706469  1
  O  O350  1  0.71274105  0.08284194  0.55880373  1
  O  O351  1  0.71329261  0.08194098  0.80842247  1
  O  O352  1  0.71273000  0.41692357  0.05757833  1
  O  O353  1  0.71349861  0.41547939  0.30778878  1
  O  O354  1  0.71349060  0.41666012  0.55672796  1
  O  O355  1  0.71274888  0.41564720  0.80771356  1
  O  O356  1  0.71408081  0.74851267  0.05789783  1
  O  O357  1  0.71461828  0.74996374  0.30621224  1
  O  O358  1  0.71318077  0.74934404  0.55875937  1
  O  O359  1  0.71372139  0.74742899  0.80809598  1
  O  O360  1  0.28737433  0.25148535  0.19094537  1
  O  O361  1  0.28693650  0.25086825  0.44269597  1
  O  O362  1  0.28580690  0.25119067  0.69324459  1
  O  O363  1  0.28565487  0.25171591  0.94127010  1
  O  O364  1  0.28708379  0.58301089  0.19062093  1
  O  O365  1  0.28860478  0.58277009  0.44226644  1
  O  O366  1  0.28648195  0.58302245  0.69379365  1
  O  O367  1  0.28607538  0.58369143  0.94225636  1
  O  O368  1  0.28793511  0.91733880  0.19247435  1
  O  O369  1  0.28670417  0.91659182  0.44250360  1
  O  O370  1  0.28779409  0.91566299  0.69159654  1
  O  O371  1  0.28832786  0.91681011  0.94158040  1
  O  O372  1  0.78659102  0.25102481  0.19207534  1
  O  O373  1  0.78632732  0.25243616  0.44254319  1
  O  O374  1  0.78689389  0.24901836  0.69282274  1
  O  O375  1  0.78606166  0.24903686  0.94334870  1
  O  O376  1  0.78760769  0.58253321  0.19236323  1
  O  O377  1  0.78744917  0.58325708  0.44265861  1
  O  O378  1  0.78648115  0.58268498  0.69367111  1
  O  O379  1  0.78677342  0.58369962  0.94219405  1
  O  O380  1  0.78807980  0.91579101  0.19114784  1
  O  O381  1  0.78780975  0.91795331  0.44329702  1
  O  O382  1  0.78676617  0.91795213  0.69281195  1
  O  O383  1  0.78672929  0.91616619  0.94218196  1
  O  O384  1  0.22725309  0.25273428  0.05748162  1
  O  O385  1  0.22825846  0.25016456  0.30611432  1
  O  O386  1  0.22718311  0.25217938  0.55787066  1
  O  O387  1  0.22673861  0.25063595  0.80915157  1
  O  O388  1  0.22720723  0.58308748  0.05854257  1
  O  O389  1  0.22833793  0.58315028  0.30628559  1
  O  O390  1  0.22887058  0.58294773  0.55699103  1
  O  O391  1  0.22675294  0.58375400  0.80929293  1
  O  O392  1  0.22887926  0.91654485  0.05639789  1
  O  O393  1  0.22836157  0.91826361  0.30764247  1
  O  O394  1  0.22790939  0.91493180  0.55844742  1
  O  O395  1  0.22898113  0.91674641  0.80690785  1
  O  O396  1  0.72697892  0.25019794  0.05936747  1
  O  O397  1  0.72765434  0.25204006  0.30799242  1
  O  O398  1  0.72730441  0.25169312  0.55833206  1
  O  O399  1  0.72781088  0.24845910  0.80843408  1
  O  O400  1  0.72817590  0.58438766  0.05825076  1
  O  O401  1  0.72856690  0.58159473  0.30803813  1
  O  O402  1  0.72816548  0.58427793  0.55827028  1
  O  O403  1  0.72716548  0.58204744  0.80953991  1
  O  O404  1  0.72827241  0.91518351  0.05822174  1
  O  O405  1  0.72889732  0.91682024  0.30642832  1
  O  O406  1  0.72837337  0.91808350  0.55870158  1
  O  O407  1  0.72808575  0.91710266  0.80869077  1
  O  O408  1  0.27123166  0.08407807  0.19295321  1
  O  O409  1  0.27199774  0.08159129  0.44189208  1
  O  O410  1  0.27112045  0.08406005  0.69324023  1
  O  O411  1  0.27174714  0.08606990  0.94162655  1
  O  O412  1  0.27212040  0.41729049  0.18944620  1
  O  O413  1  0.27129394  0.41657702  0.44362924  1
  O  O414  1  0.27155209  0.41463577  0.69246914  1
  O  O415  1  0.27251823  0.41656224  0.94046552  1
  O  O416  1  0.27217848  0.74821226  0.19179107  1
  O  O417  1  0.27176885  0.75028266  0.44323553  1
  O  O418  1  0.27206387  0.75161988  0.69206399  1
  O  O419  1  0.27216756  0.74803096  0.94220755  1
  O  O420  1  0.77194196  0.08485088  0.19179375  1
  O  O421  1  0.77178653  0.08419750  0.44339788  1
  O  O422  1  0.77183259  0.08189195  0.69230834  1
  O  O423  1  0.77312747  0.08350830  0.94103797  1
  O  O424  1  0.77194728  0.41487114  0.19156604  1
  O  O425  1  0.77281289  0.41735121  0.44070618  1
  O  O426  1  0.77194846  0.41489139  0.69219836  1
  O  O427  1  0.77205837  0.41772105  0.94214576  1
  O  O428  1  0.77363994  0.74998203  0.19017818  1
  O  O429  1  0.77224915  0.74963737  0.44346205  1
  O  O430  1  0.77245969  0.74801459  0.69220247  1
  O  O431  1  0.77255007  0.74768197  0.94179027  1
  O  O432  1  0.02170130  0.08511564  0.18388419  1
  O  O433  1  0.02252703  0.08263983  0.43473854  1
  O  O434  1  0.02233464  0.08427436  0.68462170  1
  O  O435  1  0.02197109  0.08207465  0.93363257  1
  O  O436  1  0.02235637  0.41499789  0.18250977  1
  O  O437  1  0.02216181  0.41453739  0.43330720  1
  O  O438  1  0.02091243  0.41663794  0.68195110  1
  O  O439  1  0.02260876  0.41576367  0.93392429  1
  O  O440  1  0.02273272  0.75163272  0.18308905  1
  O  O441  1  0.02180603  0.74841864  0.43385062  1
  O  O442  1  0.02193448  0.74902687  0.68358378  1
  O  O443  1  0.02215821  0.74901636  0.93320335  1
  O  O444  1  0.52205754  0.08326574  0.18120818  1
  O  O445  1  0.52184780  0.08457236  0.43306086  1
  O  O446  1  0.52133189  0.08396626  0.68143433  1
  O  O447  1  0.52215504  0.08481203  0.93226628  1
  O  O448  1  0.52201653  0.41684910  0.18136484  1
  O  O449  1  0.52197091  0.41561248  0.43322568  1
  O  O450  1  0.52272446  0.41588198  0.68387923  1
  O  O451  1  0.52229059  0.41521830  0.93216769  1
  O  O452  1  0.52266542  0.74795212  0.18319423  1
  O  O453  1  0.52305119  0.74961166  0.43492502  1
  O  O454  1  0.52212926  0.74733210  0.68314412  1
  O  O455  1  0.52218791  0.75119382  0.93289020  1
  O  O456  1  0.47726033  0.25052484  0.06494666  1
  O  O457  1  0.47837969  0.25009673  0.31819738  1
  O  O458  1  0.47688326  0.25083952  0.56559772  1
  O  O459  1  0.47761652  0.25241694  0.81654287  1
  O  O460  1  0.47902890  0.58300899  0.06816007  1
  O  O461  1  0.47839233  0.58526979  0.31698878  1
  O  O462  1  0.47818164  0.58413255  0.56706840  1
  O  O463  1  0.47667388  0.58398174  0.81575402  1
  O  O464  1  0.47863833  0.91506230  0.06673001  1
  O  O465  1  0.47892848  0.91623124  0.31848576  1
  O  O466  1  0.47841477  0.91464663  0.56688124  1
  O  O467  1  0.47877425  0.91630530  0.81820282  1
  O  O468  1  0.97750964  0.25177375  0.06702507  1
  O  O469  1  0.97710119  0.24993032  0.31574076  1
  O  O470  1  0.97671372  0.25015454  0.56562182  1
  O  O471  1  0.97699732  0.24815291  0.81680456  1
  O  O472  1  0.97688539  0.58374163  0.06586888  1
  O  O473  1  0.97895558  0.58296558  0.31781992  1
  O  O474  1  0.97780224  0.58466545  0.56678474  1
  O  O475  1  0.97697092  0.58487834  0.81735281  1
  O  O476  1  0.97823539  0.91853032  0.06707054  1
  O  O477  1  0.97786752  0.91520323  0.31715204  1
  O  O478  1  0.97765362  0.91845428  0.56734916  1
  O  O479  1  0.97788766  0.91799984  0.81723523  1
  O  O480  1  0.07272253  0.31478273  0.07347781  1
  O  O481  1  0.07233790  0.31319556  0.32324455  1
  O  O482  1  0.07189514  0.31329076  0.57381377  1
  O  O483  1  0.07198167  0.31255456  0.82427306  1
  O  O484  1  0.07208945  0.64715484  0.07339193  1
  O  O485  1  0.07458044  0.64609294  0.32483017  1
  O  O486  1  0.07282445  0.64821730  0.57425784  1
  O  O487  1  0.07236304  0.64764119  0.82468775  1
  O  O488  1  0.07293536  0.98223240  0.07486280  1
  O  O489  1  0.07315845  0.97893547  0.32537618  1
  O  O490  1  0.07271185  0.98181067  0.57451688  1
  O  O491  1  0.07297032  0.98152310  0.82407951  1
  O  O492  1  0.57237097  0.31399441  0.07229011  1
  O  O493  1  0.57371061  0.31350858  0.32538570  1
  O  O494  1  0.57221149  0.31407863  0.57298966  1
  O  O495  1  0.57330585  0.31458781  0.82385133  1
  O  O496  1  0.57440519  0.64660333  0.07464726  1
  O  O497  1  0.57383576  0.64798916  0.32439819  1
  O  O498  1  0.57329745  0.64717872  0.57481043  1
  O  O499  1  0.57221288  0.64682873  0.82343895  1
  O  O500  1  0.57428560  0.97835438  0.07445943  1
  O  O501  1  0.57398518  0.98005665  0.32560315  1
  O  O502  1  0.57363285  0.97857498  0.57497505  1
  O  O503  1  0.57374064  0.98020553  0.82554894  1
  O  O504  1  0.42673146  0.02003336  0.17378995  1
  O  O505  1  0.42642795  0.02097079  0.42534855  1
  O  O506  1  0.42639573  0.01992209  0.67398032  1
  O  O507  1  0.42653946  0.02147840  0.92492848  1
  O  O508  1  0.42668989  0.35302103  0.17430318  1
  O  O509  1  0.42669381  0.35273808  0.42611501  1
  O  O510  1  0.42714031  0.35309145  0.67644861  1
  O  O511  1  0.42686700  0.35278124  0.92491673  1
  O  O512  1  0.42748335  0.68508476  0.17580651  1
  O  O513  1  0.42793652  0.68583780  0.42695922  1
  O  O514  1  0.42654024  0.68511789  0.67569720  1
  O  O515  1  0.42679158  0.68719655  0.92572684  1
  O  O516  1  0.92626631  0.02152274  0.17600853  1
  O  O517  1  0.92732077  0.01968426  0.42644021  1
  O  O518  1  0.92789160  0.01989062  0.67697309  1
  O  O519  1  0.92722765  0.01850326  0.92651231  1
  O  O520  1  0.92694385  0.35232989  0.17531177  1
  O  O521  1  0.92702301  0.35133059  0.42572948  1
  O  O522  1  0.92547750  0.35332269  0.67497793  1
  O  O523  1  0.92719175  0.35267251  0.92633124  1
  O  O524  1  0.92742523  0.68771427  0.17504250  1
  O  O525  1  0.92689466  0.68505141  0.42548536  1
  O  O526  1  0.92688533  0.68545989  0.67676364  1
  O  O527  1  0.92693233  0.68576694  0.92647338  1
  O  O528  1  0.17601641  0.01996083  0.19974386  1
  O  O529  1  0.17684095  0.01844871  0.44908026  1
  O  O530  1  0.17588960  0.02057202  0.70112665  1
  O  O531  1  0.17684302  0.02160251  0.94932865  1
  O  O532  1  0.17739377  0.35316777  0.19704720  1
  O  O533  1  0.17565271  0.35332673  0.44944612  1
  O  O534  1  0.17600623  0.35224131  0.70002595  1
  O  O535  1  0.17686454  0.35405958  0.94864054  1
  O  O536  1  0.17670187  0.68545765  0.19852627  1
  O  O537  1  0.17668670  0.68649489  0.45055506  1
  O  O538  1  0.17685411  0.68738952  0.69983035  1
  O  O539  1  0.17679186  0.68512050  0.94890424  1
  O  O540  1  0.67645599  0.02136365  0.19941501  1
  O  O541  1  0.67662459  0.02015532  0.45002083  1
  O  O542  1  0.67684924  0.01839962  0.69979088  1
  O  O543  1  0.67846801  0.01951208  0.94930037  1
  O  O544  1  0.67665772  0.35220658  0.19898450  1
  O  O545  1  0.67778699  0.35365219  0.44820764  1
  O  O546  1  0.67705159  0.35155670  0.69928359  1
  O  O547  1  0.67664866  0.35401549  0.94942247  1
  O  O548  1  0.67903989  0.68571441  0.19866788  1
  O  O549  1  0.67649875  0.68677996  0.45015314  1
  O  O550  1  0.67765025  0.68423364  0.69938097  1
  O  O551  1  0.67717008  0.68492696  0.94945107  1
  O  O552  1  0.32257125  0.31538365  0.04947762  1
  O  O553  1  0.32348087  0.31434948  0.29942407  1
  O  O554  1  0.32273325  0.31455625  0.55129636  1
  O  O555  1  0.32190991  0.31425922  0.80164222  1
  O  O556  1  0.32210945  0.64680254  0.05099822  1
  O  O557  1  0.32403323  0.64599594  0.29920348  1
  O  O558  1  0.32431193  0.64630835  0.55049876  1
  O  O559  1  0.32203257  0.64690012  0.80167392  1
  O  O560  1  0.32401820  0.98068959  0.04939528  1
  O  O561  1  0.32357863  0.98129140  0.30094129  1
  O  O562  1  0.32313135  0.97914654  0.55068665  1
  O  O563  1  0.32426458  0.98020179  0.79896714  1
  O  O564  1  0.82184176  0.31377058  0.05083503  1
  O  O565  1  0.82297995  0.31474586  0.30064381  1
  O  O566  1  0.82223031  0.31534719  0.55138276  1
  O  O567  1  0.82348924  0.31172762  0.80093820  1
  O  O568  1  0.82336791  0.64723593  0.05087148  1
  O  O569  1  0.82403669  0.64540086  0.30033557  1
  O  O570  1  0.82311645  0.64745364  0.55115830  1
  O  O571  1  0.82219795  0.64590162  0.80208009  1
  O  O572  1  0.82349374  0.97909292  0.05009101  1
  O  O573  1  0.82414795  0.98028613  0.29883336  1
  O  O574  1  0.82323003  0.98184785  0.55180670  1
  O  O575  1  0.82290257  0.98089062  0.80180682  1
  O  O576  1  0.42647874  0.14703663  0.17404219  1
  O  O577  1  0.42681651  0.14822481  0.42601987  1
  O  O578  1  0.42540042  0.14692774  0.67435551  1
  O  O579  1  0.42717924  0.14875310  0.92541237  1
  O  O580  1  0.42651584  0.47991511  0.17395195  1
  O  O581  1  0.42683180  0.47994992  0.42546042  1
  O  O582  1  0.42824694  0.48040265  0.67679223  1
  O  O583  1  0.42732174  0.47977072  0.92421350  1
  O  O584  1  0.42724631  0.81216640  0.17625353  1
  O  O585  1  0.42819931  0.81334990  0.42653033  1
  O  O586  1  0.42726413  0.81206090  0.67499053  1
  O  O587  1  0.42708831  0.81438582  0.92582858  1
  O  O588  1  0.92687602  0.14866736  0.17634724  1
  O  O589  1  0.92789410  0.14711948  0.42749092  1
  O  O590  1  0.92694797  0.14717020  0.67631395  1
  O  O591  1  0.92646059  0.14546498  0.92546879  1
  O  O592  1  0.92720950  0.47926059  0.17494036  1
  O  O593  1  0.92703339  0.47849219  0.42448830  1
  O  O594  1  0.92562419  0.48018296  0.67465901  1
  O  O595  1  0.92806961  0.48023738  0.92708542  1
  O  O596  1  0.92781857  0.81496365  0.17568885  1
  O  O597  1  0.92631696  0.81219428  0.42610414  1
  O  O598  1  0.92654470  0.81262767  0.67533726  1
  O  O599  1  0.92688161  0.81287166  0.92490675  1
  O  O600  1  0.07284928  0.18792523  0.07495315  1
  O  O601  1  0.07188717  0.18595402  0.32380065  1
  O  O602  1  0.07146552  0.18598676  0.57257323  1
  O  O603  1  0.07227749  0.18542250  0.82422914  1
  O  O604  1  0.07154079  0.51957121  0.07226613  1
  O  O605  1  0.07418018  0.51922809  0.32524826  1
  O  O606  1  0.07318715  0.52100651  0.57570098  1
  O  O607  1  0.07202137  0.52063472  0.82532886  1
  O  O608  1  0.07393021  0.85509509  0.07446490  1
  O  O609  1  0.07278237  0.85175835  0.32463528  1
  O  O610  1  0.07289988  0.85466295  0.57604318  1
  O  O611  1  0.07328748  0.85441260  0.82523640  1
  O  O612  1  0.57218920  0.18649303  0.07187004  1
  O  O613  1  0.57393066  0.18678653  0.32525884  1
  O  O614  1  0.57156091  0.18656112  0.57368228  1
  O  O615  1  0.57255604  0.18771914  0.82404408  1
  O  O616  1  0.57463287  0.51984668  0.07502243  1
  O  O617  1  0.57323654  0.52075918  0.32533287  1
  O  O618  1  0.57346981  0.52028137  0.57542052  1
  O  O619  1  0.57112182  0.51927576  0.82274881  1
  O  O620  1  0.57336785  0.85102952  0.07388623  1
  O  O621  1  0.57481728  0.85312087  0.32551406  1
  O  O622  1  0.57353615  0.85120108  0.57473014  1
  O  O623  1  0.57464681  0.85320816  0.82512360  1
  O  O624  1  0.32230129  0.18838501  0.04927830  1
  O  O625  1  0.32403562  0.18746593  0.29897089  1
  O  O626  1  0.32209046  0.18731313  0.55065093  1
  O  O627  1  0.32179670  0.18698021  0.80117641  1
  O  O628  1  0.32243721  0.51958087  0.04998499  1
  O  O629  1  0.32355966  0.51920796  0.29881576  1
  O  O630  1  0.32431336  0.51938369  0.55084610  1
  O  O631  1  0.32140028  0.51935898  0.80215098  1
  O  O632  1  0.32459350  0.85350012  0.04974046  1
  O  O633  1  0.32369543  0.85396987  0.30042128  1
  O  O634  1  0.32309503  0.85195642  0.55041083  1
  O  O635  1  0.32470513  0.85323187  0.80011451  1
  O  O636  1  0.82202839  0.18626855  0.05200599  1
  O  O637  1  0.82276244  0.18784192  0.30049715  1
  O  O638  1  0.82270945  0.18820030  0.54992588  1
  O  O639  1  0.82257753  0.18469324  0.80118464  1
  O  O640  1  0.82333728  0.52031389  0.05008473  1
  O  O641  1  0.82348346  0.51821172  0.30065289  1
  O  O642  1  0.82358506  0.52037319  0.55083296  1
  O  O643  1  0.82215742  0.51848634  0.80176878  1
  O  O644  1  0.82334583  0.85188236  0.04994521  1
  O  O645  1  0.82443300  0.85328476  0.30007839  1
  O  O646  1  0.82393038  0.85458627  0.55120528  1
  O  O647  1  0.82365420  0.85375879  0.79981074  1
  O  O648  1  0.17551011  0.14684441  0.20088278  1
  O  O649  1  0.17685450  0.14587462  0.44946554  1
  O  O650  1  0.17550839  0.14742630  0.69972448  1
  O  O651  1  0.17625603  0.14902252  0.94896894  1
  O  O652  1  0.17683291  0.48064969  0.19693904  1
  O  O653  1  0.17596024  0.48016338  0.45047937  1
  O  O654  1  0.17661779  0.47931933  0.70072400  1
  O  O655  1  0.17819888  0.48116605  0.94798139  1
  O  O656  1  0.17704852  0.81273661  0.19893805  1
  O  O657  1  0.17585180  0.81336176  0.44997008  1
  O  O658  1  0.17686147  0.81462619  0.69972582  1
  O  O659  1  0.17696436  0.81222791  0.95044233  1
  O  O660  1  0.67686502  0.14855509  0.19835443  1
  O  O661  1  0.67607875  0.14708384  0.45136532  1
  O  O662  1  0.67627735  0.14536304  0.70056201  1
  O  O663  1  0.67787340  0.14698523  0.94816154  1
  O  O664  1  0.67682802  0.47910464  0.20012986  1
  O  O665  1  0.67798983  0.48108661  0.44876540  1
  O  O666  1  0.67650841  0.47867301  0.69957367  1
  O  O667  1  0.67702911  0.48111565  0.94917660  1
  O  O668  1  0.67841954  0.81338015  0.19808018  1
  O  O669  1  0.67721723  0.81366696  0.45085170  1
  O  O670  1  0.67700734  0.81149607  0.70094926  1
  O  O671  1  0.67739407  0.81178027  0.94982935  1
