# generated using pymatgen
data_Na2MnFe(PO4)2
_symmetry_space_group_name_H-M   'P 1'
_cell_length_a   22.34709879
_cell_length_b   20.09778783
_cell_length_c   19.44881893
_cell_angle_alpha   89.95816267
_cell_angle_beta   89.93899939
_cell_angle_gamma   89.95994208
_symmetry_Int_Tables_number   1
_chemical_formula_structural   Na2MnFe(PO4)2
_chemical_formula_sum   'Na96 Mn48 Fe48 P96 O384'
_cell_volume   8734.98515321
_cell_formula_units_Z   48
loop_
 _symmetry_equiv_pos_site_id
 _symmetry_equiv_pos_as_xyz
  1  'x, y, z'
loop_
 _atom_site_type_symbol
 _atom_site_label
 _atom_site_symmetry_multiplicity
 _atom_site_fract_x
 _atom_site_fract_y
 _atom_site_fract_z
 _atom_site_occupancy
  Na  Na0  1  0.14081463  0.24970087  0.24471920  1
  Na  Na1  1  0.14059326  0.25054899  0.49515790  1
  Na  Na2  1  0.14035514  0.24969339  0.74509333  1
  Na  Na3  1  0.14018198  0.25091226  0.99393235  1
  Na  Na4  1  0.14038284  0.58205471  0.24435129  1
  Na  Na5  1  0.14033624  0.58318330  0.49340364  1
  Na  Na6  1  0.14051076  0.58384164  0.74491078  1
  Na  Na7  1  0.14052266  0.58417020  0.99410852  1
  Na  Na8  1  0.14051333  0.91625703  0.24392103  1
  Na  Na9  1  0.14093994  0.91760642  0.49413631  1
  Na  Na10  1  0.14058833  0.91668585  0.74455404  1
  Na  Na11  1  0.14058981  0.91706927  0.99321265  1
  Na  Na12  1  0.64082394  0.25119003  0.24349197  1
  Na  Na13  1  0.64033653  0.25074157  0.49359158  1
  Na  Na14  1  0.64060264  0.25078941  0.74372329  1
  Na  Na15  1  0.64029697  0.25017959  0.99328618  1
  Na  Na16  1  0.64046470  0.58261142  0.24375930  1
  Na  Na17  1  0.64087381  0.58304839  0.49288154  1
  Na  Na18  1  0.64087626  0.58395022  0.74225393  1
  Na  Na19  1  0.64061107  0.58378417  0.99271603  1
  Na  Na20  1  0.64051135  0.91674514  0.24306446  1
  Na  Na21  1  0.64039895  0.91504904  0.49354412  1
  Na  Na22  1  0.64036448  0.91586879  0.74223876  1
  Na  Na23  1  0.64065097  0.91703361  0.99198761  1
  Na  Na24  1  0.36030403  0.08458980  0.00617602  1
  Na  Na25  1  0.36027590  0.08330656  0.25560675  1
  Na  Na26  1  0.36010042  0.08391037  0.50608731  1
  Na  Na27  1  0.35997127  0.08271356  0.75722142  1
  Na  Na28  1  0.35952940  0.41693534  0.00627321  1
  Na  Na29  1  0.35961652  0.41616527  0.25643972  1
  Na  Na30  1  0.36025085  0.41724231  0.50627682  1
  Na  Na31  1  0.35954179  0.41716002  0.75605620  1
  Na  Na32  1  0.36024355  0.75002872  0.00452392  1
  Na  Na33  1  0.35965630  0.74855398  0.25605826  1
  Na  Na34  1  0.35978122  0.74992278  0.50679774  1
  Na  Na35  1  0.36036076  0.74993046  0.75674152  1
  Na  Na36  1  0.85941221  0.08379530  0.00640474  1
  Na  Na37  1  0.85920852  0.08344121  0.25638177  1
  Na  Na38  1  0.85900393  0.08314675  0.50739400  1
  Na  Na39  1  0.85932046  0.08387933  0.75767508  1
  Na  Na40  1  0.85847342  0.41612837  0.00743768  1
  Na  Na41  1  0.85868942  0.41782008  0.25608010  1
  Na  Na42  1  0.85841876  0.41660681  0.50657337  1
  Na  Na43  1  0.85848247  0.41638681  0.75650408  1
  Na  Na44  1  0.85904571  0.74880826  0.00559248  1
  Na  Na45  1  0.85859835  0.74843768  0.25626237  1
  Na  Na46  1  0.85895959  0.74843025  0.50594114  1
  Na  Na47  1  0.85914716  0.74945462  0.75553701  1
  Na  Na48  1  0.10927762  0.08412163  0.11932517  1
  Na  Na49  1  0.10977447  0.08376227  0.36953725  1
  Na  Na50  1  0.10994660  0.08298158  0.62029972  1
  Na  Na51  1  0.10954976  0.08323963  0.86885737  1
  Na  Na52  1  0.10952957  0.41754646  0.11929554  1
  Na  Na53  1  0.10963191  0.41693240  0.36940531  1
  Na  Na54  1  0.10964685  0.41748012  0.61962875  1
  Na  Na55  1  0.10943264  0.41482208  0.86968521  1
  Na  Na56  1  0.10989037  0.75035285  0.11853157  1
  Na  Na57  1  0.10970057  0.74881032  0.36857045  1
  Na  Na58  1  0.10987230  0.74998955  0.61937204  1
  Na  Na59  1  0.10980296  0.75012879  0.86920395  1
  Na  Na60  1  0.60968526  0.08464618  0.11784481  1
  Na  Na61  1  0.60992818  0.08418863  0.36912333  1
  Na  Na62  1  0.60985001  0.08279733  0.61848532  1
  Na  Na63  1  0.60990824  0.08336016  0.86847634  1
  Na  Na64  1  0.60999122  0.41692943  0.11715824  1
  Na  Na65  1  0.61065820  0.41678689  0.36863520  1
  Na  Na66  1  0.61005815  0.41591579  0.61679755  1
  Na  Na67  1  0.60984065  0.41618300  0.86842490  1
  Na  Na68  1  0.61014771  0.75047383  0.11775168  1
  Na  Na69  1  0.61007085  0.75118342  0.36834738  1
  Na  Na70  1  0.61049530  0.74920288  0.61768374  1
  Na  Na71  1  0.61030363  0.75027220  0.86636513  1
  Na  Na72  1  0.39010390  0.24997705  0.13051881  1
  Na  Na73  1  0.39099573  0.25053626  0.38188931  1
  Na  Na74  1  0.39094245  0.24917365  0.63098642  1
  Na  Na75  1  0.39009168  0.24921372  0.88281747  1
  Na  Na76  1  0.39022783  0.58442922  0.13081120  1
  Na  Na77  1  0.39002192  0.58353997  0.38252596  1
  Na  Na78  1  0.39053260  0.58308571  0.63092759  1
  Na  Na79  1  0.39077953  0.58384245  0.88084422  1
  Na  Na80  1  0.39096869  0.91740552  0.12960750  1
  Na  Na81  1  0.39103729  0.91818522  0.38115321  1
  Na  Na82  1  0.39093131  0.91574845  0.63193593  1
  Na  Na83  1  0.39109676  0.91607826  0.88070194  1
  Na  Na84  1  0.88942603  0.25059849  0.13192589  1
  Na  Na85  1  0.88964281  0.25041300  0.38146385  1
  Na  Na86  1  0.88928369  0.24906629  0.63289011  1
  Na  Na87  1  0.88924860  0.24839279  0.88240178  1
  Na  Na88  1  0.88935846  0.58395069  0.13140478  1
  Na  Na89  1  0.88917380  0.58300442  0.38187077  1
  Na  Na90  1  0.88933025  0.58384643  0.63077892  1
  Na  Na91  1  0.88948974  0.58274509  0.88172873  1
  Na  Na92  1  0.89027618  0.91683747  0.13008519  1
  Na  Na93  1  0.89006612  0.91564300  0.38103286  1
  Na  Na94  1  0.89028076  0.91623887  0.63130875  1
  Na  Na95  1  0.89004997  0.91581326  0.88112533  1
  Mn  Mn96  1  0.74985312  0.00009034  0.87435245  1
  Mn  Mn97  1  -0.00029735  0.16643321  0.25035779  1
  Mn  Mn98  1  0.50009571  0.50086877  -0.00095184  1
  Mn  Mn99  1  0.75030233  0.00048761  0.12431440  1
  Mn  Mn100  1  -0.00005696  0.33427064  0.25084791  1
  Mn  Mn101  1  0.50069268  0.16567757  0.75035424  1
  Mn  Mn102  1  0.25063022  0.33436438  0.62490827  1
  Mn  Mn103  1  0.00042648  0.83361686  -0.00000945  1
  Mn  Mn104  1  0.49969708  0.50057507  0.24926308  1
  Mn  Mn105  1  -0.00027683  0.49952790  0.75101284  1
  Mn  Mn106  1  0.49982799  0.83533570  0.24848204  1
  Mn  Mn107  1  -0.00077285  0.83425070  0.24936237  1
  Mn  Mn108  1  0.74937748  -0.00082419  0.37537032  1
  Mn  Mn109  1  0.50055039  -0.00025216  0.50002728  1
  Mn  Mn110  1  0.74975575  0.16783378  0.37568559  1
  Mn  Mn111  1  0.50067813  0.16656959  0.24964218  1
  Mn  Mn112  1  -0.00122588  0.33197852  0.75023962  1
  Mn  Mn113  1  -0.00002487  0.66637947  0.75034969  1
  Mn  Mn114  1  0.50004267  0.49996393  0.74974346  1
  Mn  Mn115  1  0.25060977  0.00056446  0.37466121  1
  Mn  Mn116  1  0.24964684  0.16777212  0.12519695  1
  Mn  Mn117  1  0.00078898  0.83273938  0.50035606  1
  Mn  Mn118  1  0.24975234  0.66608853  0.62556045  1
  Mn  Mn119  1  0.50102839  0.83361945  -0.00081302  1
  Mn  Mn120  1  -0.00039397  0.33327621  0.50069517  1
  Mn  Mn121  1  0.24958330  0.83370760  0.62515504  1
  Mn  Mn122  1  0.74938421  0.49980474  0.87481474  1
  Mn  Mn123  1  -0.00059810  0.16622903  0.00085847  1
  Mn  Mn124  1  0.25019255  0.33342968  0.37571277  1
  Mn  Mn125  1  -0.00054569  -0.00002424  0.50061950  1
  Mn  Mn126  1  0.49990549  0.33280709  0.74929013  1
  Mn  Mn127  1  0.25046380  0.49992680  0.12509905  1
  Mn  Mn128  1  0.25068651  0.83196016  0.12453534  1
  Mn  Mn129  1  -0.00103636  0.50074531  0.50010305  1
  Mn  Mn130  1  0.24981976  0.50061258  0.87596154  1
  Mn  Mn131  1  0.50032404  0.33359939  0.24987469  1
  Mn  Mn132  1  -0.00068935  0.66633847  0.24971969  1
  Mn  Mn133  1  0.75002157  0.83205249  0.12400979  1
  Mn  Mn134  1  -0.00062996  0.16618349  0.50084457  1
  Mn  Mn135  1  0.25090980  0.83237787  0.37471837  1
  Mn  Mn136  1  -0.00046336  0.83351299  0.75011531  1
  Mn  Mn137  1  -0.00040280  0.49985481  0.00015508  1
  Mn  Mn138  1  0.25049875  0.00019753  0.87542665  1
  Mn  Mn139  1  0.25003298  0.00020502  0.12452910  1
  Mn  Mn140  1  0.75011495  -0.00063790  0.62519969  1
  Mn  Mn141  1  0.50015676  0.66722094  0.49991777  1
  Mn  Mn142  1  0.25084190  0.16652157  0.62555048  1
  Mn  Mn143  1  0.50023708  0.66789160  0.25045022  1
  Fe  Fe144  1  0.74949586  0.16703465  0.62557525  1
  Fe  Fe145  1  0.75017665  0.83226901  0.37438453  1
  Fe  Fe146  1  0.24990350  0.33405512  0.87512502  1
  Fe  Fe147  1  0.74973150  0.50001088  0.62459982  1
  Fe  Fe148  1  0.50013231  0.16638562  0.49958579  1
  Fe  Fe149  1  -0.00020619  0.66658154  0.00054679  1
  Fe  Fe150  1  0.25040833  0.66712049  0.87469998  1
  Fe  Fe151  1  0.75029002  0.83241995  0.62399117  1
  Fe  Fe152  1  0.24996860  0.16730567  0.87525441  1
  Fe  Fe153  1  0.25018818  0.33322519  0.12567275  1
  Fe  Fe154  1  0.25045479  0.16684217  0.37525546  1
  Fe  Fe155  1  0.74959357  0.49987582  0.37477301  1
  Fe  Fe156  1  0.25033849  0.83322644  0.87473170  1
  Fe  Fe157  1  0.74878674  0.66597032  0.12478849  1
  Fe  Fe158  1  -0.00080717  0.33312542  0.00057915  1
  Fe  Fe159  1  -0.00001818  0.00005881  0.00005737  1
  Fe  Fe160  1  -0.00038186  0.00015149  0.25022785  1
  Fe  Fe161  1  0.49944093  0.33340864  -0.00045881  1
  Fe  Fe162  1  0.50036806  0.33324738  0.49978241  1
  Fe  Fe163  1  0.74964675  0.16744591  0.87539492  1
  Fe  Fe164  1  0.74961361  0.16745637  0.12527019  1
  Fe  Fe165  1  0.74982968  0.33317864  0.87542780  1
  Fe  Fe166  1  0.50012744  -0.00038580  0.74956191  1
  Fe  Fe167  1  -0.00058846  0.50056509  0.24996988  1
  Fe  Fe168  1  0.00002101  0.16576906  0.75148524  1
  Fe  Fe169  1  0.00014813  -0.00019313  0.75069653  1
  Fe  Fe170  1  0.50069270  0.49997894  0.50013684  1
  Fe  Fe171  1  0.25007973  0.49975207  0.37504840  1
  Fe  Fe172  1  0.75021310  0.33409600  0.37493274  1
  Fe  Fe173  1  0.24992470  0.66637467  0.12491996  1
  Fe  Fe174  1  0.50053035  0.66733306  -0.00074565  1
  Fe  Fe175  1  0.50079798  -0.00001528  -0.00057821  1
  Fe  Fe176  1  0.25006159  0.50046870  0.62569055  1
  Fe  Fe177  1  0.74966607  0.66593854  0.37505532  1
  Fe  Fe178  1  0.74998360  0.83255744  0.87368830  1
  Fe  Fe179  1  0.50028361  0.83346293  0.50025653  1
  Fe  Fe180  1  0.50047444  0.83286801  0.75000453  1
  Fe  Fe181  1  0.25013194  0.66560606  0.37550619  1
  Fe  Fe182  1  0.74980824  0.50011892  0.12550735  1
  Fe  Fe183  1  0.50087415  0.66642683  0.74904129  1
  Fe  Fe184  1  0.74962314  0.66666099  0.62399015  1
  Fe  Fe185  1  0.25054032  0.00029721  0.62530217  1
  Fe  Fe186  1  0.50010923  0.16612844  -0.00019529  1
  Fe  Fe187  1  0.50061974  0.00100687  0.24977691  1
  Fe  Fe188  1  -0.00000012  0.66635011  0.49992505  1
  Fe  Fe189  1  0.74992383  0.66635651  0.87375175  1
  Fe  Fe190  1  0.74975545  0.33356431  0.62520883  1
  Fe  Fe191  1  0.74934129  0.33360652  0.12501134  1
  P  P192  1  0.04178881  0.25147241  0.10285066  1
  P  P193  1  0.04280020  0.24998958  0.35361644  1
  P  P194  1  0.04236685  0.24912495  0.60443576  1
  P  P195  1  0.04146418  0.24846019  0.85362100  1
  P  P196  1  0.04203468  0.58423023  0.10288241  1
  P  P197  1  0.04162579  0.58234818  0.35275025  1
  P  P198  1  0.04240865  0.58451223  0.60266572  1
  P  P199  1  0.04264186  0.58310686  0.85436633  1
  P  P200  1  0.04266569  0.91861165  0.10269762  1
  P  P201  1  0.04230726  0.91768285  0.35241969  1
  P  P202  1  0.04297812  0.91700187  0.60398516  1
  P  P203  1  0.04215577  0.91781226  0.85305267  1
  P  P204  1  0.54107642  0.25018862  0.10086505  1
  P  P205  1  0.54285870  0.25017603  0.35370597  1
  P  P206  1  0.54148268  0.24921729  0.60119311  1
  P  P207  1  0.54216204  0.24980207  0.85382223  1
  P  P208  1  0.54245429  0.58492391  0.10170610  1
  P  P209  1  0.54243347  0.58331585  0.35352911  1
  P  P210  1  0.54251801  0.58253030  0.60225537  1
  P  P211  1  0.54270176  0.58486101  0.85199678  1
  P  P212  1  0.54317310  0.91868866  0.10192988  1
  P  P213  1  0.54276596  0.91850858  0.35226065  1
  P  P214  1  0.54239179  0.91489343  0.60308990  1
  P  P215  1  0.54194724  0.91707386  0.85126781  1
  P  P216  1  0.45836408  0.08236648  0.14630137  1
  P  P217  1  0.45815795  0.08430076  0.39721471  1
  P  P218  1  0.45809122  0.08195817  0.64726275  1
  P  P219  1  0.45901300  0.08244897  0.89791323  1
  P  P220  1  0.45735068  0.41660140  0.14592533  1
  P  P221  1  0.45926013  0.41701376  0.39852118  1
  P  P222  1  0.45776432  0.41658342  0.64559593  1
  P  P223  1  0.45774957  0.41589449  0.89730907  1
  P  P224  1  0.45770254  0.75043382  0.14577109  1
  P  P225  1  0.45781052  0.75224913  0.39762828  1
  P  P226  1  0.45917194  0.74993686  0.64803818  1
  P  P227  1  0.45900571  0.74903960  0.89609241  1
  P  P228  1  0.95737592  0.08196590  0.14750055  1
  P  P229  1  0.95634433  0.08294346  0.39695694  1
  P  P230  1  0.95795556  0.08304140  0.64968775  1
  P  P231  1  0.95765981  0.08169762  0.89742231  1
  P  P232  1  0.95731564  0.41819500  0.14757533  1
  P  P233  1  0.95658359  0.41709082  0.39688387  1
  P  P234  1  0.95644700  0.41680242  0.64742971  1
  P  P235  1  0.95674987  0.41473521  0.89817078  1
  P  P236  1  0.95694758  0.75011812  0.14627424  1
  P  P237  1  0.95759045  0.74869581  0.39764888  1
  P  P238  1  0.95717941  0.74952339  0.64647820  1
  P  P239  1  0.95747327  0.74871771  0.89791080  1
  P  P240  1  0.20737046  0.08374480  0.22849532  1
  P  P241  1  0.20807318  0.08463703  0.47800509  1
  P  P242  1  0.20844877  0.08235484  0.72825791  1
  P  P243  1  0.20780754  0.08528436  0.97743770  1
  P  P244  1  0.20798203  0.41556322  0.22796053  1
  P  P245  1  0.20786665  0.41846549  0.47814477  1
  P  P246  1  0.20782415  0.41788696  0.72829391  1
  P  P247  1  0.20777822  0.41557444  0.97829899  1
  P  P248  1  0.20798868  0.74757261  0.22788014  1
  P  P249  1  0.20793392  0.74862019  0.47739272  1
  P  P250  1  0.20756557  0.75014998  0.72919115  1
  P  P251  1  0.20880833  0.74978386  0.97657479  1
  P  P252  1  0.70774581  0.08477117  0.22721879  1
  P  P253  1  0.70739806  0.08347957  0.47894637  1
  P  P254  1  0.70796652  0.08475608  0.72790067  1
  P  P255  1  0.70822142  0.08503294  0.97754027  1
  P  P256  1  0.70804185  0.41671740  0.22695178  1
  P  P257  1  0.70895389  0.41680855  0.47719615  1
  P  P258  1  0.70810844  0.41692007  0.72640907  1
  P  P259  1  0.70764166  0.41517806  0.97793969  1
  P  P260  1  0.70751663  0.74799539  0.22766794  1
  P  P261  1  0.70865806  0.74943588  0.47665436  1
  P  P262  1  0.70889762  0.74988884  0.72615516  1
  P  P263  1  0.70839424  0.74943515  0.97552713  1
  P  P264  1  0.29195856  0.25202686  0.02182269  1
  P  P265  1  0.29288222  0.24922427  0.27278491  1
  P  P266  1  0.29322140  0.25010244  0.52181207  1
  P  P267  1  0.29186637  0.25037570  0.77379553  1
  P  P268  1  0.29229630  0.58505990  0.02221540  1
  P  P269  1  0.29185158  0.58278292  0.27336920  1
  P  P270  1  0.29208215  0.58199084  0.52214363  1
  P  P271  1  0.29261346  0.58419612  0.77271132  1
  P  P272  1  0.29284250  0.91623073  0.02103794  1
  P  P273  1  0.29336355  0.91607295  0.27152443  1
  P  P274  1  0.29272083  0.91812018  0.52282074  1
  P  P275  1  0.29237079  0.91576805  0.77241611  1
  P  P276  1  0.79104906  0.25019271  0.02331521  1
  P  P277  1  0.79180684  0.25212227  0.27214012  1
  P  P278  1  0.79118779  0.25028342  0.52386026  1
  P  P279  1  0.79076255  0.25052939  0.77322641  1
  P  P280  1  0.79064242  0.58325222  0.02313057  1
  P  P281  1  0.79071923  0.58308166  0.27291978  1
  P  P282  1  0.79067695  0.58298984  0.52249153  1
  P  P283  1  0.79175734  0.58398331  0.77157805  1
  P  P284  1  0.79236929  0.91619323  0.02070622  1
  P  P285  1  0.79181237  0.91502692  0.27227079  1
  P  P286  1  0.79219678  0.91459159  0.52190755  1
  P  P287  1  0.79180023  0.91492612  0.77158779  1
  O  O288  1  0.03683108  0.25123937  0.18279121  1
  O  O289  1  0.03772074  0.24989994  0.43360379  1
  O  O290  1  0.03706290  0.24837995  0.68442796  1
  O  O291  1  0.03622116  0.24920397  0.93355447  1
  O  O292  1  0.03663654  0.58342374  0.18283192  1
  O  O293  1  0.03649556  0.58324803  0.43271870  1
  O  O294  1  0.03756435  0.58397118  0.68267335  1
  O  O295  1  0.03743604  0.58362155  0.93431716  1
  O  O296  1  0.03708215  0.91852114  0.18262226  1
  O  O297  1  0.03741162  0.91702382  0.43244249  1
  O  O298  1  0.03760227  0.91739017  0.68394778  1
  O  O299  1  0.03708389  0.91777695  0.93301240  1
  O  O300  1  0.53669421  0.24991518  0.18091431  1
  O  O301  1  0.53754158  0.25000977  0.43360325  1
  O  O302  1  0.53673101  0.24938302  0.68120768  1
  O  O303  1  0.53665590  0.25012388  0.93368032  1
  O  O304  1  0.53730340  0.58456733  0.18169493  1
  O  O305  1  0.53729970  0.58268955  0.43350018  1
  O  O306  1  0.53749540  0.58297250  0.68222385  1
  O  O307  1  0.53744274  0.58529499  0.93196127  1
  O  O308  1  0.53781235  0.91884876  0.18187289  1
  O  O309  1  0.53755448  0.91750466  0.43220370  1
  O  O310  1  0.53700502  0.91504499  0.68293686  1
  O  O311  1  0.53714122  0.91716618  0.93126461  1
  O  O312  1  0.46389597  0.08260548  0.06641794  1
  O  O313  1  0.46344836  0.08362223  0.31726980  1
  O  O314  1  0.46334968  0.08283574  0.56735424  1
  O  O315  1  0.46387520  0.08225391  0.81793287  1
  O  O316  1  0.46245549  0.41626489  0.06596573  1
  O  O317  1  0.46358899  0.41695597  0.31844398  1
  O  O318  1  0.46332815  0.41687990  0.56568960  1
  O  O319  1  0.46264105  0.41612729  0.81730860  1
  O  O320  1  0.46328572  0.74977075  0.06581958  1
  O  O321  1  0.46278734  0.75215715  0.31765050  1
  O  O322  1  0.46376558  0.75072567  0.56802522  1
  O  O323  1  0.46437999  0.74893242  0.81620210  1
  O  O324  1  0.96275944  0.08204262  0.06753533  1
  O  O325  1  0.96133674  0.08262765  0.31697098  1
  O  O326  1  0.96233068  0.08327444  0.56962351  1
  O  O327  1  0.96320391  0.08220828  0.81754503  1
  O  O328  1  0.96247442  0.41749271  0.06762426  1
  O  O329  1  0.96190767  0.41781416  0.31693221  1
  O  O330  1  0.96140927  0.41698370  0.56744928  1
  O  O331  1  0.96177546  0.41496074  0.81819919  1
  O  O332  1  0.96239148  0.74964433  0.06635427  1
  O  O333  1  0.96240485  0.74918539  0.31764213  1
  O  O334  1  0.96267206  0.74899198  0.56654644  1
  O  O335  1  0.96260536  0.74908328  0.81792571  1
  O  O336  1  0.21281364  0.08501013  0.05738829  1
  O  O337  1  0.21270997  0.08421221  0.30842294  1
  O  O338  1  0.21350570  0.08369168  0.55795359  1
  O  O339  1  0.21360566  0.08301118  0.80815958  1
  O  O340  1  0.21321453  0.41546633  0.05821123  1
  O  O341  1  0.21326428  0.41618009  0.30787749  1
  O  O342  1  0.21314659  0.41878925  0.55807638  1
  O  O343  1  0.21322820  0.41712579  0.80824738  1
  O  O344  1  0.21366509  0.74930815  0.05657487  1
  O  O345  1  0.21326216  0.74741605  0.30781580  1
  O  O346  1  0.21262511  0.74906971  0.55740009  1
  O  O347  1  0.21299350  0.75028189  0.80908517  1
  O  O348  1  0.71341257  0.08530473  0.05746066  1
  O  O349  1  0.71279466  0.08437906  0.30718802  1
  O  O350  1  0.71291646  0.08363800  0.55888169  1
  O  O351  1  0.71338868  0.08472143  0.80784951  1
  O  O352  1  0.71295518  0.41519617  0.05774035  1
  O  O353  1  0.71295010  0.41691175  0.30683922  1
  O  O354  1  0.71405233  0.41731419  0.55703112  1
  O  O355  1  0.71283921  0.41631624  0.80634788  1
  O  O356  1  0.71302695  0.74880614  0.05550015  1
  O  O357  1  0.71299297  0.74821850  0.30750116  1
  O  O358  1  0.71411965  0.74991182  0.55650866  1
  O  O359  1  0.71371934  0.74973550  0.80603399  1
  O  O360  1  0.28743724  0.25015842  0.19284069  1
  O  O361  1  0.28794070  0.24955442  0.44191126  1
  O  O362  1  0.28717100  0.25032180  0.69378399  1
  O  O363  1  0.28652134  0.25178320  0.94194121  1
  O  O364  1  0.28695209  0.58317047  0.19338123  1
  O  O365  1  0.28672008  0.58222289  0.44223629  1
  O  O366  1  0.28732372  0.58334785  0.69279483  1
  O  O367  1  0.28695195  0.58517480  0.94232372  1
  O  O368  1  0.28817324  0.91602095  0.19155973  1
  O  O369  1  0.28791985  0.91787584  0.44283945  1
  O  O370  1  0.28715827  0.91649949  0.69249296  1
  O  O371  1  0.28746656  0.91582631  0.94110265  1
  O  O372  1  0.78616706  0.25194260  0.19232593  1
  O  O373  1  0.78651146  0.25085819  0.44391359  1
  O  O374  1  0.78589964  0.25008562  0.69336933  1
  O  O375  1  0.78595974  0.24995723  0.94342793  1
  O  O376  1  0.78572091  0.58282732  0.19305548  1
  O  O377  1  0.78553980  0.58338457  0.44264704  1
  O  O378  1  0.78650117  0.58364350  0.69176359  1
  O  O379  1  0.78611059  0.58290945  0.94317046  1
  O  O380  1  0.78666759  0.91543434  0.19229499  1
  O  O381  1  0.78681952  0.91466034  0.44197760  1
  O  O382  1  0.78648839  0.91483127  0.69164297  1
  O  O383  1  0.78704771  0.91601879  0.94076783  1
  O  O384  1  0.22783448  0.25251078  0.05814289  1
  O  O385  1  0.22863022  0.24870402  0.30868295  1
  O  O386  1  0.22898447  0.25027475  0.55740914  1
  O  O387  1  0.22757449  0.25002983  0.80945975  1
  O  O388  1  0.22812450  0.58457775  0.05825634  1
  O  O389  1  0.22765377  0.58257313  0.30937162  1
  O  O390  1  0.22793087  0.58166574  0.55838878  1
  O  O391  1  0.22837156  0.58473680  0.80851779  1
  O  O392  1  0.22859840  0.91597237  0.05663686  1
  O  O393  1  0.22900654  0.91616758  0.30677766  1
  O  O394  1  0.22828605  0.91855836  0.55813456  1
  O  O395  1  0.22819919  0.91564577  0.80835097  1
  O  O396  1  0.72694610  0.25024263  0.05973223  1
  O  O397  1  0.72775148  0.25250961  0.30860675  1
  O  O398  1  0.72696878  0.24951528  0.55973160  1
  O  O399  1  0.72671763  0.25119216  0.80956232  1
  O  O400  1  0.72648287  0.58358252  0.05910014  1
  O  O401  1  0.72672905  0.58380791  0.30939172  1
  O  O402  1  0.72675631  0.58232911  0.55911244  1
  O  O403  1  0.72757916  0.58404586  0.80770638  1
  O  O404  1  0.72816745  0.91634910  0.05636662  1
  O  O405  1  0.72757576  0.91448985  0.30806238  1
  O  O406  1  0.72799759  0.91480915  0.55785090  1
  O  O407  1  0.72762112  0.91491161  0.80759015  1
  O  O408  1  0.27168778  0.08382716  0.19306110  1
  O  O409  1  0.27233756  0.08528462  0.44204080  1
  O  O410  1  0.27274343  0.08185711  0.69250620  1
  O  O411  1  0.27217417  0.08546452  0.94200026  1
  O  O412  1  0.27221685  0.41518142  0.19200709  1
  O  O413  1  0.27210241  0.41835903  0.44223665  1
  O  O414  1  0.27206302  0.41868039  0.69229089  1
  O  O415  1  0.27196197  0.41592744  0.94230148  1
  O  O416  1  0.27228111  0.74750918  0.19206124  1
  O  O417  1  0.27240439  0.74821369  0.44225168  1
  O  O418  1  0.27172518  0.75005646  0.69330832  1
  O  O419  1  0.27297855  0.75011814  0.94051980  1
  O  O420  1  0.77205343  0.08525783  0.19161663  1
  O  O421  1  0.77153615  0.08327047  0.44313213  1
  O  O422  1  0.77209851  0.08480811  0.69183851  1
  O  O423  1  0.77232674  0.08445860  0.94156769  1
  O  O424  1  0.77210792  0.41618783  0.19067443  1
  O  O425  1  0.77281872  0.41641143  0.44041283  1
  O  O426  1  0.77228840  0.41747663  0.69051613  1
  O  O427  1  0.77171787  0.41528169  0.94154070  1
  O  O428  1  0.77159369  0.74739874  0.19122458  1
  O  O429  1  0.77255547  0.74902347  0.43980649  1
  O  O430  1  0.77292290  0.75005497  0.68986118  1
  O  O431  1  0.77260290  0.75012900  0.93960326  1
  O  O432  1  0.02160232  0.08179640  0.18327780  1
  O  O433  1  0.02084278  0.08317843  0.43184089  1
  O  O434  1  0.02234906  0.08327946  0.68491767  1
  O  O435  1  0.02176378  0.08183444  0.93358583  1
  O  O436  1  0.02157512  0.41903089  0.18327100  1
  O  O437  1  0.02092412  0.41696746  0.43214164  1
  O  O438  1  0.02089914  0.41614180  0.68230411  1
  O  O439  1  0.02115759  0.41477519  0.93334245  1
  O  O440  1  0.02119246  0.75026690  0.18164928  1
  O  O441  1  0.02201114  0.74790642  0.43293181  1
  O  O442  1  0.02144878  0.74998440  0.68187621  1
  O  O443  1  0.02180948  0.74834590  0.93334184  1
  O  O444  1  0.52251538  0.08211347  0.18248950  1
  O  O445  1  0.52235388  0.08461241  0.43303129  1
  O  O446  1  0.52240671  0.08137974  0.68287795  1
  O  O447  1  0.52317894  0.08238283  0.93369087  1
  O  O448  1  0.52175983  0.41704691  0.18103502  1
  O  O449  1  0.52349620  0.41693774  0.43394834  1
  O  O450  1  0.52197545  0.41656077  0.68127192  1
  O  O451  1  0.52205951  0.41600992  0.93255982  1
  O  O452  1  0.52194002  0.75089581  0.18126273  1
  O  O453  1  0.52220866  0.75192838  0.43288907  1
  O  O454  1  0.52342534  0.74932946  0.68357477  1
  O  O455  1  0.52310870  0.74891107  0.93223351  1
  O  O456  1  0.47687339  0.25020497  0.06542850  1
  O  O457  1  0.47865715  0.24992109  0.31802207  1
  O  O458  1  0.47736113  0.24895795  0.56545666  1
  O  O459  1  0.47804219  0.24943167  0.81795580  1
  O  O460  1  0.47813764  0.58518534  0.06630514  1
  O  O461  1  0.47808505  0.58377610  0.31828975  1
  O  O462  1  0.47826136  0.58250794  0.56674505  1
  O  O463  1  0.47843708  0.58505467  0.81635852  1
  O  O464  1  0.47895547  0.91834406  0.06617233  1
  O  O465  1  0.47848048  0.91951293  0.31653799  1
  O  O466  1  0.47826860  0.91500567  0.56699329  1
  O  O467  1  0.47782297  0.91744825  0.81539064  1
  O  O468  1  0.97739586  0.25116714  0.06758462  1
  O  O469  1  0.97836127  0.25020451  0.31871414  1
  O  O470  1  0.97793905  0.24963644  0.56933892  1
  O  O471  1  0.97719704  0.24767625  0.81800254  1
  O  O472  1  0.97776812  0.58464028  0.06718944  1
  O  O473  1  0.97728447  0.58171719  0.31727987  1
  O  O474  1  0.97789071  0.58539528  0.56759447  1
  O  O475  1  0.97822410  0.58295490  0.81928494  1
  O  O476  1  0.97845013  0.91829525  0.06684080  1
  O  O477  1  0.97785546  0.91842072  0.31716240  1
  O  O478  1  0.97863181  0.91617851  0.56875151  1
  O  O479  1  0.97787388  0.91796977  0.81748032  1
  O  O480  1  0.07206122  0.31523369  0.07427061  1
  O  O481  1  0.07398660  0.31343239  0.32562281  1
  O  O482  1  0.07341519  0.31285951  0.57670250  1
  O  O483  1  0.07242504  0.31194172  0.82525883  1
  O  O484  1  0.07270091  0.64798840  0.07473372  1
  O  O485  1  0.07270722  0.64572413  0.32432454  1
  O  O486  1  0.07340797  0.64782617  0.57410196  1
  O  O487  1  0.07395314  0.64614873  0.82567237  1
  O  O488  1  0.07345813  0.98194227  0.07392841  1
  O  O489  1  0.07322378  0.98115003  0.32422841  1
  O  O490  1  0.07367564  0.98050553  0.57541105  1
  O  O491  1  0.07316702  0.98107979  0.82431843  1
  O  O492  1  0.57186085  0.31390864  0.07283875  1
  O  O493  1  0.57371634  0.31377570  0.32523335  1
  O  O494  1  0.57181453  0.31324081  0.57295701  1
  O  O495  1  0.57328563  0.31308931  0.82499511  1
  O  O496  1  0.57326737  0.64839573  0.07326749  1
  O  O497  1  0.57340927  0.64708923  0.32586927  1
  O  O498  1  0.57375545  0.64595036  0.57415552  1
  O  O499  1  0.57391852  0.64772874  0.82263875  1
  O  O500  1  0.57401785  0.98193272  0.07304350  1
  O  O501  1  0.57378480  0.98211667  0.32430541  1
  O  O502  1  0.57377680  0.97833991  0.57504643  1
  O  O503  1  0.57331225  0.98030120  0.82289370  1
  O  O504  1  0.42741563  0.01905569  0.17513572  1
  O  O505  1  0.42696515  0.02096800  0.42560241  1
  O  O506  1  0.42744576  0.01828957  0.67560622  1
  O  O507  1  0.42774704  0.01916707  0.92626401  1
  O  O508  1  0.42645105  0.35334624  0.17486048  1
  O  O509  1  0.42867976  0.35318431  0.42683273  1
  O  O510  1  0.42661643  0.35302604  0.67371545  1
  O  O511  1  0.42717101  0.35230547  0.92578433  1
  O  O512  1  0.42654764  0.68733563  0.17475018  1
  O  O513  1  0.42667575  0.68864745  0.42547428  1
  O  O514  1  0.42817751  0.68608950  0.67563216  1
  O  O515  1  0.42791705  0.68586406  0.92515604  1
  O  O516  1  0.92632071  0.01872997  0.17613093  1
  O  O517  1  0.92532357  0.01969127  0.42579334  1
  O  O518  1  0.92754024  0.01902233  0.67760197  1
  O  O519  1  0.92689001  0.01812776  0.92587654  1
  O  O520  1  0.92649683  0.35460300  0.17579464  1
  O  O521  1  0.92579619  0.35330484  0.42477757  1
  O  O522  1  0.92506253  0.35347778  0.67538940  1
  O  O523  1  0.92628210  0.35113109  0.92682736  1
  O  O524  1  0.92553445  0.68703380  0.17485847  1
  O  O525  1  0.92661878  0.68522262  0.42593349  1
  O  O526  1  0.92595888  0.68634641  0.67506596  1
  O  O527  1  0.92661471  0.68523017  0.92624288  1
  O  O528  1  0.17662251  0.02004226  0.20045726  1
  O  O529  1  0.17707421  0.02116039  0.44974612  1
  O  O530  1  0.17782469  0.01875257  0.69982174  1
  O  O531  1  0.17687489  0.02159182  0.94984752  1
  O  O532  1  0.17719219  0.35193265  0.19993311  1
  O  O533  1  0.17689220  0.35452553  0.45091306  1
  O  O534  1  0.17704809  0.35425370  0.70011741  1
  O  O535  1  0.17699113  0.35239127  0.94920590  1
  O  O536  1  0.17705128  0.68437902  0.19900270  1
  O  O537  1  0.17726190  0.68506083  0.44910283  1
  O  O538  1  0.17626460  0.68679262  0.70102064  1
  O  O539  1  0.17804818  0.68624320  0.94816871  1
  O  O540  1  0.67707220  0.02107044  0.19917888  1
  O  O541  1  0.67625583  0.01991631  0.45110370  1
  O  O542  1  0.67703867  0.02095034  0.70032111  1
  O  O543  1  0.67681768  0.02151401  0.94994663  1
  O  O544  1  0.67652865  0.35357445  0.19854900  1
  O  O545  1  0.67785718  0.35323499  0.44924107  1
  O  O546  1  0.67778184  0.35317157  0.69749796  1
  O  O547  1  0.67684833  0.35187593  0.94899412  1
  O  O548  1  0.67627323  0.68483154  0.19894799  1
  O  O549  1  0.67735442  0.68587596  0.44901807  1
  O  O550  1  0.67844329  0.68610912  0.69735111  1
  O  O551  1  0.67817897  0.68571253  0.94660470  1
  O  O552  1  0.32311984  0.31510513  0.05073280  1
  O  O553  1  0.32400060  0.31264115  0.30102203  1
  O  O554  1  0.32404810  0.31388845  0.54947928  1
  O  O555  1  0.32226020  0.31431425  0.80170329  1
  O  O556  1  0.32293812  0.64840589  0.05100695  1
  O  O557  1  0.32270862  0.64621180  0.30202187  1
  O  O558  1  0.32315494  0.64566351  0.55006316  1
  O  O559  1  0.32340170  0.64788509  0.80066356  1
  O  O560  1  0.32343115  0.98020426  0.04865591  1
  O  O561  1  0.32451094  0.97945778  0.29950871  1
  O  O562  1  0.32346009  0.98154434  0.55137392  1
  O  O563  1  0.32382991  0.97895564  0.80059700  1
  O  O564  1  0.82199261  0.31372784  0.05156818  1
  O  O565  1  0.82291833  0.31535506  0.30084971  1
  O  O566  1  0.82136561  0.31411813  0.55261072  1
  O  O567  1  0.82209893  0.31384965  0.80153740  1
  O  O568  1  0.82175761  0.64663779  0.05128058  1
  O  O569  1  0.82235772  0.64617999  0.30121701  1
  O  O570  1  0.82095622  0.64690337  0.55113953  1
  O  O571  1  0.82251578  0.64747977  0.80032906  1
  O  O572  1  0.82339646  0.97974149  0.04876333  1
  O  O573  1  0.82251373  0.97876589  0.30014261  1
  O  O574  1  0.82331843  0.97820635  0.54981196  1
  O  O575  1  0.82268032  0.97878233  0.79903007  1
  O  O576  1  0.42725965  0.14602956  0.17434612  1
  O  O577  1  0.42743343  0.14796109  0.42547428  1
  O  O578  1  0.42700687  0.14533601  0.67581315  1
  O  O579  1  0.42865814  0.14647738  0.92629576  1
  O  O580  1  0.42621981  0.48021550  0.17393339  1
  O  O581  1  0.42847405  0.48071861  0.42661709  1
  O  O582  1  0.42643307  0.47973403  0.67439471  1
  O  O583  1  0.42657485  0.47958284  0.92490455  1
  O  O584  1  0.42656130  0.81420497  0.17315853  1
  O  O585  1  0.42736470  0.81584312  0.42628226  1
  O  O586  1  0.42858960  0.81342914  0.67721893  1
  O  O587  1  0.42796675  0.81282439  0.92385475  1
  O  O588  1  0.92654149  0.14594754  0.17504016  1
  O  O589  1  0.92535164  0.14651915  0.42523440  1
  O  O590  1  0.92706819  0.14653231  0.67825668  1
  O  O591  1  0.92617426  0.14503287  0.92573262  1
  O  O592  1  0.92636771  0.48181100  0.17573411  1
  O  O593  1  0.92514447  0.48014284  0.42553669  1
  O  O594  1  0.92594983  0.48052760  0.67576109  1
  O  O595  1  0.92556597  0.47836329  0.92586618  1
  O  O596  1  0.92593039  0.81384576  0.17405251  1
  O  O597  1  0.92708839  0.81256245  0.42563259  1
  O  O598  1  0.92605508  0.81311313  0.67443563  1
  O  O599  1  0.92665646  0.81255969  0.92548823  1
  O  O600  1  0.07310963  0.18794183  0.07513938  1
  O  O601  1  0.07364641  0.18652367  0.32519453  1
  O  O602  1  0.07351279  0.18592532  0.57575236  1
  O  O603  1  0.07249375  0.18491047  0.82546582  1
  O  O604  1  0.07334574  0.52087104  0.07476319  1
  O  O605  1  0.07240222  0.51870045  0.32448601  1
  O  O606  1  0.07285000  0.52061442  0.57461123  1
  O  O607  1  0.07334865  0.51917604  0.82653723  1
  O  O608  1  0.07392003  0.85486267  0.07507430  1
  O  O609  1  0.07284615  0.85379497  0.32431034  1
  O  O610  1  0.07448396  0.85366777  0.57596973  1
  O  O611  1  0.07294064  0.85387585  0.82540142  1
  O  O612  1  0.57163581  0.18635669  0.07251934  1
  O  O613  1  0.57433775  0.18707996  0.32498827  1
  O  O614  1  0.57257519  0.18564295  0.57338103  1
  O  O615  1  0.57355887  0.18641339  0.82562103  1
  O  O616  1  0.57339574  0.52124032  0.07377132  1
  O  O617  1  0.57353738  0.52015461  0.32462567  1
  O  O618  1  0.57315822  0.51887492  0.57375502  1
  O  O619  1  0.57337540  0.52065959  0.82479620  1
  O  O620  1  0.57432724  0.85493284  0.07423765  1
  O  O621  1  0.57347610  0.85495567  0.32362538  1
  O  O622  1  0.57310015  0.85144635  0.57402479  1
  O  O623  1  0.57210621  0.85290370  0.82303101  1
  O  O624  1  0.32289531  0.18821004  0.04977079  1
  O  O625  1  0.32370129  0.18550931  0.30074809  1
  O  O626  1  0.32462273  0.18706659  0.55055694  1
  O  O627  1  0.32277624  0.18667153  0.80193302  1
  O  O628  1  0.32355121  0.52131711  0.04973302  1
  O  O629  1  0.32266055  0.51889606  0.30126590  1
  O  O630  1  0.32310519  0.51872968  0.55103774  1
  O  O631  1  0.32378232  0.52084216  0.80113636  1
  O  O632  1  0.32450405  0.85317807  0.04931777  1
  O  O633  1  0.32425818  0.85243982  0.29961801  1
  O  O634  1  0.32340257  0.85420478  0.55062552  1
  O  O635  1  0.32292225  0.85191794  0.80061009  1
  O  O636  1  0.82195563  0.18657040  0.05193827  1
  O  O637  1  0.82283254  0.18840496  0.30018542  1
  O  O638  1  0.82239727  0.18675996  0.55203576  1
  O  O639  1  0.82107538  0.18668004  0.80226714  1
  O  O640  1  0.82090078  0.51928473  0.05186944  1
  O  O641  1  0.82093534  0.51913454  0.30181612  1
  O  O642  1  0.82231810  0.51978535  0.55072665  1
  O  O643  1  0.82298319  0.52063555  0.80021092  1
  O  O644  1  0.82362299  0.85288147  0.04902195  1
  O  O645  1  0.82279995  0.85140741  0.30025563  1
  O  O646  1  0.82313461  0.85116330  0.55032759  1
  O  O647  1  0.82284498  0.85162478  0.80020063  1
  O  O648  1  0.17585916  0.14689777  0.20007462  1
  O  O649  1  0.17723500  0.14833683  0.44996324  1
  O  O650  1  0.17736224  0.14593281  0.70026031  1
  O  O651  1  0.17706926  0.14885153  0.94905419  1
  O  O652  1  0.17690805  0.47906202  0.19969881  1
  O  O653  1  0.17681296  0.48149112  0.44891894  1
  O  O654  1  0.17677395  0.48145382  0.70029547  1
  O  O655  1  0.17650783  0.47938762  0.95102429  1
  O  O656  1  0.17709141  0.81144589  0.20008074  1
  O  O657  1  0.17713370  0.81237334  0.44931800  1
  O  O658  1  0.17627411  0.81345387  0.70065655  1
  O  O659  1  0.17800461  0.81368676  0.94869532  1
  O  O660  1  0.67680532  0.14837959  0.19908569  1
  O  O661  1  0.67619029  0.14682235  0.45069647  1
  O  O662  1  0.67681368  0.14810049  0.69952566  1
  O  O663  1  0.67760776  0.14855646  0.94869829  1
  O  O664  1  0.67778689  0.48068094  0.19808026  1
  O  O665  1  0.67831107  0.48045724  0.44825076  1
  O  O666  1  0.67696720  0.48045967  0.69836116  1
  O  O667  1  0.67639206  0.47877935  0.94994000  1
  O  O668  1  0.67670623  0.81175041  0.19936857  1
  O  O669  1  0.67794037  0.81308896  0.44795427  1
  O  O670  1  0.67762367  0.81326595  0.69771785  1
  O  O671  1  0.67731831  0.81312677  0.94754040  1
