# generated using pymatgen
data_Na2MnFe(PO4)2
_symmetry_space_group_name_H-M   'P 1'
_cell_length_a   22.34538638
_cell_length_b   20.09752525
_cell_length_c   19.44636341
_cell_angle_alpha   89.99499434
_cell_angle_beta   89.99928400
_cell_angle_gamma   89.94347391
_symmetry_Int_Tables_number   1
_chemical_formula_structural   Na2MnFe(PO4)2
_chemical_formula_sum   'Na96 Mn48 Fe48 P96 O384'
_cell_volume   8733.10407748
_cell_formula_units_Z   48
loop_
 _symmetry_equiv_pos_site_id
 _symmetry_equiv_pos_as_xyz
  1  'x, y, z'
loop_
 _atom_site_type_symbol
 _atom_site_label
 _atom_site_symmetry_multiplicity
 _atom_site_fract_x
 _atom_site_fract_y
 _atom_site_fract_z
 _atom_site_occupancy
  Na  Na0  1  0.14060487  0.24825497  0.24382323  1
  Na  Na1  1  0.13995963  0.24879370  0.49215931  1
  Na  Na2  1  0.14001530  0.24928451  0.74261743  1
  Na  Na3  1  0.14052049  0.25007142  0.99356519  1
  Na  Na4  1  0.14001937  0.58341432  0.24379166  1
  Na  Na5  1  0.13987838  0.58378317  0.49261052  1
  Na  Na6  1  0.14034112  0.58268797  0.74454643  1
  Na  Na7  1  0.14067102  0.58345208  0.99258549  1
  Na  Na8  1  0.14023855  0.91729683  0.24388868  1
  Na  Na9  1  0.14105925  0.91675108  0.49301772  1
  Na  Na10  1  0.14019894  0.91522160  0.74424428  1
  Na  Na11  1  0.13986313  0.91641646  0.99327584  1
  Na  Na12  1  0.64047055  0.25132315  0.24375211  1
  Na  Na13  1  0.64080996  0.24933195  0.49384710  1
  Na  Na14  1  0.64036776  0.25039794  0.74357940  1
  Na  Na15  1  0.64001411  0.25102554  0.99427746  1
  Na  Na16  1  0.64041268  0.58464778  0.24511739  1
  Na  Na17  1  0.63990472  0.58497891  0.49401753  1
  Na  Na18  1  0.64026303  0.58570385  0.74249965  1
  Na  Na19  1  0.64042893  0.58398463  0.99513163  1
  Na  Na20  1  0.64002661  0.91581605  0.24436555  1
  Na  Na21  1  0.64079947  0.91615969  0.49319584  1
  Na  Na22  1  0.64079190  0.91660194  0.74242978  1
  Na  Na23  1  0.64005635  0.91578303  0.99394770  1
  Na  Na24  1  0.35912908  0.08332369  0.00768834  1
  Na  Na25  1  0.35925435  0.08276004  0.25657176  1
  Na  Na26  1  0.35996823  0.08269237  0.50500620  1
  Na  Na27  1  0.35923220  0.08244680  0.75607385  1
  Na  Na28  1  0.35925308  0.41533165  0.00641149  1
  Na  Na29  1  0.35908525  0.41541050  0.25662917  1
  Na  Na30  1  0.35910941  0.41655964  0.50491566  1
  Na  Na31  1  0.35928929  0.41698724  0.75721732  1
  Na  Na32  1  0.35976826  0.75061816  0.00556581  1
  Na  Na33  1  0.35935040  0.75078145  0.25784226  1
  Na  Na34  1  0.35988988  0.75002496  0.50589241  1
  Na  Na35  1  0.36009390  0.74910472  0.75728568  1
  Na  Na36  1  0.86003174  0.08282152  0.00567989  1
  Na  Na37  1  0.85983724  0.08295018  0.25666725  1
  Na  Na38  1  0.85945345  0.08269163  0.50668521  1
  Na  Na39  1  0.86007926  0.08359350  0.75496313  1
  Na  Na40  1  0.85950022  0.41772266  0.00550686  1
  Na  Na41  1  0.85934978  0.41841814  0.25630548  1
  Na  Na42  1  0.85984778  0.41680870  0.50769904  1
  Na  Na43  1  0.86010030  0.41844702  0.75601667  1
  Na  Na44  1  0.86029333  0.74856117  0.00689554  1
  Na  Na45  1  0.85984663  0.75014669  0.25744123  1
  Na  Na46  1  0.85984462  0.75047870  0.50715584  1
  Na  Na47  1  0.86012557  0.75073937  0.75556431  1
  Na  Na48  1  0.10998818  0.08246917  0.11854780  1
  Na  Na49  1  0.11030552  0.08317464  0.36805358  1
  Na  Na50  1  0.11004610  0.08338716  0.61712073  1
  Na  Na51  1  0.10934923  0.08223589  0.86849460  1
  Na  Na52  1  0.10970450  0.41661269  0.11811754  1
  Na  Na53  1  0.10897556  0.41521139  0.36811422  1
  Na  Na54  1  0.10961090  0.41648488  0.61877815  1
  Na  Na55  1  0.10964068  0.41570229  0.86743770  1
  Na  Na56  1  0.10931891  0.75025855  0.11867466  1
  Na  Na57  1  0.11007478  0.74983461  0.36880149  1
  Na  Na58  1  0.10989354  0.75018783  0.61895688  1
  Na  Na59  1  0.10997130  0.74910253  0.86886754  1
  Na  Na60  1  0.60930495  0.08321878  0.11979902  1
  Na  Na61  1  0.61003638  0.08234881  0.36858335  1
  Na  Na62  1  0.60993499  0.08312139  0.61801559  1
  Na  Na63  1  0.60924933  0.08226079  0.86885865  1
  Na  Na64  1  0.60944828  0.41717757  0.11964188  1
  Na  Na65  1  0.60935452  0.41880697  0.36959817  1
  Na  Na66  1  0.60922000  0.41864716  0.61859847  1
  Na  Na67  1  0.60944704  0.41730295  0.86940669  1
  Na  Na68  1  0.60986246  0.75023909  0.12016989  1
  Na  Na69  1  0.60995845  0.75041744  0.36827973  1
  Na  Na70  1  0.60981739  0.75031506  0.61784838  1
  Na  Na71  1  0.61022529  0.74951669  0.86776337  1
  Na  Na72  1  0.38956264  0.24971651  0.13222915  1
  Na  Na73  1  0.38993385  0.25048011  0.38096332  1
  Na  Na74  1  0.39022900  0.25011427  0.63006472  1
  Na  Na75  1  0.39003463  0.24923748  0.88256061  1
  Na  Na76  1  0.38996078  0.58330379  0.13149152  1
  Na  Na77  1  0.39016068  0.58429944  0.38123635  1
  Na  Na78  1  0.39005781  0.58418527  0.63087324  1
  Na  Na79  1  0.39013026  0.58303321  0.88163917  1
  Na  Na80  1  0.39041086  0.91643091  0.13206919  1
  Na  Na81  1  0.38982659  0.91634859  0.38138915  1
  Na  Na82  1  0.39015249  0.91663878  0.63085625  1
  Na  Na83  1  0.39049659  0.91562582  0.88087000  1
  Na  Na84  1  0.89039091  0.24988377  0.13068532  1
  Na  Na85  1  0.89089555  0.24965028  0.38163070  1
  Na  Na86  1  0.89110180  0.25046209  0.63125728  1
  Na  Na87  1  0.89051449  0.24923335  0.87933397  1
  Na  Na88  1  0.89011237  0.58404585  0.13163893  1
  Na  Na89  1  0.89041606  0.58471370  0.38232767  1
  Na  Na90  1  0.89041737  0.58465266  0.63210337  1
  Na  Na91  1  0.89004055  0.58394386  0.88126081  1
  Na  Na92  1  0.89093249  0.91621211  0.13109481  1
  Na  Na93  1  0.89009870  0.91672742  0.38303898  1
  Na  Na94  1  0.89027675  0.91722039  0.63120715  1
  Na  Na95  1  0.89096836  0.91531749  0.88067738  1
  Mn  Mn96  1  0.74944131  0.50222375  0.87557240  1
  Mn  Mn97  1  0.49986026  0.33337637  0.74990894  1
  Mn  Mn98  1  0.75003568  0.33457158  0.87453308  1
  Mn  Mn99  1  0.50026695  0.16699342  0.25000369  1
  Mn  Mn100  1  0.24946675  0.49929754  0.37415221  1
  Mn  Mn101  1  0.74952104  0.16675230  0.87463346  1
  Mn  Mn102  1  0.75055067  0.16602979  0.37477212  1
  Mn  Mn103  1  0.24912538  0.83394948  0.12575693  1
  Mn  Mn104  1  0.75052926  0.33492621  0.12467768  1
  Mn  Mn105  1  0.74990790  -0.00080765  0.12538641  1
  Mn  Mn106  1  0.50041388  0.16647374  0.49962005  1
  Mn  Mn107  1  0.50042691  0.33460214  0.50052297  1
  Mn  Mn108  1  0.49992234  0.16612335  0.00090222  1
  Mn  Mn109  1  0.49971222  0.66720030  0.00025787  1
  Mn  Mn110  1  0.49948899  -0.00093448  0.74972270  1
  Mn  Mn111  1  0.74970337  0.33385901  0.62535295  1
  Mn  Mn112  1  0.49979701  0.83364124  0.00011225  1
  Mn  Mn113  1  0.24974940  0.49960183  0.62482667  1
  Mn  Mn114  1  0.74992649  0.16672882  0.12530975  1
  Mn  Mn115  1  -0.00008700  0.33290452  -0.00098572  1
  Mn  Mn116  1  0.50015924  0.49932132  0.00110813  1
  Mn  Mn117  1  -0.00059498  0.50049286  -0.00036614  1
  Mn  Mn118  1  0.00001429  0.83266518  0.25047376  1
  Mn  Mn119  1  0.00071721  0.16539213  -0.00060381  1
  Mn  Mn120  1  0.24981055  0.33267275  0.62473153  1
  Mn  Mn121  1  0.24980490  0.66700978  0.12438577  1
  Mn  Mn122  1  0.24949261  -0.00085216  0.87558797  1
  Mn  Mn123  1  0.75005975  0.33409342  0.37565240  1
  Mn  Mn124  1  0.74997967  0.50164853  0.37610111  1
  Mn  Mn125  1  0.75070695  0.83218468  0.12505599  1
  Mn  Mn126  1  0.00082862  -0.00047206  0.74922515  1
  Mn  Mn127  1  0.49918520  0.50098267  0.74986032  1
  Mn  Mn128  1  0.49990152  0.16602829  0.75060642  1
  Mn  Mn129  1  0.25055333  0.16548509  0.62414803  1
  Mn  Mn130  1  0.24911527  0.16680385  0.87550462  1
  Mn  Mn131  1  0.24993460  0.66642795  0.62522971  1
  Mn  Mn132  1  -0.00004428  0.50018734  0.50005563  1
  Mn  Mn133  1  0.00014634  0.00033434  0.25079628  1
  Mn  Mn134  1  -0.00048347  0.33252046  0.24958933  1
  Mn  Mn135  1  0.49975746  0.83326955  0.49966284  1
  Mn  Mn136  1  0.25021539  0.49902181  0.12443791  1
  Mn  Mn137  1  0.24986719  0.83350600  0.62489881  1
  Mn  Mn138  1  -0.00017112  0.50085736  0.24977209  1
  Mn  Mn139  1  0.75063421  0.83247525  0.87409131  1
  Mn  Mn140  1  -0.00007899  0.66711834  0.75022704  1
  Mn  Mn141  1  0.75025684  0.00000450  0.87415469  1
  Mn  Mn142  1  0.49957857  0.50039047  0.25033145  1
  Mn  Mn143  1  0.00033003  0.00040491  0.50038053  1
  Fe  Fe144  1  0.75010996  0.66678081  0.12586675  1
  Fe  Fe145  1  0.75009708  0.66779141  0.62450039  1
  Fe  Fe146  1  0.49983015  0.83360903  0.25016995  1
  Fe  Fe147  1  0.75000393  -0.00031608  0.62453026  1
  Fe  Fe148  1  0.25006383  0.83379294  0.37518973  1
  Fe  Fe149  1  0.74963132  -0.00065249  0.37601870  1
  Fe  Fe150  1  0.24922088  0.33276887  0.12507613  1
  Fe  Fe151  1  0.49902990  0.50141366  0.49949121  1
  Fe  Fe152  1  0.25007856  0.16598227  0.37423758  1
  Fe  Fe153  1  0.00017053  0.16720905  0.49951047  1
  Fe  Fe154  1  0.75019947  0.83323491  0.37575022  1
  Fe  Fe155  1  0.49950878  0.66761206  0.49987978  1
  Fe  Fe156  1  0.24977086  0.16659344  0.12546352  1
  Fe  Fe157  1  0.49967536  0.33281871  0.00045531  1
  Fe  Fe158  1  0.50009414  0.66680427  0.74963537  1
  Fe  Fe159  1  0.00047587  0.66650440  -0.00005313  1
  Fe  Fe160  1  0.50059867  0.83310514  0.74959749  1
  Fe  Fe161  1  0.74976866  0.50140130  0.12575020  1
  Fe  Fe162  1  0.24960713  0.49939430  0.87531898  1
  Fe  Fe163  1  0.25042887  0.83328593  0.87478850  1
  Fe  Fe164  1  0.00045732  0.50020799  0.74956548  1
  Fe  Fe165  1  0.00025865  0.16648570  0.74895705  1
  Fe  Fe166  1  0.75046365  0.83327459  0.62435791  1
  Fe  Fe167  1  0.00040204  0.83319183  0.75044275  1
  Fe  Fe168  1  0.25017948  -0.00017073  0.12509840  1
  Fe  Fe169  1  0.24998901  0.00031502  0.37432408  1
  Fe  Fe170  1  0.00001006  0.33300688  0.74907362  1
  Fe  Fe171  1  0.74990710  0.50151085  0.62559573  1
  Fe  Fe172  1  0.24924031  0.33235516  0.37451958  1
  Fe  Fe173  1  0.25014877  0.33286086  0.87514855  1
  Fe  Fe174  1  0.00016269  0.66689245  0.25026613  1
  Fe  Fe175  1  -0.00005568  0.16621337  0.24953822  1
  Fe  Fe176  1  0.25013460  0.66640736  0.87520981  1
  Fe  Fe177  1  -0.00004891  0.33335002  0.50011512  1
  Fe  Fe178  1  0.49974742  0.66705818  0.25065296  1
  Fe  Fe179  1  0.00009872  0.83261898  0.00042461  1
  Fe  Fe180  1  0.50018102  -0.00043315  0.49961206  1
  Fe  Fe181  1  0.49965026  0.33390549  0.25071717  1
  Fe  Fe182  1  0.75038577  0.66706920  0.87482712  1
  Fe  Fe183  1  0.25003304  -0.00047176  0.62437736  1
  Fe  Fe184  1  0.75073041  0.66719088  0.37557162  1
  Fe  Fe185  1  0.49973094  -0.00032744  0.25007360  1
  Fe  Fe186  1  0.50025608  -0.00058903  0.00027847  1
  Fe  Fe187  1  0.25018225  0.66665976  0.37452435  1
  Fe  Fe188  1  0.00035596  0.66717063  0.50104246  1
  Fe  Fe189  1  -0.00041008  -0.00080741  -0.00056681  1
  Fe  Fe190  1  0.75040484  0.16631430  0.62438535  1
  Fe  Fe191  1  0.00071294  0.83339405  0.50047511  1
  P  P192  1  0.04271040  0.24919381  0.10286674  1
  P  P193  1  0.04202640  0.24806659  0.35262163  1
  P  P194  1  0.04164644  0.25015105  0.60174161  1
  P  P195  1  0.04157327  0.24918529  0.85051979  1
  P  P196  1  0.04252133  0.58492938  0.10257923  1
  P  P197  1  0.04205324  0.58498508  0.35307407  1
  P  P198  1  0.04233254  0.58435370  0.60290239  1
  P  P199  1  0.04194300  0.58239470  0.85253640  1
  P  P200  1  0.04126316  0.91649916  0.10159171  1
  P  P201  1  0.04254240  0.91611915  0.35390414  1
  P  P202  1  0.04268843  0.91546168  0.60275790  1
  P  P203  1  0.04217666  0.91499056  0.85323850  1
  P  P204  1  0.54174643  0.25140742  0.10341261  1
  P  P205  1  0.54245742  0.25170323  0.35261368  1
  P  P206  1  0.54321196  0.25013170  0.60314886  1
  P  P207  1  0.54265022  0.24999057  0.85399613  1
  P  P208  1  0.54214938  0.58402753  0.10414558  1
  P  P209  1  0.54169758  0.58514329  0.35343797  1
  P  P210  1  0.54080302  0.58455870  0.60151126  1
  P  P211  1  0.54220767  0.58464444  0.85232453  1
  P  P212  1  0.54196665  0.91773703  0.10347608  1
  P  P213  1  0.54115081  0.91671675  0.35191258  1
  P  P214  1  0.54221228  0.91712316  0.60215044  1
  P  P215  1  0.54291605  0.91526987  0.85232157  1
  P  P216  1  0.45772692  0.08187617  0.14767894  1
  P  P217  1  0.45850453  0.08148398  0.39673373  1
  P  P218  1  0.45717570  0.08288133  0.64628160  1
  P  P219  1  0.45734829  0.08127465  0.89822531  1
  P  P220  1  0.45738449  0.41519039  0.14773401  1
  P  P221  1  0.45756216  0.41831132  0.39730553  1
  P  P222  1  0.45674080  0.41767122  0.64647394  1
  P  P223  1  0.45769925  0.41554104  0.89813204  1
  P  P224  1  0.45806471  0.75016393  0.14906560  1
  P  P225  1  0.45793557  0.74922542  0.39665011  1
  P  P226  1  0.45844565  0.75004394  0.64797199  1
  P  P227  1  0.45762029  0.75016164  0.89588801  1
  P  P228  1  0.95785606  0.08357517  0.14710889  1
  P  P229  1  0.95806268  0.08482651  0.39753858  1
  P  P230  1  0.95854480  0.08477482  0.64659800  1
  P  P231  1  0.95787557  0.08153827  0.89647769  1
  P  P232  1  0.95701505  0.41696898  0.14672910  1
  P  P233  1  0.95753505  0.41550294  0.39778708  1
  P  P234  1  0.95902684  0.41694920  0.64784476  1
  P  P235  1  0.95736633  0.41677984  0.89534006  1
  P  P236  1  0.95791683  0.74859918  0.14724527  1
  P  P237  1  0.95902965  0.74993645  0.39910255  1
  P  P238  1  0.95850696  0.75193953  0.64714289  1
  P  P239  1  0.95888451  0.74969509  0.89843753  1
  P  P240  1  0.20889534  0.08266600  0.22704374  1
  P  P241  1  0.20881356  0.08260527  0.47621362  1
  P  P242  1  0.20746320  0.08140661  0.72687674  1
  P  P243  1  0.20706299  0.08321061  0.97918728  1
  P  P244  1  0.20742272  0.41468044  0.22749587  1
  P  P245  1  0.20709185  0.41500150  0.47674759  1
  P  P246  1  0.20746304  0.41620100  0.72896099  1
  P  P247  1  0.20804508  0.41569145  0.97666383  1
  P  P248  1  0.20730839  0.74997172  0.22913156  1
  P  P249  1  0.20901213  0.74995235  0.47634014  1
  P  P250  1  0.20783259  0.74974434  0.72909885  1
  P  P251  1  0.20872603  0.75051620  0.97638832  1
  P  P252  1  0.70724557  0.08255731  0.22901129  1
  P  P253  1  0.70814768  0.08193389  0.47833514  1
  P  P254  1  0.70850943  0.08315776  0.72582733  1
  P  P255  1  0.70691119  0.08299131  0.97807839  1
  P  P256  1  0.70765786  0.41914332  0.22795550  1
  P  P257  1  0.70737076  0.41799230  0.47935847  1
  P  P258  1  0.70754938  0.41928614  0.72747595  1
  P  P259  1  0.70714775  0.41822164  0.97871784  1
  P  P260  1  0.70835303  0.74893487  0.22876371  1
  P  P261  1  0.70900492  0.74999766  0.47736708  1
  P  P262  1  0.70887809  0.75032093  0.72610451  1
  P  P263  1  0.70811211  0.74827675  0.97755808  1
  P  P264  1  0.29102302  0.25016016  0.02360608  1
  P  P265  1  0.29092101  0.24943503  0.27248037  1
  P  P266  1  0.29245188  0.24943540  0.52040009  1
  P  P267  1  0.29227617  0.25043341  0.77282970  1
  P  P268  1  0.29256014  0.58292855  0.02079193  1
  P  P269  1  0.29206454  0.58406459  0.27221669  1
  P  P270  1  0.29207208  0.58339053  0.52100196  1
  P  P271  1  0.29124723  0.58269084  0.77386755  1
  P  P272  1  0.29205333  0.91727275  0.02270238  1
  P  P273  1  0.29105653  0.91724065  0.27328606  1
  P  P274  1  0.29208237  0.91772372  0.52135558  1
  P  P275  1  0.29236846  0.91550449  0.77225598  1
  P  P276  1  0.79297886  0.25033737  0.02167422  1
  P  P277  1  0.79312224  0.25075117  0.27209861  1
  P  P278  1  0.79229311  0.24904356  0.52276438  1
  P  P279  1  0.79228909  0.25012107  0.77084582  1
  P  P280  1  0.79168053  0.58412428  0.02377040  1
  P  P281  1  0.79248011  0.58535997  0.27265414  1
  P  P282  1  0.79178959  0.58447854  0.52370855  1
  P  P283  1  0.79202607  0.58572214  0.77166942  1
  P  P284  1  0.79311787  0.91574746  0.02179010  1
  P  P285  1  0.79152796  0.91638479  0.27432721  1
  P  P286  1  0.79135373  0.91652308  0.52277108  1
  P  P287  1  0.79305056  0.91655353  0.77032529  1
  O  O288  1  0.03736968  0.24881326  0.18278088  1
  O  O289  1  0.03662333  0.24840536  0.43252533  1
  O  O290  1  0.03642675  0.24984230  0.68165455  1
  O  O291  1  0.03692629  0.24933175  0.93050792  1
  O  O292  1  0.03745206  0.58501372  0.18259431  1
  O  O293  1  0.03691849  0.58489340  0.43306114  1
  O  O294  1  0.03689955  0.58367864  0.68283092  1
  O  O295  1  0.03679610  0.58297381  0.93247471  1
  O  O296  1  0.03655373  0.91625278  0.18162916  1
  O  O297  1  0.03756562  0.91601198  0.43384584  1
  O  O298  1  0.03754551  0.91536825  0.68273477  1
  O  O299  1  0.03639732  0.91550732  0.93307837  1
  O  O300  1  0.53649945  0.25169985  0.18339877  1
  O  O301  1  0.53739689  0.25125233  0.43259371  1
  O  O302  1  0.53809971  0.24975041  0.68314855  1
  O  O303  1  0.53732417  0.25022925  0.93402933  1
  O  O304  1  0.53667063  0.58439574  0.18405343  1
  O  O305  1  0.53614003  0.58497041  0.43331900  1
  O  O306  1  0.53585315  0.58498751  0.68151415  1
  O  O307  1  0.53746698  0.58427172  0.93229758  1
  O  O308  1  0.53639370  0.91756171  0.18336265  1
  O  O309  1  0.53654396  0.91682960  0.43192083  1
  O  O310  1  0.53716247  0.91621270  0.68206868  1
  O  O311  1  0.53790260  0.91584626  0.93230223  1
  O  O312  1  0.46299653  0.08177909  0.06773452  1
  O  O313  1  0.46403593  0.08126443  0.31679707  1
  O  O314  1  0.46249324  0.08267598  0.56631134  1
  O  O315  1  0.46232803  0.08182212  0.81819682  1
  O  O316  1  0.46275649  0.41473739  0.06777371  1
  O  O317  1  0.46301139  0.41754263  0.31735881  1
  O  O318  1  0.46205773  0.41846450  0.56652914  1
  O  O319  1  0.46243104  0.41602631  0.81811090  1
  O  O320  1  0.46269414  0.75062917  0.06901378  1
  O  O321  1  0.46315153  0.74935497  0.31680900  1
  O  O322  1  0.46329625  0.74962720  0.56791165  1
  O  O323  1  0.46288061  0.75026988  0.81596054  1
  O  O324  1  0.96319066  0.08244115  0.06715830  1
  O  O325  1  0.96307461  0.08471937  0.31754957  1
  O  O326  1  0.96388232  0.08506689  0.56667169  1
  O  O327  1  0.96337743  0.08208707  0.81655465  1
  O  O328  1  0.96201157  0.41708670  0.06673551  1
  O  O329  1  0.96263253  0.41577100  0.31784258  1
  O  O330  1  0.96381072  0.41642381  0.56783136  1
  O  O331  1  0.96289525  0.41716721  0.81541571  1
  O  O332  1  0.96338478  0.74874129  0.06739567  1
  O  O333  1  0.96346287  0.74949843  0.31908048  1
  O  O334  1  0.96404046  0.75166709  0.56730382  1
  O  O335  1  0.96364808  0.75037082  0.81846540  1
  O  O336  1  0.21238430  0.08324484  0.05907094  1
  O  O337  1  0.21385000  0.08278092  0.30697035  1
  O  O338  1  0.21361697  0.08242576  0.55618692  1
  O  O339  1  0.21211113  0.08193054  0.80688788  1
  O  O340  1  0.21306610  0.41535039  0.05668186  1
  O  O341  1  0.21264502  0.41467256  0.30743796  1
  O  O342  1  0.21223303  0.41546792  0.55674328  1
  O  O343  1  0.21287287  0.41619119  0.80888095  1
  O  O344  1  0.21317567  0.75044097  0.05644100  1
  O  O345  1  0.21284966  0.74988733  0.30901873  1
  O  O346  1  0.21362823  0.75015248  0.55638322  1
  O  O347  1  0.21326853  0.74995998  0.80897647  1
  O  O348  1  0.71191370  0.08285807  0.05809312  1
  O  O349  1  0.71251477  0.08205814  0.30899498  1
  O  O350  1  0.71377206  0.08240785  0.55821505  1
  O  O351  1  0.71329557  0.08327703  0.80584979  1
  O  O352  1  0.71247287  0.41868799  0.05868069  1
  O  O353  1  0.71281819  0.41877932  0.30796808  1
  O  O354  1  0.71259625  0.41842328  0.55930593  1
  O  O355  1  0.71263243  0.41922980  0.80750111  1
  O  O356  1  0.71320039  0.74808539  0.05753532  1
  O  O357  1  0.71360416  0.74929873  0.30862346  1
  O  O358  1  0.71394223  0.75028831  0.55727027  1
  O  O359  1  0.71351848  0.75015313  0.80605982  1
  O  O360  1  0.28586703  0.24947364  0.19256684  1
  O  O361  1  0.28718017  0.24953770  0.44048259  1
  O  O362  1  0.28747995  0.24980380  0.69281324  1
  O  O363  1  0.28628373  0.25034436  0.94361551  1
  O  O364  1  0.28726137  0.58382792  0.19219470  1
  O  O365  1  0.28682883  0.58385890  0.44104631  1
  O  O366  1  0.28653862  0.58275622  0.69379501  1
  O  O367  1  0.28714502  0.58266912  0.94087941  1
  O  O368  1  0.28625783  0.91731945  0.19333672  1
  O  O369  1  0.28661831  0.91753414  0.44148260  1
  O  O370  1  0.28721736  0.91619966  0.69230110  1
  O  O371  1  0.28697028  0.91623431  0.94276196  1
  O  O372  1  0.78800621  0.25087945  0.19211424  1
  O  O373  1  0.78741374  0.24932712  0.44275833  1
  O  O374  1  0.78688654  0.24948180  0.69087530  1
  O  O375  1  0.78777341  0.25042766  0.94166103  1
  O  O376  1  0.78705124  0.58498209  0.19278887  1
  O  O377  1  0.78698080  0.58483111  0.44372363  1
  O  O378  1  0.78671923  0.58538660  0.69179536  1
  O  O379  1  0.78678379  0.58462360  0.94376314  1
  O  O380  1  0.78679950  0.91598203  0.19432675  1
  O  O381  1  0.78626543  0.91630510  0.44286782  1
  O  O382  1  0.78768606  0.91661185  0.69040077  1
  O  O383  1  0.78823600  0.91573406  0.94180224  1
  O  O384  1  0.22684563  0.25041465  0.05943579  1
  O  O385  1  0.22693868  0.24962323  0.30890361  1
  O  O386  1  0.22823791  0.24904486  0.55614418  1
  O  O387  1  0.22778440  0.25126516  0.80799438  1
  O  O388  1  0.22831995  0.58284152  0.05650429  1
  O  O389  1  0.22770580  0.58406354  0.30746829  1
  O  O390  1  0.22778238  0.58329414  0.55645608  1
  O  O391  1  0.22711481  0.58236640  0.80968384  1
  O  O392  1  0.22766878  0.91817142  0.05822666  1
  O  O393  1  0.22691014  0.91750033  0.30912569  1
  O  O394  1  0.22796899  0.91799330  0.55761627  1
  O  O395  1  0.22804559  0.91484924  0.80788544  1
  O  O396  1  0.72858832  0.25072435  0.05686970  1
  O  O397  1  0.72866120  0.25046037  0.30708622  1
  O  O398  1  0.72795164  0.24937536  0.55798293  1
  O  O399  1  0.72802913  0.25060767  0.80639911  1
  O  O400  1  0.72751296  0.58387366  0.05983989  1
  O  O401  1  0.72829328  0.58595876  0.30872687  1
  O  O402  1  0.72748342  0.58446971  0.55936741  1
  O  O403  1  0.72780461  0.58642884  0.80768209  1
  O  O404  1  0.72864807  0.91550193  0.05675469  1
  O  O405  1  0.72725966  0.91677224  0.30999787  1
  O  O406  1  0.72734371  0.91719689  0.55901536  1
  O  O407  1  0.72881488  0.91628811  0.80603852  1
  O  O408  1  0.27287624  0.08207212  0.19069538  1
  O  O409  1  0.27292436  0.08238406  0.44020622  1
  O  O410  1  0.27194730  0.08097127  0.69168717  1
  O  O411  1  0.27126151  0.08311807  0.94340358  1
  O  O412  1  0.27171352  0.41439504  0.19179354  1
  O  O413  1  0.27138706  0.41487240  0.44122532  1
  O  O414  1  0.27167900  0.41623507  0.69316060  1
  O  O415  1  0.27225089  0.41571095  0.94070543  1
  O  O416  1  0.27149733  0.75044834  0.19332497  1
  O  O417  1  0.27317571  0.74949728  0.44069569  1
  O  O418  1  0.27199641  0.74995994  0.69322030  1
  O  O419  1  0.27295586  0.75073032  0.94081778  1
  O  O420  1  0.77160626  0.08281227  0.19372671  1
  O  O421  1  0.77225234  0.08132332  0.44211708  1
  O  O422  1  0.77275981  0.08247809  0.69017512  1
  O  O423  1  0.77140854  0.08320389  0.94313811  1
  O  O424  1  0.77194390  0.41963851  0.19235293  1
  O  O425  1  0.77174082  0.41775801  0.44410482  1
  O  O426  1  0.77188968  0.41908504  0.69207768  1
  O  O427  1  0.77142729  0.41829233  0.94321342  1
  O  O428  1  0.77251468  0.74834135  0.19265151  1
  O  O429  1  0.77313299  0.74979831  0.44127078  1
  O  O430  1  0.77313634  0.74966838  0.69047941  1
  O  O431  1  0.77247221  0.74830612  0.94191885  1
  O  O432  1  0.02212115  0.08436938  0.18299615  1
  O  O433  1  0.02240161  0.08465000  0.43297900  1
  O  O434  1  0.02273906  0.08465301  0.68247947  1
  O  O435  1  0.02206621  0.08059660  0.93250296  1
  O  O436  1  0.02142275  0.41678805  0.18175565  1
  O  O437  1  0.02186610  0.41549015  0.43329397  1
  O  O438  1  0.02308936  0.41718112  0.68383463  1
  O  O439  1  0.02154548  0.41690510  0.93125369  1
  O  O440  1  0.02208774  0.74852813  0.18342606  1
  O  O441  1  0.02332472  0.74983956  0.43469620  1
  O  O442  1  0.02254163  0.75171264  0.68349403  1
  O  O443  1  0.02304323  0.74901502  0.93436942  1
  O  O444  1  0.52193877  0.08220186  0.18342877  1
  O  O445  1  0.52259537  0.08149120  0.43287822  1
  O  O446  1  0.52151015  0.08273107  0.68165902  1
  O  O447  1  0.52174907  0.08150963  0.93355389  1
  O  O448  1  0.52161873  0.41551513  0.18355746  1
  O  O449  1  0.52169045  0.41937252  0.43332417  1
  O  O450  1  0.52109963  0.41765931  0.68180843  1
  O  O451  1  0.52206835  0.41529204  0.93344202  1
  O  O452  1  0.52235116  0.75012732  0.18458516  1
  O  O453  1  0.52206650  0.74915247  0.43277207  1
  O  O454  1  0.52268594  0.75005692  0.68383781  1
  O  O455  1  0.52184250  0.75036264  0.93162809  1
  O  O456  1  0.47750746  0.25086776  0.06762842  1
  O  O457  1  0.47807687  0.25147403  0.31722226  1
  O  O458  1  0.47881573  0.25032477  0.56808370  1
  O  O459  1  0.47824236  0.24977872  0.81875834  1
  O  O460  1  0.47796689  0.58355680  0.06846071  1
  O  O461  1  0.47760637  0.58511559  0.31721899  1
  O  O462  1  0.47668030  0.58443608  0.56544237  1
  O  O463  1  0.47772943  0.58516779  0.81712124  1
  O  O464  1  0.47785560  0.91801744  0.06719570  1
  O  O465  1  0.47692441  0.91664133  0.31624314  1
  O  O466  1  0.47791484  0.91752575  0.56649681  1
  O  O467  1  0.47853645  0.91429367  0.81682571  1
  O  O468  1  0.97846924  0.24915198  0.06731425  1
  O  O469  1  0.97787966  0.24757754  0.31644868  1
  O  O470  1  0.97756924  0.25041372  0.56543006  1
  O  O471  1  0.97738875  0.24869261  0.81477217  1
  O  O472  1  0.97814248  0.58532670  0.06710766  1
  O  O473  1  0.97779826  0.58524317  0.31733001  1
  O  O474  1  0.97808475  0.58471471  0.56710636  1
  O  O475  1  0.97777602  0.58222187  0.81667227  1
  O  O476  1  0.97713355  0.91674479  0.06577210  1
  O  O477  1  0.97820750  0.91641866  0.31863669  1
  O  O478  1  0.97840826  0.91567372  0.56716738  1
  O  O479  1  0.97825647  0.91515290  0.81653471  1
  O  O480  1  0.07344911  0.31295038  0.07482293  1
  O  O481  1  0.07286570  0.31182599  0.32462906  1
  O  O482  1  0.07245027  0.31387081  0.57343601  1
  O  O483  1  0.07164263  0.31318433  0.82200600  1
  O  O484  1  0.07368132  0.64798880  0.07358338  1
  O  O485  1  0.07312511  0.64810385  0.32430472  1
  O  O486  1  0.07303063  0.64811592  0.57486110  1
  O  O487  1  0.07315169  0.64585248  0.82455842  1
  O  O488  1  0.07219332  0.98004576  0.07360413  1
  O  O489  1  0.07350745  0.97966939  0.32567155  1
  O  O490  1  0.07370198  0.97920539  0.57507760  1
  O  O491  1  0.07378941  0.97818666  0.82494086  1
  O  O492  1  0.57239699  0.31477886  0.07449766  1
  O  O493  1  0.57285337  0.31554441  0.32456257  1
  O  O494  1  0.57431499  0.31370767  0.57552530  1
  O  O495  1  0.57381314  0.31321877  0.82546918  1
  O  O496  1  0.57327171  0.64730763  0.07575980  1
  O  O497  1  0.57251068  0.64857234  0.32470042  1
  O  O498  1  0.57177157  0.64806028  0.57310902  1
  O  O499  1  0.57295058  0.64802049  0.82351290  1
  O  O500  1  0.57294875  0.98098905  0.07461108  1
  O  O501  1  0.57224529  0.97999360  0.32341776  1
  O  O502  1  0.57278203  0.98079289  0.57382000  1
  O  O503  1  0.57349001  0.97900012  0.82403045  1
  O  O504  1  0.42690565  0.01861100  0.17653595  1
  O  O505  1  0.42754290  0.01827487  0.42557153  1
  O  O506  1  0.42582344  0.01969685  0.67466627  1
  O  O507  1  0.42716394  0.01733221  0.92626288  1
  O  O508  1  0.42660414  0.35199628  0.17691220  1
  O  O509  1  0.42676740  0.35464170  0.42528920  1
  O  O510  1  0.42597125  0.35384259  0.67418487  1
  O  O511  1  0.42702410  0.35195444  0.92652283  1
  O  O512  1  0.42725074  0.68643769  0.17684933  1
  O  O513  1  0.42698191  0.68604080  0.42572114  1
  O  O514  1  0.42743892  0.68662899  0.67648322  1
  O  O515  1  0.42653907  0.68676868  0.92435286  1
  O  O516  1  0.92702219  0.02009270  0.17578920  1
  O  O517  1  0.92706920  0.02109576  0.42539613  1
  O  O518  1  0.92764175  0.02090497  0.67399565  1
  O  O519  1  0.92676140  0.01819427  0.92487131  1
  O  O520  1  0.92581143  0.35361891  0.17469295  1
  O  O521  1  0.92700223  0.35195537  0.42638385  1
  O  O522  1  0.92839567  0.35327205  0.67642736  1
  O  O523  1  0.92643557  0.35311421  0.92341056  1
  O  O524  1  0.92713300  0.68535177  0.17632810  1
  O  O525  1  0.92805483  0.68665319  0.42799113  1
  O  O526  1  0.92715787  0.68847052  0.67518488  1
  O  O527  1  0.92784296  0.68599520  0.92619158  1
  O  O528  1  0.17737243  0.01942970  0.19875079  1
  O  O529  1  0.17736676  0.01943452  0.44791720  1
  O  O530  1  0.17681359  0.01786633  0.69848687  1
  O  O531  1  0.17580684  0.01995963  0.95069436  1
  O  O532  1  0.17623011  0.35155504  0.19889406  1
  O  O533  1  0.17649143  0.35136870  0.44850949  1
  O  O534  1  0.17629748  0.35290356  0.70040919  1
  O  O535  1  0.17704998  0.35231805  0.94810008  1
  O  O536  1  0.17638230  0.68665894  0.20035932  1
  O  O537  1  0.17783497  0.68650070  0.44838520  1
  O  O538  1  0.17680111  0.68617198  0.70090265  1
  O  O539  1  0.17849866  0.68646023  0.94822185  1
  O  O540  1  0.67610890  0.01931871  0.20051810  1
  O  O541  1  0.67702785  0.01852201  0.44997715  1
  O  O542  1  0.67727402  0.01967831  0.69794886  1
  O  O543  1  0.67624489  0.01944272  0.94962913  1
  O  O544  1  0.67690072  0.35542094  0.20004931  1
  O  O545  1  0.67641369  0.35438161  0.45130532  1
  O  O546  1  0.67625824  0.35574262  0.69997947  1
  O  O547  1  0.67639192  0.35455534  0.95058610  1
  O  O548  1  0.67712425  0.68584137  0.19992643  1
  O  O549  1  0.67796792  0.68655431  0.44902246  1
  O  O550  1  0.67722345  0.68738980  0.69752320  1
  O  O551  1  0.67733230  0.68502406  0.94854875  1
  O  O552  1  0.32228509  0.31334050  0.05215666  1
  O  O553  1  0.32205658  0.31278377  0.30104104  1
  O  O554  1  0.32345426  0.31281693  0.54899412  1
  O  O555  1  0.32335150  0.31372349  0.80122419  1
  O  O556  1  0.32362005  0.64647475  0.04895554  1
  O  O557  1  0.32259157  0.64764590  0.30078061  1
  O  O558  1  0.32334452  0.64653917  0.54964758  1
  O  O559  1  0.32148583  0.64678332  0.80190465  1
  O  O560  1  0.32289717  0.98082594  0.05090991  1
  O  O561  1  0.32251623  0.98041274  0.30150124  1
  O  O562  1  0.32286800  0.98108129  0.55022129  1
  O  O563  1  0.32323269  0.97898454  0.80068388  1
  O  O564  1  0.82426305  0.31371458  0.04961889  1
  O  O565  1  0.82385536  0.31432789  0.30036926  1
  O  O566  1  0.82371552  0.31238407  0.55061527  1
  O  O567  1  0.82330731  0.31387526  0.79838059  1
  O  O568  1  0.82251805  0.64756214  0.05233343  1
  O  O569  1  0.82361663  0.64851637  0.30156676  1
  O  O570  1  0.82282592  0.64789623  0.55206035  1
  O  O571  1  0.82323449  0.64890379  0.80050118  1
  O  O572  1  0.82388557  0.97924365  0.05011910  1
  O  O573  1  0.82256419  0.97989790  0.30233368  1
  O  O574  1  0.82302961  0.97964709  0.55100963  1
  O  O575  1  0.82404807  0.97998683  0.79877363  1
  O  O576  1  0.42657187  0.14567114  0.17529692  1
  O  O577  1  0.42747027  0.14550882  0.42380824  1
  O  O578  1  0.42627509  0.14651542  0.67454722  1
  O  O579  1  0.42593881  0.14462275  0.92638051  1
  O  O580  1  0.42615848  0.47903652  0.17500253  1
  O  O581  1  0.42632602  0.48186381  0.42516154  1
  O  O582  1  0.42536158  0.48076526  0.67527001  1
  O  O583  1  0.42683597  0.47928079  0.92609051  1
  O  O584  1  0.42746033  0.81395295  0.17752979  1
  O  O585  1  0.42674409  0.81282145  0.42474761  1
  O  O586  1  0.42796928  0.81409031  0.67577203  1
  O  O587  1  0.42626568  0.81332535  0.92475182  1
  O  O588  1  0.92685477  0.14721069  0.17498519  1
  O  O589  1  0.92710001  0.14805877  0.42636558  1
  O  O590  1  0.92749444  0.14799495  0.67536209  1
  O  O591  1  0.92710456  0.14531805  0.92449556  1
  O  O592  1  0.92625118  0.48060440  0.17504159  1
  O  O593  1  0.92636810  0.47918152  0.42548389  1
  O  O594  1  0.92805261  0.48077530  0.67559312  1
  O  O595  1  0.92582130  0.47991402  0.92401703  1
  O  O596  1  0.92672888  0.81225020  0.17536661  1
  O  O597  1  0.92855733  0.81399157  0.42713029  1
  O  O598  1  0.92765779  0.81536037  0.67587518  1
  O  O599  1  0.92846875  0.81337176  0.92738783  1
  O  O600  1  0.07416731  0.18605193  0.07441644  1
  O  O601  1  0.07321184  0.18481296  0.32384563  1
  O  O602  1  0.07264447  0.18662226  0.57311395  1
  O  O603  1  0.07291758  0.18565929  0.82272975  1
  O  O604  1  0.07318657  0.52095170  0.07480588  1
  O  O605  1  0.07279615  0.52098778  0.32527257  1
  O  O606  1  0.07367038  0.52106811  0.57458216  1
  O  O607  1  0.07275774  0.51881407  0.82412491  1
  O  O608  1  0.07177602  0.85253817  0.07335851  1
  O  O609  1  0.07363942  0.85286278  0.32535682  1
  O  O610  1  0.07357865  0.85212961  0.57399114  1
  O  O611  1  0.07289451  0.85125208  0.82499610  1
  O  O612  1  0.57307372  0.18760596  0.07614167  1
  O  O613  1  0.57375202  0.18816691  0.32480956  1
  O  O614  1  0.57416374  0.18673772  0.57460866  1
  O  O615  1  0.57364267  0.18626218  0.82603359  1
  O  O616  1  0.57330935  0.52038967  0.07633039  1
  O  O617  1  0.57312945  0.52167861  0.32543938  1
  O  O618  1  0.57145825  0.52069198  0.57349714  1
  O  O619  1  0.57290950  0.52086616  0.82424192  1
  O  O620  1  0.57308240  0.85398377  0.07562039  1
  O  O621  1  0.57165116  0.85267685  0.32375108  1
  O  O622  1  0.57339124  0.85373106  0.57370329  1
  O  O623  1  0.57403907  0.85195271  0.82368857  1
  O  O624  1  0.32124206  0.18604083  0.05201071  1
  O  O625  1  0.32153394  0.18549107  0.30083742  1
  O  O626  1  0.32390224  0.18609739  0.54876093  1
  O  O627  1  0.32268615  0.18649635  0.80107041  1
  O  O628  1  0.32380981  0.51961615  0.04946337  1
  O  O629  1  0.32319163  0.52034934  0.29978286  1
  O  O630  1  0.32294121  0.51966013  0.54899252  1
  O  O631  1  0.32249114  0.51927247  0.80194183  1
  O  O632  1  0.32293668  0.85379742  0.05136409  1
  O  O633  1  0.32129427  0.85316931  0.30177826  1
  O  O634  1  0.32321517  0.85406082  0.54943013  1
  O  O635  1  0.32331428  0.85194535  0.80054550  1
  O  O636  1  0.82374959  0.18663411  0.04977279  1
  O  O637  1  0.82429824  0.18723592  0.30003650  1
  O  O638  1  0.82256341  0.18507918  0.55100126  1
  O  O639  1  0.82343685  0.18680518  0.79933940  1
  O  O640  1  0.82241568  0.52025163  0.05176720  1
  O  O641  1  0.82345737  0.52173626  0.30097421  1
  O  O642  1  0.82242806  0.52058518  0.55183001  1
  O  O643  1  0.82283669  0.52206701  0.80008636  1
  O  O644  1  0.82418566  0.85231223  0.05013578  1
  O  O645  1  0.82204368  0.85249836  0.30268709  1
  O  O646  1  0.82165465  0.85248819  0.55136502  1
  O  O647  1  0.82440747  0.85325065  0.79881304  1
  O  O648  1  0.17861005  0.14667549  0.19847394  1
  O  O649  1  0.17852854  0.14661495  0.44773307  1
  O  O650  1  0.17680825  0.14514867  0.69855580  1
  O  O651  1  0.17592421  0.14662978  0.95055485  1
  O  O652  1  0.17678506  0.47869067  0.19962516  1
  O  O653  1  0.17587538  0.47855740  0.44885692  1
  O  O654  1  0.17630319  0.47963576  0.70043365  1
  O  O655  1  0.17741662  0.47969784  0.94879011  1
  O  O656  1  0.17574091  0.81332411  0.20091326  1
  O  O657  1  0.17873072  0.81407368  0.44823336  1
  O  O658  1  0.17631971  0.81279206  0.70026808  1
  O  O659  1  0.17769625  0.81408363  0.94840619  1
  O  O660  1  0.67623272  0.14631078  0.20121313  1
  O  O661  1  0.67706089  0.14550361  0.45008261  1
  O  O662  1  0.67823240  0.14720698  0.69766100  1
  O  O663  1  0.67577432  0.14650488  0.95009727  1
  O  O664  1  0.67671662  0.48273182  0.19990451  1
  O  O665  1  0.67620920  0.48129155  0.45082950  1
  O  O666  1  0.67698529  0.48300622  0.69907949  1
  O  O667  1  0.67569847  0.48144572  0.95038981  1
  O  O668  1  0.67752228  0.81267756  0.20040932  1
  O  O669  1  0.67829139  0.81372860  0.44866667  1
  O  O670  1  0.67896889  0.81447582  0.69738880  1
  O  O671  1  0.67718347  0.81206054  0.94967451  1
