# generated using pymatgen
data_Na2MnFe(PO4)2
_symmetry_space_group_name_H-M   'P 1'
_cell_length_a   22.34463819
_cell_length_b   20.09899461
_cell_length_c   19.44778150
_cell_angle_alpha   90.04291559
_cell_angle_beta   90.04513559
_cell_angle_gamma   89.96975413
_symmetry_Int_Tables_number   1
_chemical_formula_structural   Na2MnFe(PO4)2
_chemical_formula_sum   'Na96 Mn48 Fe48 P96 O384'
_cell_volume   8734.08491824
_cell_formula_units_Z   48
loop_
 _symmetry_equiv_pos_site_id
 _symmetry_equiv_pos_as_xyz
  1  'x, y, z'
loop_
 _atom_site_type_symbol
 _atom_site_label
 _atom_site_symmetry_multiplicity
 _atom_site_fract_x
 _atom_site_fract_y
 _atom_site_fract_z
 _atom_site_occupancy
  Na  Na0  1  0.13978613  0.24854987  0.24242429  1
  Na  Na1  1  0.14002465  0.24796010  0.49338940  1
  Na  Na2  1  0.14029712  0.24840722  0.74382035  1
  Na  Na3  1  0.14056219  0.24766471  0.99244333  1
  Na  Na4  1  0.14058191  0.58423550  0.24363592  1
  Na  Na5  1  0.14021056  0.58423293  0.49465433  1
  Na  Na6  1  0.14062729  0.58397500  0.74362876  1
  Na  Na7  1  0.14089175  0.58382033  0.99323494  1
  Na  Na8  1  0.14040595  0.91722117  0.24187027  1
  Na  Na9  1  0.14062297  0.91599625  0.49390997  1
  Na  Na10  1  0.14115686  0.91581652  0.74455931  1
  Na  Na11  1  0.14127164  0.91690450  0.99401878  1
  Na  Na12  1  0.63915309  0.25079409  0.24317779  1
  Na  Na13  1  0.63948425  0.25066484  0.49329215  1
  Na  Na14  1  0.63983860  0.25068166  0.74292534  1
  Na  Na15  1  0.63950256  0.25109627  0.99398364  1
  Na  Na16  1  0.63989173  0.58305889  0.24507545  1
  Na  Na17  1  0.63920524  0.58387789  0.49363712  1
  Na  Na18  1  0.63960762  0.58440310  0.74325021  1
  Na  Na19  1  0.63991411  0.58317900  0.99401659  1
  Na  Na20  1  0.63963135  0.91660627  0.24341327  1
  Na  Na21  1  0.64029986  0.91652088  0.49433674  1
  Na  Na22  1  0.64034418  0.91662170  0.74362045  1
  Na  Na23  1  0.64014461  0.91626552  0.99445980  1
  Na  Na24  1  0.36018663  0.08201654  0.00772103  1
  Na  Na25  1  0.36054836  0.08286472  0.25634734  1
  Na  Na26  1  0.35970347  0.08202963  0.50609593  1
  Na  Na27  1  0.35931822  0.08234505  0.75762709  1
  Na  Na28  1  0.35972393  0.41582891  0.00707458  1
  Na  Na29  1  0.35966295  0.41599837  0.25604143  1
  Na  Na30  1  0.35968873  0.41697989  0.50673076  1
  Na  Na31  1  0.35950111  0.41653631  0.75701937  1
  Na  Na32  1  0.35944460  0.75087621  0.00633305  1
  Na  Na33  1  0.36009135  0.75083603  0.25644937  1
  Na  Na34  1  0.35984049  0.75039259  0.50762341  1
  Na  Na35  1  0.35949884  0.75076308  0.75689510  1
  Na  Na36  1  0.86072037  0.08423461  0.00684159  1
  Na  Na37  1  0.86047337  0.08384385  0.25586995  1
  Na  Na38  1  0.85986910  0.08416598  0.50586426  1
  Na  Na39  1  0.85981436  0.08409417  0.75503854  1
  Na  Na40  1  0.85990644  0.41669890  0.00514093  1
  Na  Na41  1  0.85949707  0.41660922  0.25616820  1
  Na  Na42  1  0.85917079  0.41760032  0.50669732  1
  Na  Na43  1  0.85967102  0.41817681  0.75562102  1
  Na  Na44  1  0.85972753  0.74966714  0.00556578  1
  Na  Na45  1  0.86023736  0.74982384  0.25750029  1
  Na  Na46  1  0.85997425  0.74963128  0.50658416  1
  Na  Na47  1  0.85965316  0.74980642  0.75454125  1
  Na  Na48  1  0.11059202  0.08314392  0.11795084  1
  Na  Na49  1  0.10966523  0.08294841  0.36743751  1
  Na  Na50  1  0.11021362  0.08260879  0.61880101  1
  Na  Na51  1  0.11055761  0.08362239  0.86881788  1
  Na  Na52  1  0.10919034  0.41472238  0.11847471  1
  Na  Na53  1  0.10911165  0.41599023  0.36897539  1
  Na  Na54  1  0.10932673  0.41612008  0.61970790  1
  Na  Na55  1  0.10960928  0.41512088  0.86765345  1
  Na  Na56  1  0.11056969  0.75140896  0.11813654  1
  Na  Na57  1  0.10975576  0.75108626  0.36918409  1
  Na  Na58  1  0.11021958  0.74990480  0.61821842  1
  Na  Na59  1  0.11062150  0.74926923  0.86812652  1
  Na  Na60  1  0.60883446  0.08424890  0.11867512  1
  Na  Na61  1  0.60874671  0.08440940  0.36865817  1
  Na  Na62  1  0.60953877  0.08429178  0.61817084  1
  Na  Na63  1  0.60950268  0.08303565  0.86928219  1
  Na  Na64  1  0.60912857  0.41547247  0.11879415  1
  Na  Na65  1  0.60903791  0.41715890  0.36908410  1
  Na  Na66  1  0.60853817  0.41775152  0.61708217  1
  Na  Na67  1  0.60884732  0.41748408  0.86928473  1
  Na  Na68  1  0.60957397  0.74979535  0.11977664  1
  Na  Na69  1  0.60901507  0.75004920  0.36886718  1
  Na  Na70  1  0.60921168  0.74896382  0.61881939  1
  Na  Na71  1  0.60948223  0.74948010  0.86805223  1
  Na  Na72  1  0.39043013  0.24872791  0.13091506  1
  Na  Na73  1  0.39060190  0.25029167  0.38051181  1
  Na  Na74  1  0.39004079  0.24996441  0.63104418  1
  Na  Na75  1  0.39032145  0.24929451  0.88389226  1
  Na  Na76  1  0.39030277  0.58318948  0.13156246  1
  Na  Na77  1  0.39033541  0.58319433  0.38175642  1
  Na  Na78  1  0.39003612  0.58459858  0.63171353  1
  Na  Na79  1  0.39032844  0.58394922  0.88158553  1
  Na  Na80  1  0.39046815  0.91742466  0.13297115  1
  Na  Na81  1  0.39008896  0.91717763  0.38145816  1
  Na  Na82  1  0.38982634  0.91609485  0.63280997  1
  Na  Na83  1  0.39009445  0.91678003  0.88230661  1
  Na  Na84  1  0.89086968  0.24895893  0.13106524  1
  Na  Na85  1  0.89053098  0.24976922  0.37974436  1
  Na  Na86  1  0.89071272  0.25006702  0.63127466  1
  Na  Na87  1  0.89053996  0.24939111  0.88020254  1
  Na  Na88  1  0.89090679  0.58325821  0.13163928  1
  Na  Na89  1  0.89010352  0.58410242  0.38265374  1
  Na  Na90  1  0.88961473  0.58349801  0.63117303  1
  Na  Na91  1  0.89032792  0.58298989  0.87991914  1
  Na  Na92  1  0.89145252  0.91777148  0.13125417  1
  Na  Na93  1  0.89111688  0.91717807  0.38092843  1
  Na  Na94  1  0.89075508  0.91749503  0.63053417  1
  Na  Na95  1  0.89074891  0.91763440  0.88078860  1
  Mn  Mn96  1  0.00034194  0.83344899  0.74988316  1
  Mn  Mn97  1  0.50021199  0.00045020  0.50038320  1
  Mn  Mn98  1  0.24926814  0.50079121  0.62627762  1
  Mn  Mn99  1  0.24974737  0.83428630  0.37552511  1
  Mn  Mn100  1  -0.00032895  0.33152274  -0.00126114  1
  Mn  Mn101  1  0.00044170  0.49934914  0.25050509  1
  Mn  Mn102  1  0.75009527  0.16732418  0.87477404  1
  Mn  Mn103  1  0.25024257  0.50021095  0.87547739  1
  Mn  Mn104  1  0.25020815  0.16480941  0.37444382  1
  Mn  Mn105  1  0.00088785  0.00097700  0.74984310  1
  Mn  Mn106  1  0.25009534  0.50041679  0.37525254  1
  Mn  Mn107  1  0.74921200  0.50143008  0.87511885  1
  Mn  Mn108  1  0.75024916  0.66617333  0.12548348  1
  Mn  Mn109  1  0.74924765  0.16720274  0.37500488  1
  Mn  Mn110  1  0.49959149  0.83398447  0.00071380  1
  Mn  Mn111  1  0.24988020  0.33255660  0.62555368  1
  Mn  Mn112  1  0.75020167  0.00019986  0.12483652  1
  Mn  Mn113  1  -0.00054463  0.50000477  0.49952181  1
  Mn  Mn114  1  0.00035683  0.49900964  0.00009080  1
  Mn  Mn115  1  0.49939887  0.33347345  0.75016297  1
  Mn  Mn116  1  0.75018269  0.83279855  0.12488619  1
  Mn  Mn117  1  0.25052642  0.16474361  0.62519332  1
  Mn  Mn118  1  0.49987412  0.83281153  0.50032766  1
  Mn  Mn119  1  0.49943708  0.66632555  0.00040185  1
  Mn  Mn120  1  0.75059452  0.49974874  0.12481212  1
  Mn  Mn121  1  0.75034346  0.00046025  0.87438989  1
  Mn  Mn122  1  0.00071762  0.66782679  0.25063713  1
  Mn  Mn123  1  -0.00040829  0.33221084  0.49975349  1
  Mn  Mn124  1  0.00066362  0.66664794  -0.00001216  1
  Mn  Mn125  1  0.25014184  0.66767946  0.37481445  1
  Mn  Mn126  1  0.00009274  0.83445536  -0.00047434  1
  Mn  Mn127  1  0.00031141  0.00052775  0.49927893  1
  Mn  Mn128  1  0.49990978  0.16676104  0.75065284  1
  Mn  Mn129  1  -0.00056915  0.66605354  0.74929024  1
  Mn  Mn130  1  0.49926961  0.49968525  0.25036867  1
  Mn  Mn131  1  0.74988184  0.83327968  0.62481156  1
  Mn  Mn132  1  0.49896561  0.50062227  0.74927403  1
  Mn  Mn133  1  0.24947793  0.33205658  0.12498203  1
  Mn  Mn134  1  0.74923405  0.33439276  0.62440906  1
  Mn  Mn135  1  0.49953771  -0.00039917  0.75016021  1
  Mn  Mn136  1  0.74920570  0.00029917  0.37513634  1
  Mn  Mn137  1  0.24944390  0.50034474  0.12453306  1
  Mn  Mn138  1  0.75008432  0.33434058  0.37537891  1
  Mn  Mn139  1  0.24944774  0.33267260  0.37483622  1
  Mn  Mn140  1  0.74978212  0.33439257  0.87370569  1
  Mn  Mn141  1  0.74932640  0.16788831  0.12523005  1
  Mn  Mn142  1  0.75050147  0.83289111  0.37533759  1
  Mn  Mn143  1  0.75060950  0.83252244  0.87373051  1
  Fe  Fe144  1  0.49859197  0.66701663  0.50006616  1
  Fe  Fe145  1  0.00080015  0.00082867  0.00042158  1
  Fe  Fe146  1  0.00067264  0.16596889  0.00003268  1
  Fe  Fe147  1  0.25080057  0.66746285  0.12426341  1
  Fe  Fe148  1  0.25086595  -0.00099921  0.87586710  1
  Fe  Fe149  1  0.49960675  0.33316871  0.00025532  1
  Fe  Fe150  1  0.24998931  -0.00066260  0.37450995  1
  Fe  Fe151  1  0.24980415  -0.00118112  0.62595236  1
  Fe  Fe152  1  0.50003049  0.00063628  0.25072470  1
  Fe  Fe153  1  0.50026985  0.16731867  0.24958341  1
  Fe  Fe154  1  0.74994036  0.16711994  0.62439698  1
  Fe  Fe155  1  -0.00010230  0.33224051  0.24957859  1
  Fe  Fe156  1  0.00039855  0.49969080  0.74962874  1
  Fe  Fe157  1  0.25008882  0.83318333  0.87526667  1
  Fe  Fe158  1  0.00043358  0.83403052  0.49951974  1
  Fe  Fe159  1  0.49987885  0.66669325  0.75025816  1
  Fe  Fe160  1  0.49995342  0.66644811  0.25054358  1
  Fe  Fe161  1  0.75005165  0.66676257  0.87453137  1
  Fe  Fe162  1  0.75011524  0.00046461  0.62450108  1
  Fe  Fe163  1  0.49904318  0.50036553  0.49947921  1
  Fe  Fe164  1  0.00016926  0.83382013  0.25000388  1
  Fe  Fe165  1  0.74921814  0.50122807  0.62509711  1
  Fe  Fe166  1  0.74947719  0.50059882  0.37554346  1
  Fe  Fe167  1  0.00001691  0.33242586  0.74935905  1
  Fe  Fe168  1  0.25015159  0.33225837  0.87571697  1
  Fe  Fe169  1  0.50004553  0.49985280  0.00066428  1
  Fe  Fe170  1  0.25019926  0.66745407  0.87486595  1
  Fe  Fe171  1  0.50034578  0.83323479  0.75091921  1
  Fe  Fe172  1  -0.00026285  0.16618450  0.74978654  1
  Fe  Fe173  1  0.00034258  0.66710913  0.50035550  1
  Fe  Fe174  1  0.00050622  0.00037836  0.24991686  1
  Fe  Fe175  1  0.49925735  0.33325389  0.49935369  1
  Fe  Fe176  1  0.50070762  -0.00012302  0.00123346  1
  Fe  Fe177  1  0.74919828  0.66663523  0.62442190  1
  Fe  Fe178  1  0.00046313  0.16685855  0.49918301  1
  Fe  Fe179  1  0.75002092  0.33404469  0.12503293  1
  Fe  Fe180  1  0.49939291  0.33335539  0.24989503  1
  Fe  Fe181  1  0.50004999  0.16617463  0.00151135  1
  Fe  Fe182  1  0.25058019  0.16525516  0.87479355  1
  Fe  Fe183  1  0.49982517  0.83352865  0.25050829  1
  Fe  Fe184  1  0.49920423  0.16731153  0.49901261  1
  Fe  Fe185  1  0.25078435  0.16553530  0.12415126  1
  Fe  Fe186  1  0.25017361  0.83350722  0.62609860  1
  Fe  Fe187  1  0.25074121  0.83357687  0.12460537  1
  Fe  Fe188  1  0.25019028  0.66757191  0.62541070  1
  Fe  Fe189  1  0.25070331  -0.00011206  0.12433728  1
  Fe  Fe190  1  0.74966469  0.66606446  0.37588280  1
  Fe  Fe191  1  0.00059413  0.16627573  0.24940794  1
  P  P192  1  0.04255745  0.24786754  0.10256182  1
  P  P193  1  0.04194751  0.24921028  0.35131587  1
  P  P194  1  0.04221564  0.24826701  0.60295903  1
  P  P195  1  0.04140889  0.24882553  0.85127975  1
  P  P196  1  0.04346554  0.58311053  0.10335125  1
  P  P197  1  0.04273650  0.58396055  0.35384960  1
  P  P198  1  0.04167816  0.58371389  0.60266665  1
  P  P199  1  0.04269534  0.58180608  0.85202815  1
  P  P200  1  0.04261684  0.91849197  0.10301075  1
  P  P201  1  0.04183205  0.91668834  0.35145865  1
  P  P202  1  0.04256619  0.91612337  0.60188792  1
  P  P203  1  0.04317696  0.91760288  0.85349940  1
  P  P204  1  0.54085780  0.25035172  0.10245317  1
  P  P205  1  0.54079391  0.25073596  0.35194987  1
  P  P206  1  0.54089044  0.25026102  0.60095874  1
  P  P207  1  0.54225235  0.25032500  0.85436608  1
  P  P208  1  0.54187752  0.58209995  0.10326362  1
  P  P209  1  0.54125486  0.58438290  0.35348361  1
  P  P210  1  0.54017006  0.58404165  0.60140002  1
  P  P211  1  0.54176708  0.58402328  0.85262783  1
  P  P212  1  0.54186785  0.91798427  0.10420184  1
  P  P213  1  0.54114913  0.91704813  0.35199128  1
  P  P214  1  0.54248357  0.91608896  0.60382984  1
  P  P215  1  0.54224234  0.91594431  0.85328803  1
  P  P216  1  0.45913897  0.08326759  0.14827915  1
  P  P217  1  0.45806360  0.08449833  0.39669084  1
  P  P218  1  0.45679893  0.08385377  0.64689217  1
  P  P219  1  0.45893989  0.08276831  0.89966910  1
  P  P220  1  0.45754952  0.41498208  0.14692941  1
  P  P221  1  0.45808196  0.41630105  0.39793519  1
  P  P222  1  0.45673409  0.41655666  0.64579372  1
  P  P223  1  0.45806979  0.41706189  0.89890088  1
  P  P224  1  0.45883799  0.74986704  0.14898542  1
  P  P225  1  0.45744646  0.74905328  0.39698638  1
  P  P226  1  0.45853259  0.74997917  0.64894281  1
  P  P227  1  0.45762630  0.75026249  0.89670064  1
  P  P228  1  0.95947853  0.08327617  0.14760423  1
  P  P229  1  0.95820966  0.08498958  0.39630964  1
  P  P230  1  0.95815368  0.08473681  0.64663516  1
  P  P231  1  0.95893101  0.08369676  0.89809720  1
  P  P232  1  0.95791407  0.41462045  0.14751207  1
  P  P233  1  0.95675742  0.41559135  0.39634495  1
  P  P234  1  0.95861635  0.41646931  0.64825834  1
  P  P235  1  0.95771001  0.41603551  0.89537362  1
  P  P236  1  0.95809522  0.75174776  0.14773247  1
  P  P237  1  0.95903649  0.75085068  0.39833163  1
  P  P238  1  0.95784701  0.75030652  0.64541790  1
  P  P239  1  0.95749018  0.74994347  0.89661034  1
  P  P240  1  0.20942098  0.08264269  0.22606054  1
  P  P241  1  0.20778608  0.08034761  0.47746249  1
  P  P242  1  0.20835799  0.08096302  0.72869066  1
  P  P243  1  0.20976193  0.08242678  0.97707119  1
  P  P244  1  0.20685615  0.41654924  0.22791979  1
  P  P245  1  0.20695329  0.41667181  0.47848884  1
  P  P246  1  0.20748446  0.41584214  0.72939696  1
  P  P247  1  0.20776739  0.41493223  0.97729908  1
  P  P248  1  0.20914469  0.75067040  0.22598481  1
  P  P249  1  0.20767366  0.75067630  0.47924397  1
  P  P250  1  0.20863697  0.75017577  0.72759771  1
  P  P251  1  0.20904438  0.75022120  0.97717541  1
  P  P252  1  0.70659323  0.08362617  0.22806872  1
  P  P253  1  0.70683516  0.08381982  0.47920830  1
  P  P254  1  0.70833936  0.08372170  0.72594752  1
  P  P255  1  0.70738613  0.08393046  0.97801117  1
  P  P256  1  0.70745807  0.41636750  0.22785931  1
  P  P257  1  0.70728095  0.41894848  0.47797189  1
  P  P258  1  0.70665842  0.41897415  0.72679455  1
  P  P259  1  0.70698247  0.41674625  0.97815782  1
  P  P260  1  0.70747200  0.74920733  0.22913879  1
  P  P261  1  0.70769715  0.74845528  0.47799877  1
  P  P262  1  0.70759481  0.74855440  0.72728198  1
  P  P263  1  0.70743945  0.74875948  0.97697126  1
  P  P264  1  0.29193587  0.24785170  0.02155948  1
  P  P265  1  0.29232369  0.24862011  0.27113677  1
  P  P266  1  0.29239674  0.24870762  0.52196771  1
  P  P267  1  0.29174926  0.24916021  0.77405480  1
  P  P268  1  0.29229332  0.58501785  0.02199265  1
  P  P269  1  0.29288805  0.58413118  0.27130192  1
  P  P270  1  0.29206308  0.58481777  0.52327461  1
  P  P271  1  0.29209362  0.58531794  0.77264287  1
  P  P272  1  0.29193683  0.91640099  0.02299292  1
  P  P273  1  0.29211822  0.91767068  0.27183833  1
  P  P274  1  0.29179183  0.91650880  0.52402046  1
  P  P275  1  0.29157246  0.91616843  0.77355119  1
  P  P276  1  0.79231334  0.25193423  0.02247745  1
  P  P277  1  0.79213777  0.25094483  0.27150888  1
  P  P278  1  0.79208541  0.24974045  0.52246989  1
  P  P279  1  0.79232311  0.25024672  0.77046645  1
  P  P280  1  0.79335727  0.58366083  0.02154070  1
  P  P281  1  0.79182003  0.58303235  0.27408851  1
  P  P282  1  0.79082792  0.58348399  0.52268150  1
  P  P283  1  0.79175791  0.58504329  0.77132864  1
  P  P284  1  0.79338501  0.91648413  0.02156045  1
  P  P285  1  0.79298528  0.91678049  0.27202811  1
  P  P286  1  0.79231546  0.91773380  0.52250561  1
  P  P287  1  0.79303676  0.91712932  0.77064645  1
  O  O288  1  0.03744028  0.24832585  0.18244763  1
  O  O289  1  0.03693503  0.24885630  0.43130810  1
  O  O290  1  0.03678113  0.24855334  0.68282736  1
  O  O291  1  0.03679509  0.24858494  0.93126180  1
  O  O292  1  0.03842799  0.58334326  0.18335400  1
  O  O293  1  0.03718407  0.58452109  0.43378216  1
  O  O294  1  0.03643274  0.58288795  0.68263597  1
  O  O295  1  0.03787530  0.58216376  0.93204707  1
  O  O296  1  0.03739020  0.91813246  0.18289001  1
  O  O297  1  0.03690005  0.91663400  0.43143622  1
  O  O298  1  0.03764387  0.91650682  0.68182038  1
  O  O299  1  0.03795845  0.91830945  0.93343297  1
  O  O300  1  0.53589199  0.25044665  0.18233697  1
  O  O301  1  0.53546177  0.25047797  0.43182331  1
  O  O302  1  0.53643761  0.25006804  0.68101228  1
  O  O303  1  0.53714884  0.25050609  0.93425919  1
  O  O304  1  0.53645701  0.58270242  0.18317147  1
  O  O305  1  0.53547205  0.58429022  0.43329477  1
  O  O306  1  0.53544060  0.58408590  0.68138969  1
  O  O307  1  0.53682263  0.58327693  0.93255178  1
  O  O308  1  0.53629300  0.91784905  0.18406222  1
  O  O309  1  0.53645721  0.91658015  0.43201816  1
  O  O310  1  0.53732727  0.91560797  0.68379103  1
  O  O311  1  0.53733206  0.91660963  0.93327780  1
  O  O312  1  0.46430851  0.08304632  0.06839789  1
  O  O313  1  0.46375902  0.08406275  0.31685260  1
  O  O314  1  0.46164907  0.08420135  0.56692591  1
  O  O315  1  0.46348178  0.08293265  0.81965543  1
  O  O316  1  0.46316127  0.41532284  0.06707986  1
  O  O317  1  0.46295369  0.41617169  0.31794843  1
  O  O318  1  0.46196744  0.41634324  0.56590018  1
  O  O319  1  0.46282519  0.41708102  0.81884235  1
  O  O320  1  0.46364943  0.75029281  0.06901290  1
  O  O321  1  0.46304369  0.74921977  0.31715633  1
  O  O322  1  0.46306567  0.74983764  0.56890367  1
  O  O323  1  0.46318274  0.75030937  0.81684524  1
  O  O324  1  0.96436439  0.08284335  0.06766729  1
  O  O325  1  0.96370494  0.08481816  0.31644621  1
  O  O326  1  0.96334221  0.08467582  0.56670839  1
  O  O327  1  0.96383180  0.08406266  0.81810718  1
  O  O328  1  0.96322891  0.41467165  0.06752935  1
  O  O329  1  0.96204783  0.41520387  0.31642402  1
  O  O330  1  0.96317082  0.41614950  0.56822832  1
  O  O331  1  0.96301649  0.41640552  0.81548118  1
  O  O332  1  0.96309364  0.75131033  0.06777723  1
  O  O333  1  0.96402072  0.75127639  0.31832913  1
  O  O334  1  0.96350028  0.75026578  0.56551223  1
  O  O335  1  0.96244167  0.74974070  0.81661356  1
  O  O336  1  0.21474879  0.08324645  0.05695481  1
  O  O337  1  0.21376121  0.08191217  0.30604353  1
  O  O338  1  0.21289716  0.08021831  0.55741742  1
  O  O339  1  0.21389667  0.08132374  0.80853208  1
  O  O340  1  0.21267872  0.41520300  0.05731123  1
  O  O341  1  0.21198282  0.41655688  0.30792408  1
  O  O342  1  0.21203458  0.41671008  0.55853169  1
  O  O343  1  0.21315450  0.41536736  0.80932321  1
  O  O344  1  0.21432170  0.75034739  0.05705247  1
  O  O345  1  0.21360173  0.75100939  0.30602396  1
  O  O346  1  0.21286113  0.75080772  0.55916203  1
  O  O347  1  0.21377623  0.74973342  0.80750323  1
  O  O348  1  0.71224375  0.08405349  0.05799200  1
  O  O349  1  0.71124912  0.08380770  0.30810547  1
  O  O350  1  0.71238387  0.08384917  0.55915372  1
  O  O351  1  0.71337132  0.08380687  0.80599577  1
  O  O352  1  0.71239943  0.41606024  0.05809948  1
  O  O353  1  0.71256858  0.41712610  0.30783423  1
  O  O354  1  0.71241881  0.41908076  0.55792046  1
  O  O355  1  0.71167608  0.41875602  0.80677311  1
  O  O356  1  0.71244150  0.74921039  0.05701817  1
  O  O357  1  0.71276139  0.74875536  0.30911568  1
  O  O358  1  0.71285539  0.74860022  0.55798024  1
  O  O359  1  0.71290291  0.74839300  0.80722840  1
  O  O360  1  0.28725956  0.24812726  0.19114782  1
  O  O361  1  0.28718766  0.24861103  0.44200485  1
  O  O362  1  0.28715550  0.24885500  0.69401244  1
  O  O363  1  0.28661089  0.24824504  0.94164611  1
  O  O364  1  0.28774478  0.58440849  0.19130759  1
  O  O365  1  0.28708788  0.58452434  0.44326455  1
  O  O366  1  0.28650814  0.58531360  0.69271245  1
  O  O367  1  0.28682983  0.58506361  0.94204393  1
  O  O368  1  0.28735850  0.91742945  0.19197717  1
  O  O369  1  0.28675081  0.91674738  0.44405616  1
  O  O370  1  0.28623658  0.91585994  0.69368771  1
  O  O371  1  0.28723096  0.91661482  0.94312198  1
  O  O372  1  0.78702092  0.25151557  0.19155152  1
  O  O373  1  0.78715708  0.25011605  0.44247187  1
  O  O374  1  0.78686120  0.24953797  0.69053402  1
  O  O375  1  0.78733749  0.25159232  0.94244522  1
  O  O376  1  0.78742274  0.58302694  0.19403791  1
  O  O377  1  0.78570922  0.58315689  0.44273807  1
  O  O378  1  0.78618188  0.58464700  0.69142259  1
  O  O379  1  0.78820481  0.58420201  0.94158752  1
  O  O380  1  0.78813302  0.91650654  0.19201799  1
  O  O381  1  0.78715071  0.91735687  0.44253944  1
  O  O382  1  0.78754198  0.91773155  0.69070030  1
  O  O383  1  0.78850691  0.91642949  0.94151485  1
  O  O384  1  0.22782414  0.24720870  0.05761058  1
  O  O385  1  0.22798511  0.24849963  0.30637742  1
  O  O386  1  0.22809422  0.24847328  0.55725570  1
  O  O387  1  0.22743985  0.24932464  0.80933364  1
  O  O388  1  0.22808871  0.58550544  0.05779566  1
  O  O389  1  0.22853768  0.58385375  0.30658173  1
  O  O390  1  0.22775799  0.58538398  0.55874954  1
  O  O391  1  0.22797859  0.58498665  0.80861210  1
  O  O392  1  0.22785327  0.91607020  0.05895510  1
  O  O393  1  0.22778137  0.91804449  0.30751717  1
  O  O394  1  0.22762486  0.91603895  0.56009821  1
  O  O395  1  0.22767810  0.91704895  0.81014874  1
  O  O396  1  0.72790191  0.25250658  0.05780603  1
  O  O397  1  0.72777645  0.25107472  0.30673358  1
  O  O398  1  0.72764501  0.24973222  0.55752560  1
  O  O399  1  0.72803744  0.25031829  0.80590255  1
  O  O400  1  0.72889298  0.58305493  0.05653361  1
  O  O401  1  0.72738886  0.58307010  0.30932552  1
  O  O402  1  0.72670025  0.58338455  0.55885794  1
  O  O403  1  0.72761937  0.58575456  0.80754489  1
  O  O404  1  0.72882141  0.91647086  0.05630763  1
  O  O405  1  0.72842643  0.91633577  0.30670318  1
  O  O406  1  0.72799522  0.91790139  0.55785640  1
  O  O407  1  0.72877239  0.91670498  0.80611139  1
  O  O408  1  0.27370062  0.08317772  0.19055894  1
  O  O409  1  0.27211482  0.08047635  0.44189612  1
  O  O410  1  0.27245094  0.08036377  0.69247708  1
  O  O411  1  0.27381665  0.08179732  0.94090485  1
  O  O412  1  0.27123001  0.41645644  0.19281925  1
  O  O413  1  0.27140528  0.41639088  0.44349469  1
  O  O414  1  0.27165740  0.41649708  0.69372516  1
  O  O415  1  0.27215460  0.41500124  0.94208720  1
  O  O416  1  0.27347223  0.75037246  0.19055642  1
  O  O417  1  0.27191273  0.75098222  0.44364426  1
  O  O418  1  0.27268464  0.75054638  0.69119107  1
  O  O419  1  0.27304545  0.74980539  0.94083822  1
  O  O420  1  0.77118031  0.08407275  0.19351947  1
  O  O421  1  0.77108685  0.08382438  0.44359241  1
  O  O422  1  0.77255106  0.08382455  0.69022172  1
  O  O423  1  0.77192632  0.08385691  0.94327486  1
  O  O424  1  0.77181212  0.41547836  0.19222923  1
  O  O425  1  0.77159858  0.41910878  0.44248490  1
  O  O426  1  0.77108210  0.41887578  0.69162950  1
  O  O427  1  0.77126716  0.41743024  0.94271849  1
  O  O428  1  0.77185255  0.74964682  0.19391107  1
  O  O429  1  0.77200380  0.74835602  0.44248698  1
  O  O430  1  0.77176310  0.74859228  0.69148066  1
  O  O431  1  0.77187856  0.74824629  0.94165521  1
  O  O432  1  0.02355060  0.08389082  0.18381765  1
  O  O433  1  0.02234685  0.08505076  0.43259891  1
  O  O434  1  0.02244508  0.08513074  0.68242166  1
  O  O435  1  0.02322452  0.08391545  0.93400963  1
  O  O436  1  0.02216054  0.41450172  0.18329095  1
  O  O437  1  0.02108215  0.41589536  0.43175163  1
  O  O438  1  0.02279072  0.41658404  0.68402020  1
  O  O439  1  0.02191130  0.41554323  0.93125287  1
  O  O440  1  0.02254670  0.75210875  0.18306557  1
  O  O441  1  0.02317217  0.75063743  0.43436260  1
  O  O442  1  0.02196794  0.74979419  0.68144542  1
  O  O443  1  0.02199549  0.75028874  0.93154191  1
  O  O444  1  0.52303077  0.08288363  0.18488820  1
  O  O445  1  0.52203521  0.08487599  0.43326907  1
  O  O446  1  0.52127472  0.08331651  0.68198636  1
  O  O447  1  0.52316265  0.08242298  0.93536001  1
  O  O448  1  0.52157436  0.41493490  0.18341859  1
  O  O449  1  0.52213883  0.41600363  0.43404673  1
  O  O450  1  0.52098295  0.41679814  0.68155981  1
  O  O451  1  0.52226170  0.41717693  0.93474413  1
  O  O452  1  0.52293863  0.74937225  0.18490325  1
  O  O453  1  0.52154977  0.74836146  0.43333039  1
  O  O454  1  0.52274057  0.74976587  0.68480256  1
  O  O455  1  0.52171328  0.75020693  0.93273537  1
  O  O456  1  0.47693005  0.25036322  0.06592580  1
  O  O457  1  0.47688407  0.25099357  0.31528836  1
  O  O458  1  0.47662537  0.25068234  0.56530605  1
  O  O459  1  0.47785388  0.25017832  0.81887479  1
  O  O460  1  0.47765163  0.58166238  0.06731624  1
  O  O461  1  0.47728618  0.58469968  0.31687455  1
  O  O462  1  0.47603065  0.58416449  0.56542283  1
  O  O463  1  0.47744104  0.58481940  0.81696377  1
  O  O464  1  0.47774543  0.91859450  0.06790533  1
  O  O465  1  0.47695521  0.91771684  0.31628471  1
  O  O466  1  0.47816256  0.91652868  0.56842222  1
  O  O467  1  0.47788427  0.91555203  0.81776769  1
  O  O468  1  0.97827810  0.24723843  0.06667277  1
  O  O469  1  0.97780569  0.24916841  0.31514592  1
  O  O470  1  0.97802745  0.24767273  0.56673523  1
  O  O471  1  0.97722798  0.24867039  0.81538373  1
  O  O472  1  0.97897612  0.58315368  0.06836746  1
  O  O473  1  0.97848609  0.58388120  0.31827198  1
  O  O474  1  0.97750213  0.58436967  0.56679224  1
  O  O475  1  0.97824921  0.58137945  0.81675545  1
  O  O476  1  0.97847944  0.91886932  0.06683125  1
  O  O477  1  0.97768944  0.91623827  0.31549390  1
  O  O478  1  0.97827166  0.91618001  0.56627883  1
  O  O479  1  0.97890797  0.91753888  0.81795459  1
  O  O480  1  0.07334867  0.31136307  0.07395796  1
  O  O481  1  0.07234359  0.31324306  0.32344360  1
  O  O482  1  0.07293177  0.31206119  0.57481385  1
  O  O483  1  0.07155079  0.31285263  0.82287644  1
  O  O484  1  0.07442241  0.64658573  0.07513488  1
  O  O485  1  0.07428959  0.64704583  0.32550621  1
  O  O486  1  0.07258235  0.64737470  0.57467761  1
  O  O487  1  0.07338790  0.64558407  0.82411377  1
  O  O488  1  0.07359545  0.98183661  0.07430080  1
  O  O489  1  0.07191793  0.98082166  0.32316779  1
  O  O490  1  0.07365720  0.97964018  0.57398693  1
  O  O491  1  0.07447515  0.98066208  0.82486001  1
  O  O492  1  0.57205365  0.31361710  0.07393578  1
  O  O493  1  0.57211050  0.31414219  0.32382690  1
  O  O494  1  0.57199896  0.31376884  0.57297598  1
  O  O495  1  0.57322385  0.31358569  0.82536851  1
  O  O496  1  0.57301704  0.64552562  0.07516215  1
  O  O497  1  0.57247717  0.64756844  0.32483172  1
  O  O498  1  0.57133290  0.64742118  0.57325249  1
  O  O499  1  0.57260505  0.64753919  0.82423575  1
  O  O500  1  0.57319488  0.98107420  0.07545222  1
  O  O501  1  0.57261517  0.98041860  0.32444785  1
  O  O502  1  0.57360401  0.97957848  0.57586062  1
  O  O503  1  0.57338411  0.97928689  0.82491789  1
  O  O504  1  0.42753122  0.02020955  0.17677179  1
  O  O505  1  0.42693971  0.02096725  0.42481880  1
  O  O506  1  0.42574568  0.02039099  0.67515591  1
  O  O507  1  0.42792618  0.01922460  0.92767310  1
  O  O508  1  0.42657380  0.35157823  0.17542788  1
  O  O509  1  0.42656444  0.35316116  0.42611395  1
  O  O510  1  0.42570106  0.35329180  0.67469423  1
  O  O511  1  0.42744618  0.35325955  0.92689190  1
  O  O512  1  0.42762108  0.68632367  0.17648766  1
  O  O513  1  0.42598196  0.68609032  0.42584452  1
  O  O514  1  0.42749536  0.68653484  0.67718708  1
  O  O515  1  0.42632529  0.68697081  0.92504453  1
  O  O516  1  0.92911639  0.01956428  0.17667103  1
  O  O517  1  0.92709956  0.02133614  0.42420640  1
  O  O518  1  0.92762920  0.02077533  0.67446045  1
  O  O519  1  0.92857836  0.01977553  0.92624977  1
  O  O520  1  0.92722185  0.35106000  0.17575187  1
  O  O521  1  0.92571542  0.35235910  0.42497427  1
  O  O522  1  0.92822347  0.35256338  0.67646824  1
  O  O523  1  0.92635809  0.35259273  0.92341293  1
  O  O524  1  0.92719669  0.68812718  0.17582137  1
  O  O525  1  0.92828066  0.68701498  0.42624158  1
  O  O526  1  0.92617904  0.68715048  0.67356368  1
  O  O527  1  0.92678785  0.68640027  0.92488489  1
  O  O528  1  0.17905192  0.01900211  0.19691023  1
  O  O529  1  0.17702473  0.01711907  0.44827165  1
  O  O530  1  0.17703078  0.01777044  0.70009233  1
  O  O531  1  0.17844261  0.01886525  0.94934885  1
  O  O532  1  0.17583142  0.35301373  0.19988681  1
  O  O533  1  0.17582585  0.35317161  0.45041091  1
  O  O534  1  0.17642942  0.35249415  0.70091147  1
  O  O535  1  0.17720690  0.35119568  0.94903278  1
  O  O536  1  0.17826497  0.68704746  0.19790308  1
  O  O537  1  0.17670167  0.68728812  0.45060156  1
  O  O538  1  0.17786758  0.68662540  0.69878064  1
  O  O539  1  0.17757934  0.68700023  0.94867249  1
  O  O540  1  0.67608801  0.01990689  0.19990651  1
  O  O541  1  0.67560283  0.02039565  0.45091336  1
  O  O542  1  0.67769731  0.01980020  0.69810965  1
  O  O543  1  0.67644575  0.02043649  0.94975994  1
  O  O544  1  0.67657606  0.35287634  0.19944050  1
  O  O545  1  0.67655937  0.35496806  0.45033772  1
  O  O546  1  0.67551949  0.35539406  0.69888676  1
  O  O547  1  0.67596181  0.35360238  0.94921327  1
  O  O548  1  0.67646742  0.68585044  0.20057255  1
  O  O549  1  0.67680272  0.68510574  0.44936870  1
  O  O550  1  0.67653341  0.68542219  0.69829528  1
  O  O551  1  0.67660702  0.68522055  0.94873681  1
  O  O552  1  0.32275016  0.31155502  0.04979917  1
  O  O553  1  0.32300721  0.31246450  0.29908364  1
  O  O554  1  0.32327895  0.31228005  0.55005174  1
  O  O555  1  0.32272483  0.31272606  0.80225221  1
  O  O556  1  0.32365058  0.64811788  0.05064640  1
  O  O557  1  0.32384085  0.64748483  0.29989350  1
  O  O558  1  0.32300318  0.64829823  0.55162916  1
  O  O559  1  0.32293145  0.64872134  0.80115894  1
  O  O560  1  0.32238020  0.98014291  0.05199525  1
  O  O561  1  0.32296627  0.98097995  0.30096526  1
  O  O562  1  0.32245917  0.98013734  0.55249102  1
  O  O563  1  0.32337963  0.97927591  0.80176818  1
  O  O564  1  0.82327844  0.31529833  0.05092120  1
  O  O565  1  0.82357778  0.31390208  0.30030159  1
  O  O566  1  0.82311632  0.31342264  0.55028128  1
  O  O567  1  0.82306034  0.31420636  0.79795789  1
  O  O568  1  0.82429150  0.64688087  0.05051553  1
  O  O569  1  0.82248361  0.64671065  0.30257903  1
  O  O570  1  0.82161074  0.64728347  0.55074985  1
  O  O571  1  0.82311006  0.64823352  0.79986785  1
  O  O572  1  0.82421870  0.98008586  0.04977908  1
  O  O573  1  0.82354177  0.98056274  0.30005410  1
  O  O574  1  0.82309112  0.98135187  0.55072152  1
  O  O575  1  0.82424934  0.98035714  0.79925460  1
  O  O576  1  0.42880027  0.14739564  0.17646817  1
  O  O577  1  0.42699578  0.14801516  0.42501630  1
  O  O578  1  0.42596821  0.14719794  0.67579600  1
  O  O579  1  0.42859314  0.14667367  0.92812304  1
  O  O580  1  0.42623450  0.47846943  0.17511074  1
  O  O581  1  0.42786283  0.48053145  0.42604253  1
  O  O582  1  0.42546036  0.47995850  0.67417001  1
  O  O583  1  0.42727316  0.48079677  0.92694235  1
  O  O584  1  0.42854745  0.81393989  0.17726764  1
  O  O585  1  0.42671244  0.81296552  0.42503070  1
  O  O586  1  0.42819151  0.81395536  0.67734288  1
  O  O587  1  0.42631715  0.81357623  0.92524349  1
  O  O588  1  0.92783823  0.14656446  0.17567113  1
  O  O589  1  0.92716555  0.14828033  0.42504756  1
  O  O590  1  0.92687630  0.14774514  0.67553421  1
  O  O591  1  0.92771230  0.14701325  0.92659835  1
  O  O592  1  0.92686522  0.47841491  0.17504056  1
  O  O593  1  0.92564475  0.47916001  0.42443034  1
  O  O594  1  0.92765525  0.48019995  0.67601285  1
  O  O595  1  0.92665680  0.47932351  0.92431809  1
  O  O596  1  0.92732531  0.81528863  0.17613203  1
  O  O597  1  0.92809078  0.81445957  0.42663787  1
  O  O598  1  0.92691037  0.81389702  0.67369865  1
  O  O599  1  0.92636097  0.81348322  0.92445022  1
  O  O600  1  0.07371705  0.18458112  0.07376692  1
  O  O601  1  0.07323917  0.18590351  0.32290468  1
  O  O602  1  0.07353356  0.18513713  0.57411766  1
  O  O603  1  0.07272804  0.18549790  0.82301663  1
  O  O604  1  0.07430364  0.51944466  0.07536131  1
  O  O605  1  0.07371303  0.52017804  0.32619047  1
  O  O606  1  0.07288936  0.52022916  0.57461970  1
  O  O607  1  0.07357679  0.51836936  0.82356750  1
  O  O608  1  0.07370146  0.85488809  0.07481203  1
  O  O609  1  0.07330449  0.85349010  0.32308474  1
  O  O610  1  0.07315204  0.85245974  0.57353357  1
  O  O611  1  0.07402423  0.85375736  0.82577810  1
  O  O612  1  0.57151401  0.18640296  0.07416014  1
  O  O613  1  0.57145355  0.18698088  0.32325588  1
  O  O614  1  0.57112353  0.18633165  0.57246498  1
  O  O615  1  0.57339416  0.18685874  0.82589049  1
  O  O616  1  0.57255329  0.51837249  0.07501942  1
  O  O617  1  0.57231540  0.52064774  0.32558662  1
  O  O618  1  0.57047477  0.52003158  0.57292891  1
  O  O619  1  0.57259905  0.52053083  0.82399551  1
  O  O620  1  0.57273885  0.85417613  0.07617532  1
  O  O621  1  0.57123452  0.85292804  0.32354887  1
  O  O622  1  0.57358418  0.85279202  0.57520122  1
  O  O623  1  0.57288016  0.85222817  0.82488527  1
  O  O624  1  0.32327807  0.18457469  0.05005664  1
  O  O625  1  0.32378645  0.18557196  0.29967395  1
  O  O626  1  0.32352755  0.18524958  0.55006000  1
  O  O627  1  0.32224577  0.18523763  0.80237240  1
  O  O628  1  0.32287779  0.52092210  0.04952237  1
  O  O629  1  0.32396489  0.52055542  0.29947191  1
  O  O630  1  0.32278924  0.52103965  0.55114194  1
  O  O631  1  0.32343343  0.52164064  0.80020896  1
  O  O632  1  0.32320196  0.85305150  0.05154049  1
  O  O633  1  0.32296556  0.85414129  0.30049687  1
  O  O634  1  0.32286606  0.85296217  0.55230026  1
  O  O635  1  0.32174447  0.85219065  0.80223681  1
  O  O636  1  0.82297812  0.18804401  0.05033262  1
  O  O637  1  0.82288583  0.18706560  0.29925348  1
  O  O638  1  0.82275116  0.18616029  0.55078689  1
  O  O639  1  0.82379292  0.18728291  0.79932206  1
  O  O640  1  0.82454665  0.52013618  0.04957966  1
  O  O641  1  0.82240432  0.51924995  0.30222302  1
  O  O642  1  0.82193400  0.52010907  0.55145957  1
  O  O643  1  0.82253379  0.52125664  0.79943857  1
  O  O644  1  0.82425061  0.85297419  0.04983593  1
  O  O645  1  0.82426754  0.85357899  0.30052443  1
  O  O646  1  0.82336423  0.85404531  0.55012850  1
  O  O647  1  0.82417974  0.85343075  0.79825556  1
  O  O648  1  0.17837463  0.14622898  0.19801466  1
  O  O649  1  0.17677862  0.14409413  0.44962003  1
  O  O650  1  0.17759518  0.14467884  0.70028385  1
  O  O651  1  0.17923888  0.14599295  0.94772975  1
  O  O652  1  0.17585666  0.48004038  0.19983100  1
  O  O653  1  0.17618567  0.48032736  0.45042067  1
  O  O654  1  0.17610547  0.47939366  0.70174990  1
  O  O655  1  0.17666167  0.47860001  0.94970194  1
  O  O656  1  0.17871466  0.81448506  0.19750230  1
  O  O657  1  0.17636111  0.81388507  0.45046498  1
  O  O658  1  0.17754199  0.81383577  0.69964691  1
  O  O659  1  0.17858358  0.81411407  0.94853290  1
  O  O660  1  0.67534459  0.14695239  0.19983548  1
  O  O661  1  0.67560452  0.14716530  0.45071814  1
  O  O662  1  0.67739929  0.14742226  0.69794831  1
  O  O663  1  0.67650561  0.14748797  0.94983075  1
  O  O664  1  0.67673508  0.48003964  0.19958950  1
  O  O665  1  0.67617103  0.48202602  0.44901754  1
  O  O666  1  0.67601852  0.48256614  0.69838773  1
  O  O667  1  0.67569097  0.48036861  0.95053986  1
  O  O668  1  0.67629055  0.81268300  0.20107112  1
  O  O669  1  0.67665636  0.81224637  0.45031950  1
  O  O670  1  0.67658152  0.81244372  0.69989775  1
  O  O671  1  0.67672932  0.81250282  0.94885869  1
