# generated using pymatgen
data_Na2MnFe(PO4)2
_symmetry_space_group_name_H-M   'P 1'
_cell_length_a   22.34546217
_cell_length_b   20.09831944
_cell_length_c   19.44680453
_cell_angle_alpha   89.97764692
_cell_angle_beta   90.00078426
_cell_angle_gamma   90.02589661
_symmetry_Int_Tables_number   1
_chemical_formula_structural   Na2MnFe(PO4)2
_chemical_formula_sum   'Na96 Mn48 Fe48 P96 O384'
_cell_volume   8733.67964338
_cell_formula_units_Z   48
loop_
 _symmetry_equiv_pos_site_id
 _symmetry_equiv_pos_as_xyz
  1  'x, y, z'
loop_
 _atom_site_type_symbol
 _atom_site_label
 _atom_site_symmetry_multiplicity
 _atom_site_fract_x
 _atom_site_fract_y
 _atom_site_fract_z
 _atom_site_occupancy
  Na  Na0  1  0.13990783  0.24954555  0.24281954  1
  Na  Na1  1  0.14019169  0.25087576  0.49283938  1
  Na  Na2  1  0.13963526  0.25202518  0.74454562  1
  Na  Na3  1  0.13946804  0.25113443  0.99421237  1
  Na  Na4  1  0.13997373  0.58123934  0.24426936  1
  Na  Na5  1  0.13925611  0.58244809  0.49254149  1
  Na  Na6  1  0.14003359  0.58490568  0.74382066  1
  Na  Na7  1  0.14029744  0.58327533  0.99248553  1
  Na  Na8  1  0.14060811  0.91738224  0.24396447  1
  Na  Na9  1  0.14010333  0.91755689  0.49454060  1
  Na  Na10  1  0.13993858  0.91807771  0.74267798  1
  Na  Na11  1  0.14076305  0.91722875  0.99341608  1
  Na  Na12  1  0.64073705  0.24982162  0.24276228  1
  Na  Na13  1  0.64071731  0.24915313  0.49481592  1
  Na  Na14  1  0.64020680  0.25040696  0.74523458  1
  Na  Na15  1  0.64056722  0.25039631  0.99404454  1
  Na  Na16  1  0.64063102  0.58216035  0.24353861  1
  Na  Na17  1  0.64003175  0.58311919  0.49440770  1
  Na  Na18  1  0.64065405  0.58402334  0.74384982  1
  Na  Na19  1  0.64126278  0.58278040  0.99299518  1
  Na  Na20  1  0.64064548  0.91635804  0.24337921  1
  Na  Na21  1  0.64040223  0.91589826  0.49381950  1
  Na  Na22  1  0.64088574  0.91611859  0.74338503  1
  Na  Na23  1  0.64105694  0.91603711  0.99319697  1
  Na  Na24  1  0.35939163  0.08508872  0.00759928  1
  Na  Na25  1  0.36028354  0.08406417  0.25604321  1
  Na  Na26  1  0.35973936  0.08344353  0.50584344  1
  Na  Na27  1  0.35932779  0.08583769  0.75567533  1
  Na  Na28  1  0.35925329  0.41653876  0.00577911  1
  Na  Na29  1  0.35942696  0.41530167  0.25617044  1
  Na  Na30  1  0.35938344  0.41609351  0.50542754  1
  Na  Na31  1  0.35890716  0.41827237  0.75653328  1
  Na  Na32  1  0.35937527  0.75095547  0.00575118  1
  Na  Na33  1  0.35957160  0.74940713  0.25604148  1
  Na  Na34  1  0.35993265  0.75025818  0.50659905  1
  Na  Na35  1  0.35955802  0.75076670  0.75533446  1
  Na  Na36  1  0.85979376  0.08499998  0.00625317  1
  Na  Na37  1  0.86028711  0.08394125  0.25572238  1
  Na  Na38  1  0.85994759  0.08164501  0.50721453  1
  Na  Na39  1  0.85943581  0.08351174  0.75712622  1
  Na  Na40  1  0.85951788  0.41623726  0.00719027  1
  Na  Na41  1  0.86037708  0.41635995  0.25618544  1
  Na  Na42  1  0.86044640  0.41601165  0.50804361  1
  Na  Na43  1  0.85905597  0.41643229  0.75739467  1
  Na  Na44  1  0.86005544  0.74817029  0.00478482  1
  Na  Na45  1  0.85963697  0.74853866  0.25536563  1
  Na  Na46  1  0.85957248  0.74803286  0.50850541  1
  Na  Na47  1  0.85964934  0.74854694  0.75702604  1
  Na  Na48  1  0.11011621  0.08505986  0.11802826  1
  Na  Na49  1  0.10954493  0.08425994  0.36865041  1
  Na  Na50  1  0.10910540  0.08437287  0.61853061  1
  Na  Na51  1  0.10910681  0.08462823  0.86898297  1
  Na  Na52  1  0.10981501  0.41635583  0.11870851  1
  Na  Na53  1  0.10942080  0.41542089  0.36802997  1
  Na  Na54  1  0.10883216  0.41698792  0.61855858  1
  Na  Na55  1  0.10971706  0.41698054  0.86879400  1
  Na  Na56  1  0.10957176  0.74976118  0.11860839  1
  Na  Na57  1  0.10888399  0.74847451  0.36968667  1
  Na  Na58  1  0.10928608  0.75035610  0.61877966  1
  Na  Na59  1  0.10943688  0.75030216  0.86727813  1
  Na  Na60  1  0.61006451  0.08281189  0.11878603  1
  Na  Na61  1  0.60979917  0.08266776  0.36915314  1
  Na  Na62  1  0.60973009  0.08359225  0.61926774  1
  Na  Na63  1  0.60983417  0.08450326  0.86966193  1
  Na  Na64  1  0.61022219  0.41577238  0.11783975  1
  Na  Na65  1  0.60986780  0.41634901  0.36900512  1
  Na  Na66  1  0.60968149  0.41772960  0.61948000  1
  Na  Na67  1  0.61028535  0.41685469  0.86896671  1
  Na  Na68  1  0.61003895  0.74892656  0.11763935  1
  Na  Na69  1  0.60974916  0.75032813  0.36985954  1
  Na  Na70  1  0.60988195  0.75018685  0.61714093  1
  Na  Na71  1  0.61031484  0.75074759  0.86829163  1
  Na  Na72  1  0.38977507  0.24889816  0.13193397  1
  Na  Na73  1  0.38980867  0.24903628  0.38104030  1
  Na  Na74  1  0.38987913  0.25034528  0.63053586  1
  Na  Na75  1  0.38997779  0.25101571  0.88181218  1
  Na  Na76  1  0.39040008  0.58289692  0.12950960  1
  Na  Na77  1  0.39058695  0.58358133  0.38164081  1
  Na  Na78  1  0.38997672  0.58401272  0.63004090  1
  Na  Na79  1  0.38978426  0.58465379  0.88181168  1
  Na  Na80  1  0.39085222  0.91730497  0.13100616  1
  Na  Na81  1  0.39114571  0.91684893  0.38101152  1
  Na  Na82  1  0.39061778  0.91757059  0.63034759  1
  Na  Na83  1  0.39050349  0.91819998  0.88096963  1
  Na  Na84  1  0.89004245  0.25092074  0.13168422  1
  Na  Na85  1  0.89051528  0.24948661  0.38106267  1
  Na  Na86  1  0.89037955  0.24935691  0.63241431  1
  Na  Na87  1  0.88982982  0.25039805  0.88267220  1
  Na  Na88  1  0.89008954  0.58241613  0.13107447  1
  Na  Na89  1  0.89068972  0.58123856  0.38195460  1
  Na  Na90  1  0.88998190  0.58281847  0.63264132  1
  Na  Na91  1  0.88959783  0.58284950  0.88200280  1
  Na  Na92  1  0.89101801  0.91681371  0.13022038  1
  Na  Na93  1  0.89071614  0.91552721  0.38159854  1
  Na  Na94  1  0.89080521  0.91539977  0.63251859  1
  Na  Na95  1  0.89061549  0.91595296  0.88057300  1
  Mn  Mn96  1  -0.00050431  0.66488482  0.24987483  1
  Mn  Mn97  1  0.50011450  0.00024728  -0.00002969  1
  Mn  Mn98  1  0.50051714  0.16620072  0.50019101  1
  Mn  Mn99  1  0.75008832  -0.00017380  0.87482459  1
  Mn  Mn100  1  0.24959506  0.00163953  0.87430853  1
  Mn  Mn101  1  0.24906910  0.33341563  0.62492823  1
  Mn  Mn102  1  0.75100248  0.83187798  0.12392543  1
  Mn  Mn103  1  0.49956631  0.33227542  0.24949634  1
  Mn  Mn104  1  0.49981968  0.50078350  0.74931840  1
  Mn  Mn105  1  0.74982988  -0.00064522  0.62572904  1
  Mn  Mn106  1  0.50011592  0.66707741  -0.00031572  1
  Mn  Mn107  1  0.00058936  0.00086417  -0.00008771  1
  Mn  Mn108  1  0.00083399  0.83276641  -0.00041504  1
  Mn  Mn109  1  0.24998744  0.83341011  0.37437081  1
  Mn  Mn110  1  -0.00009585  0.83247533  0.25073489  1
  Mn  Mn111  1  0.24918181  0.66568628  0.37518058  1
  Mn  Mn112  1  0.75036393  0.83205796  0.37441567  1
  Mn  Mn113  1  0.24941745  0.83407983  0.12495666  1
  Mn  Mn114  1  0.49993575  0.33280314  -0.00007669  1
  Mn  Mn115  1  0.75050053  -0.00067378  0.37516375  1
  Mn  Mn116  1  0.50053644  0.00156679  0.75090333  1
  Mn  Mn117  1  0.25015068  0.66734119  0.62422302  1
  Mn  Mn118  1  0.00094358  0.00069009  0.24992452  1
  Mn  Mn119  1  0.00003870  0.49981582  -0.00012830  1
  Mn  Mn120  1  0.00003509  0.16735676  0.74968473  1
  Mn  Mn121  1  0.75028960  0.49920949  0.37536250  1
  Mn  Mn122  1  0.50082787  0.33364854  0.50022568  1
  Mn  Mn123  1  0.50049348  0.66660027  0.24973055  1
  Mn  Mn124  1  0.25050096  0.49879649  0.12392824  1
  Mn  Mn125  1  -0.00047833  0.49955330  0.75013657  1
  Mn  Mn126  1  0.75024739  0.16629817  0.37510828  1
  Mn  Mn127  1  0.49990350  0.66760939  0.74971714  1
  Mn  Mn128  1  -0.00034558  0.16648553  0.50038386  1
  Mn  Mn129  1  0.75040732  0.66537926  0.37537836  1
  Mn  Mn130  1  0.74994686  0.33303699  0.62646714  1
  Mn  Mn131  1  0.24994676  0.66596066  0.12493733  1
  Mn  Mn132  1  0.25061656  0.00109969  0.37488514  1
  Mn  Mn133  1  0.25062229  0.83412400  0.87495039  1
  Mn  Mn134  1  0.75043235  0.33297805  0.37559252  1
  Mn  Mn135  1  0.50019480  0.83452800  0.74891840  1
  Mn  Mn136  1  0.50025741  0.49972019  0.25010424  1
  Mn  Mn137  1  0.49991711  0.83372294  0.25009730  1
  Mn  Mn138  1  0.49895042  0.33342237  0.75010441  1
  Mn  Mn139  1  0.24918339  0.50029565  0.62513020  1
  Mn  Mn140  1  0.24922354  0.16872016  0.87616319  1
  Mn  Mn141  1  -0.00005216  0.83284400  0.50069453  1
  Mn  Mn142  1  0.24974766  0.00139723  0.62466614  1
  Mn  Mn143  1  0.75140086  0.00029157  0.12373317  1
  Fe  Fe144  1  0.25027934  0.49899830  0.37415610  1
  Fe  Fe145  1  0.25050960  0.00099449  0.12499508  1
  Fe  Fe146  1  0.00002872  0.33332884  0.25014729  1
  Fe  Fe147  1  0.24933040  0.16694148  0.37428676  1
  Fe  Fe148  1  0.74996631  0.66558471  0.12408944  1
  Fe  Fe149  1  0.24971783  0.16758719  0.12515668  1
  Fe  Fe150  1  -0.00070927  0.33342831  0.75027095  1
  Fe  Fe151  1  0.74983514  0.66600966  0.87446770  1
  Fe  Fe152  1  0.50010750  0.83422677  0.49934857  1
  Fe  Fe153  1  0.00020130  0.66641669  -0.00016628  1
  Fe  Fe154  1  0.75016246  0.16654578  0.62618446  1
  Fe  Fe155  1  0.00005542  0.33293906  0.49945032  1
  Fe  Fe156  1  0.24946621  0.33327217  0.12554620  1
  Fe  Fe157  1  0.75017230  0.49998204  0.87585938  1
  Fe  Fe158  1  -0.00048231  0.16770950  -0.00031343  1
  Fe  Fe159  1  0.24980771  0.83407684  0.62496182  1
  Fe  Fe160  1  0.74978438  0.66582194  0.62624844  1
  Fe  Fe161  1  0.74924741  0.49982734  0.62666925  1
  Fe  Fe162  1  0.24938300  0.66752850  0.87444650  1
  Fe  Fe163  1  -0.00052053  0.00040395  0.75024376  1
  Fe  Fe164  1  -0.00074435  0.66580438  0.50049618  1
  Fe  Fe165  1  0.24973314  0.16789404  0.62483829  1
  Fe  Fe166  1  0.75005851  0.33362640  0.12443025  1
  Fe  Fe167  1  0.00021777  0.83306144  0.74984473  1
  Fe  Fe168  1  0.50032767  0.49989825  -0.00025402  1
  Fe  Fe169  1  0.75019971  0.16719961  0.12512098  1
  Fe  Fe170  1  0.50105808  -0.00014482  0.24978589  1
  Fe  Fe171  1  -0.00062365  0.33360852  0.00079774  1
  Fe  Fe172  1  -0.00019580  -0.00034256  0.50014859  1
  Fe  Fe173  1  0.49996514  0.66705454  0.49944812  1
  Fe  Fe174  1  0.75031882  0.49947724  0.12451909  1
  Fe  Fe175  1  0.24998746  0.33269715  0.37470047  1
  Fe  Fe176  1  0.50058246  0.83375993  0.00001460  1
  Fe  Fe177  1  0.24949991  0.50047489  0.87504449  1
  Fe  Fe178  1  0.75041836  0.83225443  0.87430842  1
  Fe  Fe179  1  0.75026920  0.83233637  0.62518214  1
  Fe  Fe180  1  -0.00048778  0.49905144  0.50053336  1
  Fe  Fe181  1  0.75009712  0.33348787  0.87588412  1
  Fe  Fe182  1  0.25001547  0.33392581  0.87504761  1
  Fe  Fe183  1  0.75003072  0.16715672  0.87582363  1
  Fe  Fe184  1  0.49915624  0.50031795  0.49961476  1
  Fe  Fe185  1  0.49977179  0.00041670  0.49963076  1
  Fe  Fe186  1  0.50062094  0.16570503  0.25076804  1
  Fe  Fe187  1  0.00039953  0.49896072  0.25077710  1
  Fe  Fe188  1  -0.00047396  0.16711458  0.24985909  1
  Fe  Fe189  1  0.49976275  0.16715643  0.75004475  1
  Fe  Fe190  1  0.49979861  0.16637300  0.00083561  1
  Fe  Fe191  1  0.00016524  0.66594304  0.74979099  1
  P  P192  1  0.04081093  0.25045828  0.10230529  1
  P  P193  1  0.04115040  0.25004559  0.35157992  1
  P  P194  1  0.04194529  0.25163181  0.60253856  1
  P  P195  1  0.04133591  0.25178751  0.85333365  1
  P  P196  1  0.04240917  0.58379449  0.10231427  1
  P  P197  1  0.04190268  0.58095754  0.35358139  1
  P  P198  1  0.04084024  0.58314527  0.60200974  1
  P  P199  1  0.04170592  0.58413666  0.85252821  1
  P  P200  1  0.04340940  0.91702127  0.10288360  1
  P  P201  1  0.04289583  0.91660737  0.35384534  1
  P  P202  1  0.04181526  0.91799649  0.60347333  1
  P  P203  1  0.04145402  0.91707266  0.85115028  1
  P  P204  1  0.54209462  0.24806526  0.10311159  1
  P  P205  1  0.54274904  0.24853957  0.35237244  1
  P  P206  1  0.54290975  0.24993403  0.60392516  1
  P  P207  1  0.54154635  0.24871653  0.85309230  1
  P  P208  1  0.54276932  0.58198869  0.10186513  1
  P  P209  1  0.54279577  0.58347687  0.35407069  1
  P  P210  1  0.54106468  0.58383387  0.60102872  1
  P  P211  1  0.54247455  0.58359486  0.85328032  1
  P  P212  1  0.54301802  0.91584046  0.10256817  1
  P  P213  1  0.54259452  0.91799567  0.35308476  1
  P  P214  1  0.54158103  0.91771150  0.60117058  1
  P  P215  1  0.54337509  0.91710192  0.85346956  1
  P  P216  1  0.45904574  0.08317452  0.14839884  1
  P  P217  1  0.45803802  0.08214660  0.39669568  1
  P  P218  1  0.45761381  0.08468986  0.64744804  1
  P  P219  1  0.45730733  0.08535306  0.89781020  1
  P  P220  1  0.45747934  0.41661621  0.14603104  1
  P  P221  1  0.45779532  0.41715604  0.39741493  1
  P  P222  1  0.45668044  0.41736186  0.64611829  1
  P  P223  1  0.45785314  0.41785110  0.89758961  1
  P  P224  1  0.45736901  0.75030284  0.14631954  1
  P  P225  1  0.45847741  0.75048848  0.39830022  1
  P  P226  1  0.45751917  0.75065472  0.64525143  1
  P  P227  1  0.45789643  0.75226514  0.89738972  1
  P  P228  1  0.95830853  0.08548500  0.14690917  1
  P  P229  1  0.95783662  0.08229377  0.39753130  1
  P  P230  1  0.95751495  0.08200179  0.64759538  1
  P  P231  1  0.95774507  0.08473322  0.89719221  1
  P  P232  1  0.95903414  0.41660826  0.14850028  1
  P  P233  1  0.95844135  0.41588255  0.39812301  1
  P  P234  1  0.95742740  0.41517977  0.64725163  1
  P  P235  1  0.95749979  0.41505263  0.89776946  1
  P  P236  1  0.95748045  0.74918896  0.14639466  1
  P  P237  1  0.95714623  0.74781791  0.39828888  1
  P  P238  1  0.95879669  0.74909006  0.64851149  1
  P  P239  1  0.95858699  0.74833620  0.89638733  1
  P  P240  1  0.20880845  0.08410387  0.22656972  1
  P  P241  1  0.20773565  0.08550450  0.47746097  1
  P  P242  1  0.20701817  0.08621954  0.72727448  1
  P  P243  1  0.20711327  0.08427386  0.97914445  1
  P  P244  1  0.20794878  0.41511304  0.22800453  1
  P  P245  1  0.20829998  0.41632537  0.47585182  1
  P  P246  1  0.20683142  0.41732257  0.72903341  1
  P  P247  1  0.20819677  0.41629877  0.97672122  1
  P  P248  1  0.20681618  0.74949328  0.22797172  1
  P  P249  1  0.20714839  0.75062436  0.47845084  1
  P  P250  1  0.20798782  0.75137636  0.72745713  1
  P  P251  1  0.20733063  0.74952088  0.97695835  1
  P  P252  1  0.70850021  0.08394631  0.22688549  1
  P  P253  1  0.70752987  0.08277807  0.47897632  1
  P  P254  1  0.70794958  0.08468079  0.72858060  1
  P  P255  1  0.70832621  0.08492776  0.97783048  1
  P  P256  1  0.70885949  0.41653358  0.22616738  1
  P  P257  1  0.70749497  0.41640697  0.47939965  1
  P  P258  1  0.70764261  0.41789162  0.72937969  1
  P  P259  1  0.70905355  0.41679029  0.97765288  1
  P  P260  1  0.70787601  0.74768772  0.22659147  1
  P  P261  1  0.70799153  0.74909618  0.47909488  1
  P  P262  1  0.70855882  0.74970052  0.72721154  1
  P  P263  1  0.70907600  0.74902035  0.97621164  1
  P  P264  1  0.29107527  0.25145056  0.02355040  1
  P  P265  1  0.29102843  0.24972353  0.27255047  1
  P  P266  1  0.29178847  0.24917295  0.52154866  1
  P  P267  1  0.29200387  0.25185545  0.77248663  1
  P  P268  1  0.29222935  0.58321647  0.02021591  1
  P  P269  1  0.29257524  0.58144259  0.27226795  1
  P  P270  1  0.29193990  0.58244057  0.52095528  1
  P  P271  1  0.29113883  0.58414292  0.77342844  1
  P  P272  1  0.29238309  0.91867632  0.02254392  1
  P  P273  1  0.29307387  0.91772688  0.27122201  1
  P  P274  1  0.29211206  0.91628241  0.52247577  1
  P  P275  1  0.29262515  0.91773595  0.77100610  1
  P  P276  1  0.79117998  0.25020223  0.02300382  1
  P  P277  1  0.79265115  0.25020518  0.27114269  1
  P  P278  1  0.79260572  0.24844163  0.52373377  1
  P  P279  1  0.79129067  0.24993611  0.77419220  1
  P  P280  1  0.79152017  0.58237864  0.02243370  1
  P  P281  1  0.79302157  0.58220638  0.27111802  1
  P  P282  1  0.79122752  0.58222281  0.52485676  1
  P  P283  1  0.79106531  0.58259589  0.77328534  1
  P  P284  1  0.79345222  0.91569364  0.02043463  1
  P  P285  1  0.79361189  0.91607880  0.27136759  1
  P  P286  1  0.79266663  0.91472724  0.52318279  1
  P  P287  1  0.79199788  0.91456936  0.77208380  1
  O  O288  1  0.03582695  0.25014420  0.18219662  1
  O  O289  1  0.03642498  0.25046977  0.43153373  1
  O  O290  1  0.03663109  0.25173945  0.68247754  1
  O  O291  1  0.03575134  0.25131849  0.93319929  1
  O  O292  1  0.03737046  0.58270635  0.18223310  1
  O  O293  1  0.03624572  0.58130777  0.43341760  1
  O  O294  1  0.03602551  0.58320877  0.68202207  1
  O  O295  1  0.03670191  0.58428847  0.93245048  1
  O  O296  1  0.03837702  0.91699961  0.18285458  1
  O  O297  1  0.03739483  0.91695816  0.43381730  1
  O  O298  1  0.03610334  0.91789473  0.68334581  1
  O  O299  1  0.03700024  0.91664876  0.93117594  1
  O  O300  1  0.53693978  0.24796707  0.18308125  1
  O  O301  1  0.53805692  0.24893827  0.43239245  1
  O  O302  1  0.53725158  0.24976928  0.68383260  1
  O  O303  1  0.53613096  0.24852724  0.93306379  1
  O  O304  1  0.53806481  0.58229793  0.18189502  1
  O  O305  1  0.53709259  0.58347720  0.43397809  1
  O  O306  1  0.53616461  0.58411540  0.68104917  1
  O  O307  1  0.53748261  0.58290456  0.93323860  1
  O  O308  1  0.53790500  0.91642779  0.18254087  1
  O  O309  1  0.53680213  0.91789666  0.43294835  1
  O  O310  1  0.53694270  0.91771964  0.68120833  1
  O  O311  1  0.53828037  0.91641147  0.93341885  1
  O  O312  1  0.46384525  0.08374741  0.06838680  1
  O  O313  1  0.46377314  0.08238339  0.31683143  1
  O  O314  1  0.46281905  0.08364392  0.56751492  1
  O  O315  1  0.46240417  0.08572626  0.81784887  1
  O  O316  1  0.46304349  0.41706392  0.06608663  1
  O  O317  1  0.46261293  0.41666345  0.31738001  1
  O  O318  1  0.46195003  0.41774910  0.56614244  1
  O  O319  1  0.46240843  0.41765230  0.81757265  1
  O  O320  1  0.46262518  0.75074828  0.06636625  1
  O  O321  1  0.46337517  0.75052095  0.31828202  1
  O  O322  1  0.46274813  0.75038367  0.56532961  1
  O  O323  1  0.46301309  0.75198203  0.81736766  1
  O  O324  1  0.96358177  0.08586525  0.06695024  1
  O  O325  1  0.96330367  0.08326270  0.31760292  1
  O  O326  1  0.96270877  0.08180638  0.56764336  1
  O  O327  1  0.96298514  0.08424871  0.81721992  1
  O  O328  1  0.96369417  0.41613183  0.06853700  1
  O  O329  1  0.96335322  0.41656527  0.31822527  1
  O  O330  1  0.96279746  0.41551706  0.56738083  1
  O  O331  1  0.96224213  0.41496730  0.81781803  1
  O  O332  1  0.96305855  0.74903788  0.06644845  1
  O  O333  1  0.96238683  0.74788580  0.31831953  1
  O  O334  1  0.96335547  0.74901000  0.56850013  1
  O  O335  1  0.96418229  0.74855217  0.81650485  1
  O  O336  1  0.21244390  0.08369597  0.05904355  1
  O  O337  1  0.21361303  0.08468827  0.30655649  1
  O  O338  1  0.21291088  0.08567567  0.55741650  1
  O  O339  1  0.21203504  0.08593174  0.80727060  1
  O  O340  1  0.21326851  0.41595011  0.05669672  1
  O  O341  1  0.21339442  0.41543334  0.30783462  1
  O  O342  1  0.21239363  0.41614257  0.55591398  1
  O  O343  1  0.21234874  0.41745339  0.80890365  1
  O  O344  1  0.21222546  0.74966979  0.05694586  1
  O  O345  1  0.21196547  0.74936246  0.30795502  1
  O  O346  1  0.21262192  0.75132337  0.55843372  1
  O  O347  1  0.21343064  0.75059418  0.80742050  1
  O  O348  1  0.71394874  0.08499545  0.05770774  1
  O  O349  1  0.71360535  0.08335739  0.30688565  1
  O  O350  1  0.71251809  0.08306451  0.55897788  1
  O  O351  1  0.71348940  0.08466773  0.80850505  1
  O  O352  1  0.71414859  0.41663178  0.05757205  1
  O  O353  1  0.71327982  0.41613800  0.30623280  1
  O  O354  1  0.71217704  0.41677260  0.55940592  1
  O  O355  1  0.71330874  0.41806826  0.80923352  1
  O  O356  1  0.71403506  0.74820479  0.05613847  1
  O  O357  1  0.71301970  0.74803548  0.30658839  1
  O  O358  1  0.71306639  0.74945556  0.55903302  1
  O  O359  1  0.71347972  0.74985416  0.80713263  1
  O  O360  1  0.28623111  0.25020530  0.19263788  1
  O  O361  1  0.28654461  0.24920927  0.44165731  1
  O  O362  1  0.28670567  0.25093889  0.69256518  1
  O  O363  1  0.28631400  0.25186710  0.94358664  1
  O  O364  1  0.28768011  0.58163029  0.19221106  1
  O  O365  1  0.28680145  0.58181098  0.44102377  1
  O  O366  1  0.28622574  0.58403804  0.69337515  1
  O  O367  1  0.28652856  0.58371625  0.94031648  1
  O  O368  1  0.28776450  0.91820276  0.19126518  1
  O  O369  1  0.28718590  0.91658139  0.44249328  1
  O  O370  1  0.28725551  0.91723204  0.69104525  1
  O  O371  1  0.28721367  0.91852422  0.94252857  1
  O  O372  1  0.78740820  0.25031948  0.19122177  1
  O  O373  1  0.78767218  0.24885847  0.44371998  1
  O  O374  1  0.78652771  0.24978854  0.69422854  1
  O  O375  1  0.78617162  0.25038281  0.94310467  1
  O  O376  1  0.78799020  0.58211354  0.19119688  1
  O  O377  1  0.78694146  0.58242597  0.44480563  1
  O  O378  1  0.78590311  0.58264582  0.69341803  1
  O  O379  1  0.78615251  0.58216683  0.94255078  1
  O  O380  1  0.78882445  0.91613460  0.19131557  1
  O  O381  1  0.78786056  0.91506288  0.44313793  1
  O  O382  1  0.78634444  0.91453280  0.69216888  1
  O  O383  1  0.78784408  0.91539054  0.94049891  1
  O  O384  1  0.22685868  0.25139405  0.05937882  1
  O  O385  1  0.22688955  0.24941812  0.30861339  1
  O  O386  1  0.22754876  0.24872766  0.55759321  1
  O  O387  1  0.22768716  0.25283101  0.80818760  1
  O  O388  1  0.22814508  0.58279415  0.05627751  1
  O  O389  1  0.22812642  0.58096866  0.30749633  1
  O  O390  1  0.22759460  0.58337289  0.55624925  1
  O  O391  1  0.22693067  0.58406365  0.80918409  1
  O  O392  1  0.22807371  0.91929573  0.05805483  1
  O  O393  1  0.22871968  0.91757528  0.30651700  1
  O  O394  1  0.22780516  0.91656165  0.55796036  1
  O  O395  1  0.22829813  0.91745134  0.80638336  1
  O  O396  1  0.72719620  0.24973604  0.05934084  1
  O  O397  1  0.72840615  0.25007566  0.30686043  1
  O  O398  1  0.72822968  0.24821441  0.55913076  1
  O  O399  1  0.72716228  0.24963752  0.81011917  1
  O  O400  1  0.72757006  0.58236606  0.05910518  1
  O  O401  1  0.72866055  0.58218005  0.30659550  1
  O  O402  1  0.72688206  0.58195234  0.56022385  1
  O  O403  1  0.72708606  0.58213939  0.80963129  1
  O  O404  1  0.72927897  0.91599245  0.05612465  1
  O  O405  1  0.72907480  0.91598155  0.30622222  1
  O  O406  1  0.72823203  0.91455118  0.55842183  1
  O  O407  1  0.72792066  0.91463927  0.80820542  1
  O  O408  1  0.27296734  0.08388070  0.19063991  1
  O  O409  1  0.27201498  0.08599573  0.44173153  1
  O  O410  1  0.27138551  0.08627017  0.69183166  1
  O  O411  1  0.27135298  0.08465778  0.94347027  1
  O  O412  1  0.27208739  0.41461844  0.19182010  1
  O  O413  1  0.27263384  0.41671581  0.44054480  1
  O  O414  1  0.27100269  0.41703305  0.69318291  1
  O  O415  1  0.27226514  0.41636193  0.94048995  1
  O  O416  1  0.27124582  0.74994081  0.19294307  1
  O  O417  1  0.27143681  0.74982584  0.44302815  1
  O  O418  1  0.27213477  0.75188329  0.69148288  1
  O  O419  1  0.27178679  0.74921708  0.94178119  1
  O  O420  1  0.77281593  0.08468036  0.19134471  1
  O  O421  1  0.77194086  0.08284872  0.44378276  1
  O  O422  1  0.77210403  0.08425396  0.69254271  1
  O  O423  1  0.77243848  0.08477929  0.94175262  1
  O  O424  1  0.77314851  0.41717183  0.19073657  1
  O  O425  1  0.77201562  0.41616577  0.44441717  1
  O  O426  1  0.77169471  0.41809258  0.69301637  1
  O  O427  1  0.77301828  0.41706989  0.94127736  1
  O  O428  1  0.77223060  0.74716972  0.19109163  1
  O  O429  1  0.77226165  0.74910595  0.44345556  1
  O  O430  1  0.77270500  0.74988937  0.69115827  1
  O  O431  1  0.77313303  0.74935537  0.94003932  1
  O  O432  1  0.02249509  0.08577414  0.18284220  1
  O  O433  1  0.02200667  0.08201266  0.43356418  1
  O  O434  1  0.02179210  0.08222133  0.68328172  1
  O  O435  1  0.02198951  0.08553777  0.93288731  1
  O  O436  1  0.02315120  0.41703122  0.18448426  1
  O  O437  1  0.02257218  0.41545948  0.43427277  1
  O  O438  1  0.02156433  0.41495576  0.68342182  1
  O  O439  1  0.02181815  0.41505650  0.93326454  1
  O  O440  1  0.02164440  0.74908621  0.18218366  1
  O  O441  1  0.02144331  0.74770527  0.43392721  1
  O  O442  1  0.02300463  0.74894928  0.68416824  1
  O  O443  1  0.02264900  0.74786641  0.93278033  1
  O  O444  1  0.52323379  0.08288307  0.18434434  1
  O  O445  1  0.52214624  0.08146926  0.43295995  1
  O  O446  1  0.52192971  0.08560968  0.68321246  1
  O  O447  1  0.52170343  0.08513627  0.93325644  1
  O  O448  1  0.52174475  0.41610687  0.18155388  1
  O  O449  1  0.52216067  0.41773493  0.43267368  1
  O  O450  1  0.52101646  0.41679938  0.68143434  1
  O  O451  1  0.52228989  0.41728591  0.93266615  1
  O  O452  1  0.52177648  0.75023593  0.18152027  1
  O  O453  1  0.52263831  0.75005071  0.43412407  1
  O  O454  1  0.52183771  0.75056069  0.68084816  1
  O  O455  1  0.52226274  0.75213112  0.93284410  1
  O  O456  1  0.47779056  0.24838281  0.06750281  1
  O  O457  1  0.47825024  0.24817338  0.31730462  1
  O  O458  1  0.47872500  0.25015700  0.56820807  1
  O  O459  1  0.47734368  0.24855603  0.81715771  1
  O  O460  1  0.47832843  0.58242684  0.06679430  1
  O  O461  1  0.47856543  0.58344385  0.31827099  1
  O  O462  1  0.47692303  0.58437432  0.56512891  1
  O  O463  1  0.47806011  0.58402970  0.81816272  1
  O  O464  1  0.47869631  0.91540042  0.06688701  1
  O  O465  1  0.47853451  0.91867066  0.31668229  1
  O  O466  1  0.47736080  0.91794857  0.56544700  1
  O  O467  1  0.47897405  0.91768214  0.81827754  1
  O  O468  1  0.97674424  0.25044292  0.06590892  1
  O  O469  1  0.97700793  0.24952626  0.31566885  1
  O  O470  1  0.97772010  0.25169402  0.56672212  1
  O  O471  1  0.97727096  0.25163720  0.81696526  1
  O  O472  1  0.97807728  0.58418090  0.06664842  1
  O  O473  1  0.97783175  0.58036111  0.31721571  1
  O  O474  1  0.97663937  0.58335323  0.56622177  1
  O  O475  1  0.97743011  0.58419540  0.81685835  1
  O  O476  1  0.97904479  0.91671719  0.06772221  1
  O  O477  1  0.97867466  0.91681742  0.31819674  1
  O  O478  1  0.97777865  0.91795587  0.56699831  1
  O  O479  1  0.97718582  0.91706548  0.81565456  1
  O  O480  1  0.07158298  0.31431673  0.07408731  1
  O  O481  1  0.07155214  0.31378953  0.32272483  1
  O  O482  1  0.07317229  0.31464198  0.57353369  1
  O  O483  1  0.07211507  0.31530101  0.82473459  1
  O  O484  1  0.07306625  0.64748875  0.07403340  1
  O  O485  1  0.07296090  0.64456128  0.32541732  1
  O  O486  1  0.07213520  0.64647789  0.57373953  1
  O  O487  1  0.07291277  0.64713747  0.82343737  1
  O  O488  1  0.07407470  0.98072695  0.07470205  1
  O  O489  1  0.07453826  0.97968968  0.32545678  1
  O  O490  1  0.07279658  0.98133971  0.57462457  1
  O  O491  1  0.07226176  0.98092453  0.82342711  1
  O  O492  1  0.57324136  0.31175466  0.07523583  1
  O  O493  1  0.57360459  0.31219773  0.32420238  1
  O  O494  1  0.57418801  0.31347188  0.57603470  1
  O  O495  1  0.57235822  0.31275855  0.82569404  1
  O  O496  1  0.57416322  0.64535280  0.07385927  1
  O  O497  1  0.57393929  0.64688121  0.32550685  1
  O  O498  1  0.57251948  0.64716217  0.57303376  1
  O  O499  1  0.57341102  0.64733973  0.82531850  1
  O  O500  1  0.57403431  0.97938138  0.07435587  1
  O  O501  1  0.57404291  0.98101646  0.32418477  1
  O  O502  1  0.57258489  0.98132966  0.57331156  1
  O  O503  1  0.57439911  0.98089683  0.82577760  1
  O  O504  1  0.42840802  0.01920861  0.17611621  1
  O  O505  1  0.42656216  0.01908816  0.42545012  1
  O  O506  1  0.42687766  0.02115518  0.67609118  1
  O  O507  1  0.42648386  0.02138764  0.92543009  1
  O  O508  1  0.42629409  0.35294353  0.17381440  1
  O  O509  1  0.42698051  0.35338925  0.42527155  1
  O  O510  1  0.42542703  0.35392958  0.67426418  1
  O  O511  1  0.42645421  0.35437464  0.92536414  1
  O  O512  1  0.42653786  0.68651913  0.17437844  1
  O  O513  1  0.42715861  0.68704240  0.42618218  1
  O  O514  1  0.42619811  0.68745011  0.67412784  1
  O  O515  1  0.42671530  0.68863781  0.92505293  1
  O  O516  1  0.92757746  0.02139158  0.17425829  1
  O  O517  1  0.92708288  0.01855025  0.42557429  1
  O  O518  1  0.92653442  0.01884523  0.67663162  1
  O  O519  1  0.92697520  0.02096147  0.92520835  1
  O  O520  1  0.92846991  0.35293506  0.17726491  1
  O  O521  1  0.92721421  0.35227731  0.42612047  1
  O  O522  1  0.92630674  0.35190009  0.67597138  1
  O  O523  1  0.92648296  0.35203007  0.92707225  1
  O  O524  1  0.92603029  0.68593015  0.17453144  1
  O  O525  1  0.92637438  0.68423468  0.42668686  1
  O  O526  1  0.92751187  0.68574225  0.67685321  1
  O  O527  1  0.92739312  0.68504723  0.92510782  1
  O  O528  1  0.17782210  0.02043349  0.19873303  1
  O  O529  1  0.17727410  0.02137527  0.44981716  1
  O  O530  1  0.17607543  0.02255073  0.69938135  1
  O  O531  1  0.17591463  0.02120171  0.94995666  1
  O  O532  1  0.17677506  0.35174240  0.19948570  1
  O  O533  1  0.17820730  0.35227362  0.44734723  1
  O  O534  1  0.17543009  0.35417051  0.70042925  1
  O  O535  1  0.17702775  0.35295566  0.94839652  1
  O  O536  1  0.17604763  0.68580462  0.19999500  1
  O  O537  1  0.17579493  0.68697000  0.45097483  1
  O  O538  1  0.17680361  0.68788301  0.69937663  1
  O  O539  1  0.17651131  0.68613894  0.94824882  1
  O  O540  1  0.67776682  0.02026904  0.19872792  1
  O  O541  1  0.67689547  0.01903272  0.45069485  1
  O  O542  1  0.67657138  0.02101034  0.70113669  1
  O  O543  1  0.67719055  0.02114572  0.95031893  1
  O  O544  1  0.67868152  0.35258134  0.19748391  1
  O  O545  1  0.67667157  0.35275128  0.45111228  1
  O  O546  1  0.67660987  0.35410001  0.70173240  1
  O  O547  1  0.67847642  0.35290556  0.94916487  1
  O  O548  1  0.67693239  0.68428452  0.19815019  1
  O  O549  1  0.67701591  0.68551166  0.45088311  1
  O  O550  1  0.67822639  0.68558834  0.69890773  1
  O  O551  1  0.67831990  0.68547518  0.94739934  1
  O  O552  1  0.32232398  0.31460442  0.05213655  1
  O  O553  1  0.32161337  0.31336289  0.30159246  1
  O  O554  1  0.32253940  0.31298299  0.54970255  1
  O  O555  1  0.32317325  0.31530724  0.80058752  1
  O  O556  1  0.32349360  0.64644230  0.04890589  1
  O  O557  1  0.32324353  0.64529145  0.30013123  1
  O  O558  1  0.32335818  0.64592821  0.54868732  1
  O  O559  1  0.32199562  0.64797746  0.80110494  1
  O  O560  1  0.32358501  0.98195336  0.05089950  1
  O  O561  1  0.32420938  0.98092182  0.29996595  1
  O  O562  1  0.32341512  0.97987178  0.55007233  1
  O  O563  1  0.32322543  0.98170561  0.79879121  1
  O  O564  1  0.82153759  0.31419417  0.05161631  1
  O  O565  1  0.82367871  0.31362678  0.29980966  1
  O  O566  1  0.82345432  0.31207131  0.55185371  1
  O  O567  1  0.82138449  0.31411875  0.80249807  1
  O  O568  1  0.82230331  0.64618106  0.05045139  1
  O  O569  1  0.82410967  0.64551781  0.29986811  1
  O  O570  1  0.82145208  0.64614309  0.55350130  1
  O  O571  1  0.82143081  0.64663030  0.80171637  1
  O  O572  1  0.82467334  0.97934389  0.04813150  1
  O  O573  1  0.82445673  0.97959034  0.29971095  1
  O  O574  1  0.82357573  0.97833339  0.55128401  1
  O  O575  1  0.82308960  0.97841364  0.79944552  1
  O  O576  1  0.42819592  0.14663195  0.17707913  1
  O  O577  1  0.42728317  0.14591901  0.42480501  1
  O  O578  1  0.42663655  0.14829574  0.67533748  1
  O  O579  1  0.42633259  0.14838217  0.92709466  1
  O  O580  1  0.42627468  0.47981482  0.17445472  1
  O  O581  1  0.42698229  0.48072859  0.42562332  1
  O  O582  1  0.42570966  0.48077079  0.67455208  1
  O  O583  1  0.42772042  0.48164539  0.92617206  1
  O  O584  1  0.42602036  0.81334542  0.17498105  1
  O  O585  1  0.42818651  0.81457103  0.42624214  1
  O  O586  1  0.42658095  0.81418184  0.67356049  1
  O  O587  1  0.42733103  0.81585069  0.92576734  1
  O  O588  1  0.92707498  0.14849978  0.17586690  1
  O  O589  1  0.92662973  0.14567710  0.42586267  1
  O  O590  1  0.92659583  0.14589007  0.67512726  1
  O  O591  1  0.92667291  0.14811027  0.92556410  1
  O  O592  1  0.92808276  0.48023940  0.17639807  1
  O  O593  1  0.92793291  0.47940099  0.42752897  1
  O  O594  1  0.92650626  0.47879210  0.67564292  1
  O  O595  1  0.92679483  0.47900482  0.92547759  1
  O  O596  1  0.92658227  0.81284948  0.17445218  1
  O  O597  1  0.92623505  0.81150308  0.42602900  1
  O  O598  1  0.92859448  0.81309630  0.67700804  1
  O  O599  1  0.92762648  0.81207712  0.92423369  1
  O  O600  1  0.07186576  0.18717014  0.07344192  1
  O  O601  1  0.07222402  0.18651217  0.32350021  1
  O  O602  1  0.07260708  0.18761380  0.57496833  1
  O  O603  1  0.07282944  0.18845638  0.82512517  1
  O  O604  1  0.07348963  0.52040078  0.07376507  1
  O  O605  1  0.07305025  0.51769402  0.32483917  1
  O  O606  1  0.07106408  0.51904583  0.57375310  1
  O  O607  1  0.07235561  0.52012695  0.82493457  1
  O  O608  1  0.07464442  0.85373835  0.07464826  1
  O  O609  1  0.07353585  0.85267205  0.32611795  1
  O  O610  1  0.07308275  0.85434927  0.57579142  1
  O  O611  1  0.07196118  0.85331365  0.82260928  1
  O  O612  1  0.57284806  0.18475161  0.07432573  1
  O  O613  1  0.57345889  0.18492105  0.32415797  1
  O  O614  1  0.57411842  0.18667591  0.57561726  1
  O  O615  1  0.57269435  0.18561166  0.82437537  1
  O  O616  1  0.57289537  0.51811475  0.07339189  1
  O  O617  1  0.57407890  0.52012444  0.32575689  1
  O  O618  1  0.57115085  0.51956151  0.57336033  1
  O  O619  1  0.57360598  0.52047433  0.82447460  1
  O  O620  1  0.57376575  0.85224027  0.07425089  1
  O  O621  1  0.57345864  0.85413445  0.32529732  1
  O  O622  1  0.57192400  0.85376642  0.57291129  1
  O  O623  1  0.57443044  0.85406885  0.82440048  1
  O  O624  1  0.32136617  0.18736675  0.05181025  1
  O  O625  1  0.32217743  0.18625698  0.30084948  1
  O  O626  1  0.32298026  0.18606098  0.55054843  1
  O  O627  1  0.32266215  0.18834095  0.80120054  1
  O  O628  1  0.32357948  0.51973892  0.04815229  1
  O  O629  1  0.32342673  0.51796712  0.30060037  1
  O  O630  1  0.32267403  0.51911707  0.54986515  1
  O  O631  1  0.32185824  0.52041397  0.80161007  1
  O  O632  1  0.32293767  0.85466303  0.05011862  1
  O  O633  1  0.32407196  0.85403137  0.29907278  1
  O  O634  1  0.32243834  0.85255575  0.55095275  1
  O  O635  1  0.32428632  0.85481111  0.79964779  1
  O  O636  1  0.82265885  0.18696386  0.05129343  1
  O  O637  1  0.82390641  0.18691700  0.29963692  1
  O  O638  1  0.82331022  0.18486035  0.55206891  1
  O  O639  1  0.82277617  0.18675459  0.80251135  1
  O  O640  1  0.82268855  0.51894372  0.05088764  1
  O  O641  1  0.82401566  0.51888468  0.30013868  1
  O  O642  1  0.82222832  0.51875619  0.55306894  1
  O  O643  1  0.82270909  0.51956247  0.80185382  1
  O  O644  1  0.82468558  0.85242195  0.04874211  1
  O  O645  1  0.82446073  0.85248456  0.29952652  1
  O  O646  1  0.82341578  0.85120447  0.55162299  1
  O  O647  1  0.82302584  0.85122014  0.80049594  1
  O  O648  1  0.17819921  0.14778837  0.19782296  1
  O  O649  1  0.17631447  0.14838894  0.44844175  1
  O  O650  1  0.17637316  0.14982947  0.69905739  1
  O  O651  1  0.17591220  0.14789799  0.95128171  1
  O  O652  1  0.17702378  0.47859170  0.19943612  1
  O  O653  1  0.17729706  0.47976675  0.44761435  1
  O  O654  1  0.17577408  0.48080273  0.70052361  1
  O  O655  1  0.17769322  0.48031548  0.94870662  1
  O  O656  1  0.17564263  0.81296192  0.20002063  1
  O  O657  1  0.17607314  0.81386268  0.44989158  1
  O  O658  1  0.17716765  0.81507078  0.69941247  1
  O  O659  1  0.17657371  0.81337284  0.94915744  1
  O  O660  1  0.67750983  0.14751429  0.19895217  1
  O  O661  1  0.67621977  0.14594065  0.45041088  1
  O  O662  1  0.67739599  0.14821584  0.69997203  1
  O  O663  1  0.67728834  0.14823633  0.94929102  1
  O  O664  1  0.67749757  0.47983148  0.19806800  1
  O  O665  1  0.67654847  0.47960015  0.45044651  1
  O  O666  1  0.67644336  0.48104973  0.70042403  1
  O  O667  1  0.67768435  0.48007453  0.94938189  1
  O  O668  1  0.67718429  0.81151430  0.19868213  1
  O  O669  1  0.67677727  0.81228384  0.45017048  1
  O  O670  1  0.67719830  0.81282706  0.69838832  1
  O  O671  1  0.67815746  0.81283159  0.94849975  1
