# generated using pymatgen
data_Na2MnFe(PO4)2
_symmetry_space_group_name_H-M   'P 1'
_cell_length_a   22.34711838
_cell_length_b   20.09690307
_cell_length_c   19.44594429
_cell_angle_alpha   90.04333879
_cell_angle_beta   90.00067462
_cell_angle_gamma   90.04544455
_symmetry_Int_Tables_number   1
_chemical_formula_structural   Na2MnFe(PO4)2
_chemical_formula_sum   'Na96 Mn48 Fe48 P96 O384'
_cell_volume   8733.32141377
_cell_formula_units_Z   48
loop_
 _symmetry_equiv_pos_site_id
 _symmetry_equiv_pos_as_xyz
  1  'x, y, z'
loop_
 _atom_site_type_symbol
 _atom_site_label
 _atom_site_symmetry_multiplicity
 _atom_site_fract_x
 _atom_site_fract_y
 _atom_site_fract_z
 _atom_site_occupancy
  Na  Na0  1  0.14036215  0.25040893  0.24456392  1
  Na  Na1  1  0.14059120  0.25175074  0.49294391  1
  Na  Na2  1  0.14090139  0.25080523  0.74370278  1
  Na  Na3  1  0.14110411  0.24967202  0.99324204  1
  Na  Na4  1  0.14044421  0.58209309  0.24454108  1
  Na  Na5  1  0.14030402  0.58202508  0.49370372  1
  Na  Na6  1  0.14074078  0.58272606  0.74344337  1
  Na  Na7  1  0.14030568  0.58275682  0.99323259  1
  Na  Na8  1  0.14025488  0.91770230  0.24306481  1
  Na  Na9  1  0.14003803  0.91868900  0.49366326  1
  Na  Na10  1  0.14006948  0.91694002  0.74376935  1
  Na  Na11  1  0.14030860  0.91725500  0.99322673  1
  Na  Na12  1  0.64051422  0.25096133  0.24472459  1
  Na  Na13  1  0.64065763  0.24981466  0.49382322  1
  Na  Na14  1  0.64065820  0.24952532  0.74461418  1
  Na  Na15  1  0.64090948  0.24884392  0.99409882  1
  Na  Na16  1  0.64030743  0.58291864  0.24337707  1
  Na  Na17  1  0.63983784  0.58273259  0.49348653  1
  Na  Na18  1  0.63979005  0.58352373  0.74352171  1
  Na  Na19  1  0.64039431  0.58176832  0.99382705  1
  Na  Na20  1  0.63965871  0.91556745  0.24363027  1
  Na  Na21  1  0.63956355  0.91677088  0.49408235  1
  Na  Na22  1  0.64006389  0.91691000  0.74339334  1
  Na  Na23  1  0.63995312  0.91485874  0.99290173  1
  Na  Na24  1  0.35989096  0.08340039  0.00567604  1
  Na  Na25  1  0.35987784  0.08467046  0.25625957  1
  Na  Na26  1  0.35940802  0.08433154  0.50770797  1
  Na  Na27  1  0.35923022  0.08281203  0.75672441  1
  Na  Na28  1  0.35983017  0.41607925  0.00562362  1
  Na  Na29  1  0.35986433  0.41634932  0.25733622  1
  Na  Na30  1  0.35978107  0.41723806  0.50627198  1
  Na  Na31  1  0.35961465  0.41620300  0.75636971  1
  Na  Na32  1  0.35931402  0.75050459  0.00483100  1
  Na  Na33  1  0.35962911  0.74952304  0.25648937  1
  Na  Na34  1  0.35950283  0.75013842  0.50810260  1
  Na  Na35  1  0.35927237  0.75011813  0.75581419  1
  Na  Na36  1  0.85971624  0.08174744  0.00623936  1
  Na  Na37  1  0.86021923  0.08342331  0.25656110  1
  Na  Na38  1  0.86000829  0.08330771  0.50562484  1
  Na  Na39  1  0.85911457  0.08446058  0.75507282  1
  Na  Na40  1  0.86013713  0.41721554  0.00699103  1
  Na  Na41  1  0.86034778  0.41721573  0.25736157  1
  Na  Na42  1  0.86051228  0.41696095  0.50643375  1
  Na  Na43  1  0.85996424  0.41765510  0.75621079  1
  Na  Na44  1  0.85911148  0.74913980  0.00652669  1
  Na  Na45  1  0.85943658  0.74935503  0.25485000  1
  Na  Na46  1  0.85930466  0.75095737  0.50626022  1
  Na  Na47  1  0.85930601  0.75103183  0.75626257  1
  Na  Na48  1  0.11007086  0.08350451  0.11900345  1
  Na  Na49  1  0.10937285  0.08351843  0.36765188  1
  Na  Na50  1  0.10993029  0.08423817  0.61844831  1
  Na  Na51  1  0.10995343  0.08373456  0.86765296  1
  Na  Na52  1  0.11003475  0.41634980  0.11974623  1
  Na  Na53  1  0.10997572  0.41576661  0.36870290  1
  Na  Na54  1  0.11040393  0.41673626  0.61805223  1
  Na  Na55  1  0.11039697  0.41780446  0.86817542  1
  Na  Na56  1  0.10950375  0.75004602  0.11896397  1
  Na  Na57  1  0.10929493  0.74996655  0.36912930  1
  Na  Na58  1  0.10919753  0.75156317  0.61867265  1
  Na  Na59  1  0.10936371  0.75131846  0.86885728  1
  Na  Na60  1  0.60915430  0.08206982  0.11793190  1
  Na  Na61  1  0.60923673  0.08252402  0.37076721  1
  Na  Na62  1  0.60950580  0.08240368  0.61779422  1
  Na  Na63  1  0.60995459  0.08273289  0.86891621  1
  Na  Na64  1  0.61006070  0.41647821  0.11951220  1
  Na  Na65  1  0.61040190  0.41693963  0.36889415  1
  Na  Na66  1  0.60942774  0.41698950  0.61859921  1
  Na  Na67  1  0.60975934  0.41728040  0.86906098  1
  Na  Na68  1  0.60975930  0.74922575  0.11730851  1
  Na  Na69  1  0.60881478  0.74878137  0.36942009  1
  Na  Na70  1  0.60892585  0.74863592  0.61805862  1
  Na  Na71  1  0.60951846  0.74915724  0.86857559  1
  Na  Na72  1  0.39028379  0.24941305  0.13113834  1
  Na  Na73  1  0.39025136  0.25021061  0.38279560  1
  Na  Na74  1  0.39025676  0.25055986  0.63151211  1
  Na  Na75  1  0.39013697  0.25012866  0.88245588  1
  Na  Na76  1  0.39008375  0.58261780  0.13051299  1
  Na  Na77  1  0.39055308  0.58293785  0.38189406  1
  Na  Na78  1  0.39005427  0.58254912  0.63095364  1
  Na  Na79  1  0.39034757  0.58373093  0.88023159  1
  Na  Na80  1  0.39038425  0.91654462  0.12950995  1
  Na  Na81  1  0.39046988  0.91637173  0.38316121  1
  Na  Na82  1  0.38946490  0.91587492  0.63188614  1
  Na  Na83  1  0.38992984  0.91733205  0.88197585  1
  Na  Na84  1  0.89133554  0.25010094  0.13219319  1
  Na  Na85  1  0.89067862  0.25027744  0.38157625  1
  Na  Na86  1  0.89038390  0.25070053  0.63071611  1
  Na  Na87  1  0.89057516  0.25206488  0.88123066  1
  Na  Na88  1  0.89044030  0.58261905  0.13217109  1
  Na  Na89  1  0.89028569  0.58187697  0.38120814  1
  Na  Na90  1  0.89029636  0.58359823  0.63113332  1
  Na  Na91  1  0.89047164  0.58473734  0.88224592  1
  Na  Na92  1  0.89044252  0.91638959  0.13098411  1
  Na  Na93  1  0.89055224  0.91664890  0.37939491  1
  Na  Na94  1  0.89010044  0.91804680  0.63087866  1
  Na  Na95  1  0.88967767  0.91673435  0.88092065  1
  Mn  Mn96  1  0.00049902  0.50011002  0.75022713  1
  Mn  Mn97  1  0.50015289  0.33373637  0.50062463  1
  Mn  Mn98  1  0.75053300  0.50010797  0.87533700  1
  Mn  Mn99  1  0.25057010  0.00143414  0.12412699  1
  Mn  Mn100  1  -0.00082985  0.66619836  0.49950020  1
  Mn  Mn101  1  0.74930014  0.16723542  0.37531379  1
  Mn  Mn102  1  0.24953584  0.66672942  0.87408057  1
  Mn  Mn103  1  0.25069654  0.00194369  0.37476905  1
  Mn  Mn104  1  0.00127538  0.33480626  0.00125062  1
  Mn  Mn105  1  0.49976434  0.16637941  0.75042846  1
  Mn  Mn106  1  0.75062635  0.16628848  0.87475647  1
  Mn  Mn107  1  0.25027356  0.49920433  0.12438039  1
  Mn  Mn108  1  0.74945679  0.83290544  0.37498712  1
  Mn  Mn109  1  0.75129284  0.33391482  0.12518237  1
  Mn  Mn110  1  -0.00028433  0.16853501  0.74874686  1
  Mn  Mn111  1  0.49955408  -0.00043517  0.75014633  1
  Mn  Mn112  1  -0.00012917  -0.00038964  -0.00059964  1
  Mn  Mn113  1  0.25007302  0.83382491  0.12511068  1
  Mn  Mn114  1  0.50002784  0.66606071  -0.00052027  1
  Mn  Mn115  1  0.49998475  0.83254739  0.25026104  1
  Mn  Mn116  1  -0.00057614  0.83462233  0.49870384  1
  Mn  Mn117  1  0.24995562  0.16751417  0.62553261  1
  Mn  Mn118  1  0.74974867  -0.00006547  0.37465689  1
  Mn  Mn119  1  0.00029965  0.66806414  0.75060803  1
  Mn  Mn120  1  -0.00063314  0.00047057  0.74956659  1
  Mn  Mn121  1  0.49964556  -0.00076396  0.25036667  1
  Mn  Mn122  1  0.74945529  0.83260291  0.87432484  1
  Mn  Mn123  1  0.50034736  0.83242853  0.74985336  1
  Mn  Mn124  1  0.49994871  0.16608861  0.25070282  1
  Mn  Mn125  1  0.50067828  0.33410501  0.75078508  1
  Mn  Mn126  1  0.50038616  0.33366171  0.25073727  1
  Mn  Mn127  1  0.50013227  0.33381070  0.00056459  1
  Mn  Mn128  1  0.24937563  0.66641588  0.62538222  1
  Mn  Mn129  1  0.74945016  0.83358062  0.62551131  1
  Mn  Mn130  1  0.75051559  0.16634507  0.12484995  1
  Mn  Mn131  1  0.00032596  0.16719168  0.00014493  1
  Mn  Mn132  1  0.24989858  0.83400679  0.37549908  1
  Mn  Mn133  1  0.49940916  0.66539845  0.24943668  1
  Mn  Mn134  1  0.00026795  0.66605607  0.24991205  1
  Mn  Mn135  1  0.24949498  0.66585286  0.37623669  1
  Mn  Mn136  1  0.25015481  0.33216377  0.12530725  1
  Mn  Mn137  1  0.74918502  -0.00143490  0.12521393  1
  Mn  Mn138  1  -0.00001365  0.16688029  0.49918950  1
  Mn  Mn139  1  0.74923786  0.66605803  0.37470610  1
  Mn  Mn140  1  0.74951243  0.50096966  0.62585682  1
  Mn  Mn141  1  0.00038697  0.66715752  0.00048908  1
  Mn  Mn142  1  0.74951789  0.33340800  0.62505734  1
  Mn  Mn143  1  0.24994603  0.66640089  0.12473268  1
  Fe  Fe144  1  0.50008656  0.16651088  0.50081321  1
  Fe  Fe145  1  0.49931737  -0.00061565  0.50047118  1
  Fe  Fe146  1  0.74995979  0.66557256  0.12527463  1
  Fe  Fe147  1  -0.00017701  0.00026479  0.49897712  1
  Fe  Fe148  1  0.25046892  0.33368309  0.37513590  1
  Fe  Fe149  1  0.75074336  0.50013969  0.37492878  1
  Fe  Fe150  1  -0.00002734  0.83364240  0.00034026  1
  Fe  Fe151  1  0.49939622  0.66616039  0.74937233  1
  Fe  Fe152  1  0.49970594  0.66559775  0.49981344  1
  Fe  Fe153  1  0.24935642  0.83415630  0.62567136  1
  Fe  Fe154  1  0.00041329  -0.00045864  0.24895288  1
  Fe  Fe155  1  0.49984563  0.50063049  0.74938209  1
  Fe  Fe156  1  0.49975251  0.50016484  -0.00050047  1
  Fe  Fe157  1  0.49948292  0.83281385  -0.00071323  1
  Fe  Fe158  1  0.25048551  0.33373385  0.62486766  1
  Fe  Fe159  1  0.74972942  -0.00019332  0.87438437  1
  Fe  Fe160  1  0.25037973  0.49918057  0.87413031  1
  Fe  Fe161  1  0.74987554  0.66685489  0.62489237  1
  Fe  Fe162  1  -0.00003870  0.83336421  0.24980587  1
  Fe  Fe163  1  0.75016111  0.16705798  0.62510326  1
  Fe  Fe164  1  0.24988667  0.00008770  0.87478348  1
  Fe  Fe165  1  0.49926969  0.83221537  0.50054108  1
  Fe  Fe166  1  0.50007314  0.50010993  0.49996497  1
  Fe  Fe167  1  0.24939487  0.00027201  0.62605790  1
  Fe  Fe168  1  0.75017311  0.33334622  0.87511726  1
  Fe  Fe169  1  0.00042804  0.49931110  0.50053535  1
  Fe  Fe170  1  0.25031211  0.33292309  0.87438249  1
  Fe  Fe171  1  -0.00046944  0.83429265  0.74935202  1
  Fe  Fe172  1  0.74991895  0.49955206  0.12515214  1
  Fe  Fe173  1  0.74982758  0.00055418  0.62455670  1
  Fe  Fe174  1  0.25001712  0.16788161  0.37587530  1
  Fe  Fe175  1  0.50053797  0.16647891  0.00077336  1
  Fe  Fe176  1  0.24949426  0.83387149  0.87470183  1
  Fe  Fe177  1  0.00008317  0.16634484  0.25018325  1
  Fe  Fe178  1  0.74978556  0.83210283  0.12395774  1
  Fe  Fe179  1  0.00051934  0.33347232  0.49928701  1
  Fe  Fe180  1  0.50029705  -0.00037404  0.00016286  1
  Fe  Fe181  1  0.00024190  0.50018552  0.00084217  1
  Fe  Fe182  1  0.74969549  0.66604588  0.87572671  1
  Fe  Fe183  1  0.49984710  0.49974427  0.25008367  1
  Fe  Fe184  1  0.25015846  0.16632552  0.87433700  1
  Fe  Fe185  1  0.00018762  0.33344287  0.25041434  1
  Fe  Fe186  1  0.00050960  0.49941774  0.25092958  1
  Fe  Fe187  1  0.25048964  0.49941575  0.37505570  1
  Fe  Fe188  1  0.00000831  0.33448800  0.74985298  1
  Fe  Fe189  1  0.75077938  0.33380918  0.37521001  1
  Fe  Fe190  1  0.25024879  0.16694780  0.12431527  1
  Fe  Fe191  1  0.24986157  0.49909882  0.62458449  1
  P  P192  1  0.04313465  0.25008738  0.10451111  1
  P  P193  1  0.04113321  0.25028050  0.35179959  1
  P  P194  1  0.04230430  0.25204828  0.60197189  1
  P  P195  1  0.04247163  0.25242513  0.85208468  1
  P  P196  1  0.04255335  0.58192849  0.10321035  1
  P  P197  1  0.04218842  0.58148800  0.35321004  1
  P  P198  1  0.04222459  0.58253932  0.60249493  1
  P  P199  1  0.04312574  0.58403933  0.85376720  1
  P  P200  1  0.04238181  0.91575979  0.10298157  1
  P  P201  1  0.04170507  0.91711442  0.35110857  1
  P  P202  1  0.04187057  0.91844004  0.60203844  1
  P  P203  1  0.04169652  0.91564995  0.85231692  1
  P  P204  1  0.54259684  0.24911995  0.10289303  1
  P  P205  1  0.54254546  0.24953085  0.35434016  1
  P  P206  1  0.54241392  0.24913492  0.60287921  1
  P  P207  1  0.54264663  0.24970757  0.85423684  1
  P  P208  1  0.54208688  0.58131746  0.10237725  1
  P  P209  1  0.54207651  0.58173381  0.35294805  1
  P  P210  1  0.54100626  0.58289522  0.60210932  1
  P  P211  1  0.54131393  0.58334940  0.85132794  1
  P  P212  1  0.54138748  0.91563875  0.10116101  1
  P  P213  1  0.54197239  0.91584078  0.35452038  1
  P  P214  1  0.54074345  0.91570559  0.60167809  1
  P  P215  1  0.54220101  0.91620771  0.85382751  1
  P  P216  1  0.45776636  0.08281497  0.14621478  1
  P  P217  1  0.45819312  0.08314371  0.39934626  1
  P  P218  1  0.45712493  0.08302849  0.64634478  1
  P  P219  1  0.45897611  0.08325625  0.89901743  1
  P  P220  1  0.45770723  0.41775387  0.14749994  1
  P  P221  1  0.45811210  0.41802804  0.39758297  1
  P  P222  1  0.45805134  0.41812761  0.64735396  1
  P  P223  1  0.45811813  0.41838310  0.89701241  1
  P  P224  1  0.45721306  0.74972221  0.14613805  1
  P  P225  1  0.45795298  0.74909846  0.39886707  1
  P  P226  1  0.45763485  0.74819311  0.64656352  1
  P  P227  1  0.45761213  0.75032105  0.89667224  1
  P  P228  1  0.95859193  0.08314402  0.14834672  1
  P  P229  1  0.95819782  0.08190832  0.39589100  1
  P  P230  1  0.95716872  0.08397437  0.64570761  1
  P  P231  1  0.95725062  0.08404947  0.89652441  1
  P  P232  1  0.95879481  0.41700474  0.14896695  1
  P  P233  1  0.95923453  0.41657657  0.39789224  1
  P  P234  1  0.95820205  0.41589033  0.64676994  1
  P  P235  1  0.95815208  0.41841175  0.89803006  1
  P  P236  1  0.95822599  0.75112574  0.14729934  1
  P  P237  1  0.95687548  0.75009380  0.39587349  1
  P  P238  1  0.95733147  0.75164733  0.64728015  1
  P  P239  1  0.95772140  0.75204198  0.89761722  1
  P  P240  1  0.20838896  0.08594830  0.22751214  1
  P  P241  1  0.20758559  0.08553726  0.47792742  1
  P  P242  1  0.20781076  0.08260013  0.72835365  1
  P  P243  1  0.20845055  0.08376888  0.97628589  1
  P  P244  1  0.20807120  0.41613942  0.22890212  1
  P  P245  1  0.20886174  0.41674356  0.47703913  1
  P  P246  1  0.20909679  0.41624631  0.72706687  1
  P  P247  1  0.20899712  0.41584040  0.97598948  1
  P  P248  1  0.20709498  0.74976087  0.22837564  1
  P  P249  1  0.20698776  0.75072610  0.47921436  1
  P  P250  1  0.20768729  0.75172179  0.72789560  1
  P  P251  1  0.20755931  0.75121942  0.97698980  1
  P  P252  1  0.70672784  0.08348263  0.22807117  1
  P  P253  1  0.70746632  0.08322682  0.47920609  1
  P  P254  1  0.70828676  0.08353245  0.72656770  1
  P  P255  1  0.70798392  0.08138317  0.97715791  1
  P  P256  1  0.70851617  0.41797090  0.22855585  1
  P  P257  1  0.70912179  0.41697955  0.47668055  1
  P  P258  1  0.70699786  0.41661413  0.72885336  1
  P  P259  1  0.70813903  0.41549778  0.97790202  1
  P  P260  1  0.70811394  0.74945319  0.22596742  1
  P  P261  1  0.70682344  0.74947544  0.47862814  1
  P  P262  1  0.70728202  0.74828246  0.72775935  1
  P  P263  1  0.70753198  0.74796206  0.97798342  1
  P  P264  1  0.29233671  0.24847888  0.02137768  1
  P  P265  1  0.29199784  0.24992395  0.27369544  1
  P  P266  1  0.29210613  0.25185484  0.52223187  1
  P  P267  1  0.29197314  0.24986643  0.77305898  1
  P  P268  1  0.29245651  0.58277240  0.02059580  1
  P  P269  1  0.29255672  0.58201708  0.27292435  1
  P  P270  1  0.29170248  0.58153743  0.52252397  1
  P  P271  1  0.29177637  0.58152634  0.77164235  1
  P  P272  1  0.29221999  0.91704613  0.02048891  1
  P  P273  1  0.29316898  0.91760649  0.27213001  1
  P  P274  1  0.29078338  0.91780969  0.52412418  1
  P  P275  1  0.29114011  0.91688808  0.77282579  1
  P  P276  1  0.79367576  0.24993329  0.02154252  1
  P  P277  1  0.79272364  0.25153087  0.27292443  1
  P  P278  1  0.79232898  0.24938676  0.52231057  1
  P  P279  1  0.79246460  0.25124476  0.77221122  1
  P  P280  1  0.79144052  0.58282772  0.02351956  1
  P  P281  1  0.79209020  0.58209884  0.27177580  1
  P  P282  1  0.79206208  0.58434256  0.52238047  1
  P  P283  1  0.79236039  0.58521330  0.77269649  1
  P  P284  1  0.79185732  0.91463337  0.02187194  1
  P  P285  1  0.79218479  0.91559834  0.27098113  1
  P  P286  1  0.79197557  0.91776342  0.52266236  1
  P  P287  1  0.79154984  0.91825261  0.77181683  1
  O  O288  1  0.03754317  0.24987216  0.18439373  1
  O  O289  1  0.03609972  0.25047666  0.43176022  1
  O  O290  1  0.03705633  0.25246796  0.68191187  1
  O  O291  1  0.03769529  0.25209117  0.93209623  1
  O  O292  1  0.03716061  0.58165959  0.18317968  1
  O  O293  1  0.03666788  0.58151234  0.43313344  1
  O  O294  1  0.03722888  0.58304683  0.68250558  1
  O  O295  1  0.03802526  0.58368147  0.93374701  1
  O  O296  1  0.03695474  0.91613218  0.18288358  1
  O  O297  1  0.03633664  0.91795629  0.43108663  1
  O  O298  1  0.03654789  0.91775220  0.68196505  1
  O  O299  1  0.03673272  0.91549802  0.93229736  1
  O  O300  1  0.53753151  0.24946467  0.18291687  1
  O  O301  1  0.53721314  0.24920373  0.43430473  1
  O  O302  1  0.53745012  0.24954901  0.68287612  1
  O  O303  1  0.53731198  0.24924428  0.93419816  1
  O  O304  1  0.53690503  0.58136664  0.18232975  1
  O  O305  1  0.53688838  0.58207696  0.43286104  1
  O  O306  1  0.53598931  0.58334188  0.68201899  1
  O  O307  1  0.53625903  0.58305183  0.93128697  1
  O  O308  1  0.53684172  0.91597188  0.18123469  1
  O  O309  1  0.53646931  0.91573626  0.43440733  1
  O  O310  1  0.53632971  0.91605990  0.68172970  1
  O  O311  1  0.53696284  0.91603530  0.93372651  1
  O  O312  1  0.46342812  0.08321043  0.06632985  1
  O  O313  1  0.46280660  0.08269838  0.31928818  1
  O  O314  1  0.46227669  0.08332016  0.56642724  1
  O  O315  1  0.46326911  0.08298608  0.81895406  1
  O  O316  1  0.46284475  0.41757786  0.06749112  1
  O  O317  1  0.46329163  0.41791369  0.31763464  1
  O  O318  1  0.46343278  0.41793902  0.56740548  1
  O  O319  1  0.46365827  0.41832272  0.81708278  1
  O  O320  1  0.46247960  0.75014366  0.06618035  1
  O  O321  1  0.46250067  0.74879373  0.31880688  1
  O  O322  1  0.46303797  0.74856337  0.56667658  1
  O  O323  1  0.46293715  0.74943910  0.81672456  1
  O  O324  1  0.96333025  0.08337316  0.06829717  1
  O  O325  1  0.96386538  0.08205759  0.31600089  1
  O  O326  1  0.96240590  0.08336707  0.56573474  1
  O  O327  1  0.96216672  0.08428400  0.81652475  1
  O  O328  1  0.96404288  0.41778488  0.06901554  1
  O  O329  1  0.96453812  0.41658380  0.31799352  1
  O  O330  1  0.96363762  0.41603777  0.56687660  1
  O  O331  1  0.96293493  0.41775674  0.81805136  1
  O  O332  1  0.96374493  0.75111154  0.06737821  1
  O  O333  1  0.96242735  0.75021306  0.31595837  1
  O  O334  1  0.96229637  0.75112156  0.56728751  1
  O  O335  1  0.96290629  0.75210119  0.81761768  1
  O  O336  1  0.21355304  0.08428685  0.05629114  1
  O  O337  1  0.21354616  0.08609831  0.30747194  1
  O  O338  1  0.21234103  0.08496820  0.55786990  1
  O  O339  1  0.21336280  0.08268189  0.80823188  1
  O  O340  1  0.21376038  0.41566445  0.05600821  1
  O  O341  1  0.21354647  0.41641946  0.30878735  1
  O  O342  1  0.21381803  0.41674581  0.55698782  1
  O  O343  1  0.21442632  0.41630414  0.80695843  1
  O  O344  1  0.21273705  0.75081796  0.05698587  1
  O  O345  1  0.21205485  0.74969482  0.30839734  1
  O  O346  1  0.21214302  0.75115179  0.55921709  1
  O  O347  1  0.21310296  0.75205701  0.80784852  1
  O  O348  1  0.71297371  0.08155179  0.05711246  1
  O  O349  1  0.71167257  0.08365715  0.30809809  1
  O  O350  1  0.71292434  0.08342046  0.55913757  1
  O  O351  1  0.71352570  0.08288133  0.80657705  1
  O  O352  1  0.71340955  0.41630558  0.05786543  1
  O  O353  1  0.71411230  0.41793614  0.30845964  1
  O  O354  1  0.71349750  0.41714695  0.55674184  1
  O  O355  1  0.71231623  0.41625026  0.80878100  1
  O  O356  1  0.71304394  0.74838151  0.05784356  1
  O  O357  1  0.71275577  0.74925329  0.30598999  1
  O  O358  1  0.71195006  0.74928083  0.55858477  1
  O  O359  1  0.71264904  0.74821482  0.80772599  1
  O  O360  1  0.28719112  0.24947050  0.19368111  1
  O  O361  1  0.28672720  0.25155604  0.44236360  1
  O  O362  1  0.28688365  0.25036277  0.69309713  1
  O  O363  1  0.28700864  0.24869108  0.94152236  1
  O  O364  1  0.28766321  0.58235313  0.19287908  1
  O  O365  1  0.28647079  0.58146461  0.44255956  1
  O  O366  1  0.28614417  0.58129467  0.69171820  1
  O  O367  1  0.28694400  0.58247108  0.94064967  1
  O  O368  1  0.28814812  0.91764264  0.19212331  1
  O  O369  1  0.28637006  0.91777771  0.44409855  1
  O  O370  1  0.28574549  0.91696223  0.69288141  1
  O  O371  1  0.28658980  0.91692426  0.94056958  1
  O  O372  1  0.78811014  0.25131698  0.19290912  1
  O  O373  1  0.78694227  0.25020469  0.44236772  1
  O  O374  1  0.78681333  0.25047475  0.69228618  1
  O  O375  1  0.78838968  0.25036812  0.94157398  1
  O  O376  1  0.78700644  0.58197748  0.19186740  1
  O  O377  1  0.78680655  0.58330781  0.44242096  1
  O  O378  1  0.78710085  0.58528298  0.69273834  1
  O  O379  1  0.78663316  0.58341898  0.94352505  1
  O  O380  1  0.78689533  0.91486214  0.19102747  1
  O  O381  1  0.78696927  0.91714889  0.44267548  1
  O  O382  1  0.78609927  0.91849370  0.69188667  1
  O  O383  1  0.78662068  0.91526774  0.94191469  1
  O  O384  1  0.22818904  0.24838905  0.05758289  1
  O  O385  1  0.22776633  0.25009754  0.30960953  1
  O  O386  1  0.22798382  0.25203797  0.55835946  1
  O  O387  1  0.22782565  0.24940445  0.80900994  1
  O  O388  1  0.22823001  0.58288150  0.05627048  1
  O  O389  1  0.22816667  0.58163839  0.30824919  1
  O  O390  1  0.22751104  0.58174252  0.55834552  1
  O  O391  1  0.22768624  0.58158727  0.80767090  1
  O  O392  1  0.22820095  0.91743511  0.05668242  1
  O  O393  1  0.22866867  0.91792561  0.30698289  1
  O  O394  1  0.22652164  0.91785038  0.55965576  1
  O  O395  1  0.22713457  0.91719728  0.80924357  1
  O  O396  1  0.72932419  0.25003076  0.05688035  1
  O  O397  1  0.72829548  0.25206518  0.30807673  1
  O  O398  1  0.72809924  0.24842790  0.55816412  1
  O  O399  1  0.72837207  0.25135577  0.80843464  1
  O  O400  1  0.72727679  0.58208209  0.05938338  1
  O  O401  1  0.72787277  0.58148322  0.30765116  1
  O  O402  1  0.72777444  0.58513380  0.55818586  1
  O  O403  1  0.72805917  0.58456288  0.80835181  1
  O  O404  1  0.72755361  0.91408324  0.05755706  1
  O  O405  1  0.72783578  0.91608454  0.30632187  1
  O  O406  1  0.72763978  0.91776182  0.55807015  1
  O  O407  1  0.72740197  0.91786799  0.80781775  1
  O  O408  1  0.27261925  0.08589469  0.19167473  1
  O  O409  1  0.27205533  0.08624884  0.44260766  1
  O  O410  1  0.27185369  0.08250007  0.69207760  1
  O  O411  1  0.27260472  0.08367374  0.94021611  1
  O  O412  1  0.27218474  0.41587298  0.19291585  1
  O  O413  1  0.27295270  0.41665185  0.44081679  1
  O  O414  1  0.27307023  0.41648908  0.69052176  1
  O  O415  1  0.27317649  0.41578963  0.94022970  1
  O  O416  1  0.27157353  0.74982111  0.19343043  1
  O  O417  1  0.27138099  0.75022341  0.44402965  1
  O  O418  1  0.27178784  0.75123704  0.69192839  1
  O  O419  1  0.27176268  0.75107382  0.94131187  1
  O  O420  1  0.77128119  0.08272294  0.19332656  1
  O  O421  1  0.77157777  0.08351105  0.44322809  1
  O  O422  1  0.77238137  0.08394175  0.69035548  1
  O  O423  1  0.77228894  0.08136684  0.94162773  1
  O  O424  1  0.77267142  0.41860630  0.19239674  1
  O  O425  1  0.77343197  0.41690490  0.44125056  1
  O  O426  1  0.77129128  0.41698169  0.69348535  1
  O  O427  1  0.77237964  0.41521342  0.94207877  1
  O  O428  1  0.77235089  0.75005208  0.19033796  1
  O  O429  1  0.77114752  0.74944012  0.44330296  1
  O  O430  1  0.77154141  0.74861438  0.69198096  1
  O  O431  1  0.77161634  0.74803655  0.94166039  1
  O  O432  1  0.02283922  0.08307421  0.18392151  1
  O  O433  1  0.02218400  0.08183117  0.43241579  1
  O  O434  1  0.02143245  0.08419345  0.68116876  1
  O  O435  1  0.02173840  0.08358652  0.93142946  1
  O  O436  1  0.02291995  0.41613392  0.18506076  1
  O  O437  1  0.02326683  0.41673026  0.43434308  1
  O  O438  1  0.02240491  0.41565884  0.68281593  1
  O  O439  1  0.02262023  0.41923453  0.93334195  1
  O  O440  1  0.02230543  0.75108650  0.18345008  1
  O  O441  1  0.02106483  0.75014179  0.43154110  1
  O  O442  1  0.02168386  0.75234070  0.68279017  1
  O  O443  1  0.02199119  0.75205846  0.93335705  1
  O  O444  1  0.52188165  0.08265896  0.18223136  1
  O  O445  1  0.52238936  0.08315502  0.43495788  1
  O  O446  1  0.52146314  0.08303378  0.68175231  1
  O  O447  1  0.52323217  0.08346102  0.93444505  1
  O  O448  1  0.52201487  0.41798209  0.18320541  1
  O  O449  1  0.52236835  0.41805433  0.43330970  1
  O  O450  1  0.52227333  0.41841548  0.68316770  1
  O  O451  1  0.52223900  0.41814172  0.93310844  1
  O  O452  1  0.52153999  0.74917936  0.18154451  1
  O  O453  1  0.52221837  0.74991545  0.43430409  1
  O  O454  1  0.52175148  0.74763259  0.68273215  1
  O  O455  1  0.52177006  0.75079383  0.93262821  1
  O  O456  1  0.47827584  0.24901924  0.06748611  1
  O  O457  1  0.47826124  0.24999391  0.31891054  1
  O  O458  1  0.47804277  0.24936842  0.56762991  1
  O  O459  1  0.47835651  0.25022745  0.81878775  1
  O  O460  1  0.47782692  0.58155383  0.06664421  1
  O  O461  1  0.47784149  0.58128318  0.31695444  1
  O  O462  1  0.47698103  0.58211011  0.56584349  1
  O  O463  1  0.47717641  0.58335775  0.81516586  1
  O  O464  1  0.47719642  0.91551290  0.06547105  1
  O  O465  1  0.47776172  0.91578244  0.31870081  1
  O  O466  1  0.47646306  0.91515067  0.56625302  1
  O  O467  1  0.47796062  0.91582386  0.81817378  1
  O  O468  1  0.97898075  0.25064106  0.06859701  1
  O  O469  1  0.97715263  0.25066288  0.31556190  1
  O  O470  1  0.97810467  0.25182725  0.56613244  1
  O  O471  1  0.97806092  0.25278766  0.81674310  1
  O  O472  1  0.97831829  0.58209198  0.06732192  1
  O  O473  1  0.97804865  0.58165359  0.31722516  1
  O  O474  1  0.97790043  0.58169908  0.56705765  1
  O  O475  1  0.97877363  0.58402766  0.81851957  1
  O  O476  1  0.97819247  0.91541930  0.06682380  1
  O  O477  1  0.97763978  0.91693001  0.31486029  1
  O  O478  1  0.97761420  0.91911448  0.56621153  1
  O  O479  1  0.97737147  0.91563256  0.81673729  1
  O  O480  1  0.07468046  0.31342392  0.07642098  1
  O  O481  1  0.07272796  0.31351781  0.32386807  1
  O  O482  1  0.07332107  0.31519431  0.57291088  1
  O  O483  1  0.07325521  0.31593243  0.82368853  1
  O  O484  1  0.07365164  0.64573934  0.07577142  1
  O  O485  1  0.07343198  0.64515112  0.32555645  1
  O  O486  1  0.07281471  0.64640752  0.57461860  1
  O  O487  1  0.07397034  0.64773842  0.82568364  1
  O  O488  1  0.07335391  0.97945947  0.07477268  1
  O  O489  1  0.07300860  0.98033216  0.32249428  1
  O  O490  1  0.07285882  0.98194919  0.57379693  1
  O  O491  1  0.07262251  0.97953495  0.82472616  1
  O  O492  1  0.57374790  0.31276192  0.07521594  1
  O  O493  1  0.57375828  0.31308914  0.32638180  1
  O  O494  1  0.57382130  0.31262305  0.57513466  1
  O  O495  1  0.57388839  0.31324968  0.82638548  1
  O  O496  1  0.57317347  0.64499715  0.07453477  1
  O  O497  1  0.57287837  0.64551265  0.32465935  1
  O  O498  1  0.57117962  0.64674198  0.57304355  1
  O  O499  1  0.57184522  0.64728218  0.82330977  1
  O  O500  1  0.57193404  0.97951539  0.07285536  1
  O  O501  1  0.57316143  0.97923089  0.32605522  1
  O  O502  1  0.57089105  0.97974915  0.57329438  1
  O  O503  1  0.57307185  0.97978740  0.82535615  1
  O  O504  1  0.42648914  0.01934366  0.17433048  1
  O  O505  1  0.42751370  0.01940270  0.42780830  1
  O  O506  1  0.42612050  0.01951171  0.67480870  1
  O  O507  1  0.42860208  0.01929072  0.92729960  1
  O  O508  1  0.42693550  0.35384753  0.17539013  1
  O  O509  1  0.42708352  0.35429928  0.42538155  1
  O  O510  1  0.42723823  0.35425901  0.67513556  1
  O  O511  1  0.42684601  0.35481134  0.92480457  1
  O  O512  1  0.42603000  0.68610625  0.17403037  1
  O  O513  1  0.42799634  0.68495868  0.42730594  1
  O  O514  1  0.42639471  0.68492080  0.67512421  1
  O  O515  1  0.42640821  0.68688073  0.92479322  1
  O  O516  1  0.92756190  0.01941354  0.17594125  1
  O  O517  1  0.92708755  0.01857788  0.42447139  1
  O  O518  1  0.92572742  0.02098682  0.67441094  1
  O  O519  1  0.92608706  0.02056239  0.92453647  1
  O  O520  1  0.92748778  0.35337330  0.17652616  1
  O  O521  1  0.92837090  0.35282908  0.42606653  1
  O  O522  1  0.92720870  0.35258855  0.67567682  1
  O  O523  1  0.92748667  0.35487304  0.92666641  1
  O  O524  1  0.92711734  0.68724559  0.17462252  1
  O  O525  1  0.92585846  0.68649234  0.42391019  1
  O  O526  1  0.92672446  0.68787077  0.67543145  1
  O  O527  1  0.92688314  0.68812954  0.92538838  1
  O  O528  1  0.17749096  0.02208961  0.19963996  1
  O  O529  1  0.17694296  0.02192472  0.44924709  1
  O  O530  1  0.17675801  0.01923450  0.69958900  1
  O  O531  1  0.17767103  0.01982518  0.94847798  1
  O  O532  1  0.17679893  0.35270827  0.20063569  1
  O  O533  1  0.17798768  0.35313662  0.44840209  1
  O  O534  1  0.17846798  0.35244544  0.69857644  1
  O  O535  1  0.17806775  0.35217557  0.94783302  1
  O  O536  1  0.17619550  0.68617947  0.20008128  1
  O  O537  1  0.17582534  0.68705721  0.45136864  1
  O  O538  1  0.17630623  0.68792579  0.70069127  1
  O  O539  1  0.17620370  0.68770519  0.94916699  1
  O  O540  1  0.67517702  0.02019468  0.20008297  1
  O  O541  1  0.67639726  0.01967133  0.45095281  1
  O  O542  1  0.67729684  0.02001574  0.69803021  1
  O  O543  1  0.67725898  0.01781468  0.94868738  1
  O  O544  1  0.67765252  0.35412518  0.20060634  1
  O  O545  1  0.67845754  0.35308555  0.44866520  1
  O  O546  1  0.67567365  0.35346853  0.70021542  1
  O  O547  1  0.67743686  0.35176091  0.94976164  1
  O  O548  1  0.67806356  0.68520798  0.19777664  1
  O  O549  1  0.67556232  0.68626165  0.44998999  1
  O  O550  1  0.67648016  0.68499478  0.69882804  1
  O  O551  1  0.67672882  0.68426074  0.94961737  1
  O  O552  1  0.32354239  0.31198371  0.04975105  1
  O  O553  1  0.32267339  0.31387566  0.30167624  1
  O  O554  1  0.32315720  0.31526909  0.55091468  1
  O  O555  1  0.32264590  0.31355014  0.80165145  1
  O  O556  1  0.32343785  0.64643698  0.04865704  1
  O  O557  1  0.32342026  0.64569885  0.30112895  1
  O  O558  1  0.32279047  0.64530117  0.55022390  1
  O  O559  1  0.32280839  0.64551843  0.79887297  1
  O  O560  1  0.32368509  0.98045712  0.04852848  1
  O  O561  1  0.32436133  0.98102889  0.30038949  1
  O  O562  1  0.32159315  0.98149651  0.55229853  1
  O  O563  1  0.32245582  0.98036388  0.80118574  1
  O  O564  1  0.82516589  0.31299348  0.05018126  1
  O  O565  1  0.82356177  0.31500810  0.30153546  1
  O  O566  1  0.82311498  0.31311719  0.55045999  1
  O  O567  1  0.82309401  0.31504384  0.80035885  1
  O  O568  1  0.82189725  0.64660592  0.05223894  1
  O  O569  1  0.82285944  0.64598019  0.29975273  1
  O  O570  1  0.82307649  0.64796374  0.55038885  1
  O  O571  1  0.82298983  0.64859436  0.80171835  1
  O  O572  1  0.82296436  0.97814312  0.05012719  1
  O  O573  1  0.82327749  0.97932403  0.29870561  1
  O  O574  1  0.82264164  0.98148704  0.55080671  1
  O  O575  1  0.82242169  0.98163018  0.80057402  1
  O  O576  1  0.42659020  0.14611567  0.17494639  1
  O  O577  1  0.42756215  0.14703033  0.42716494  1
  O  O578  1  0.42592516  0.14627033  0.67515502  1
  O  O579  1  0.42803423  0.14687597  0.92702331  1
  O  O580  1  0.42669663  0.48100310  0.17614865  1
  O  O581  1  0.42716145  0.48125375  0.42636419  1
  O  O582  1  0.42693609  0.48135488  0.67587897  1
  O  O583  1  0.42736331  0.48190837  0.92534221  1
  O  O584  1  0.42620936  0.81294996  0.17494762  1
  O  O585  1  0.42645343  0.81233312  0.42704652  1
  O  O586  1  0.42677841  0.81188165  0.67478640  1
  O  O587  1  0.42679555  0.81397654  0.92473826  1
  O  O588  1  0.92802546  0.14687203  0.17687940  1
  O  O589  1  0.92704911  0.14558382  0.42377434  1
  O  O590  1  0.92635139  0.14779748  0.67346155  1
  O  O591  1  0.92661116  0.14758833  0.92499202  1
  O  O592  1  0.92832540  0.48064573  0.17773245  1
  O  O593  1  0.92814742  0.47997964  0.42652144  1
  O  O594  1  0.92704491  0.47943604  0.67495773  1
  O  O595  1  0.92725947  0.48193020  0.92651167  1
  O  O596  1  0.92726389  0.81444226  0.17585434  1
  O  O597  1  0.92553138  0.81340991  0.42402630  1
  O  O598  1  0.92641485  0.81520382  0.67537967  1
  O  O599  1  0.92668282  0.81517898  0.92646935  1
  O  O600  1  0.07396841  0.18669812  0.07560318  1
  O  O601  1  0.07128807  0.18605746  0.32382601  1
  O  O602  1  0.07329384  0.18817541  0.57448187  1
  O  O603  1  0.07311951  0.18866015  0.82396159  1
  O  O604  1  0.07343395  0.51861138  0.07439891  1
  O  O605  1  0.07310978  0.51811262  0.32461237  1
  O  O606  1  0.07335399  0.51908669  0.57443017  1
  O  O607  1  0.07447523  0.52095941  0.82509587  1
  O  O608  1  0.07338165  0.85240758  0.07441132  1
  O  O609  1  0.07229439  0.85295493  0.32374547  1
  O  O610  1  0.07272177  0.85485344  0.57376685  1
  O  O611  1  0.07249271  0.85244297  0.82318497  1
  O  O612  1  0.57332199  0.18554295  0.07452529  1
  O  O613  1  0.57360436  0.18620225  0.32590935  1
  O  O614  1  0.57274119  0.18538784  0.57445470  1
  O  O615  1  0.57366467  0.18639177  0.82561967  1
  O  O616  1  0.57283073  0.51798510  0.07348388  1
  O  O617  1  0.57314639  0.51851522  0.32418364  1
  O  O618  1  0.57266576  0.51962215  0.57399229  1
  O  O619  1  0.57241754  0.51993577  0.82297851  1
  O  O620  1  0.57218460  0.85198751  0.07310867  1
  O  O621  1  0.57319706  0.85251787  0.32585837  1
  O  O622  1  0.57199986  0.85219446  0.57400512  1
  O  O623  1  0.57369613  0.85310760  0.82514601  1
  O  O624  1  0.32306414  0.18510027  0.05027142  1
  O  O625  1  0.32294979  0.18666006  0.30251482  1
  O  O626  1  0.32324875  0.18844824  0.55054015  1
  O  O627  1  0.32301531  0.18620047  0.80080725  1
  O  O628  1  0.32368491  0.51950429  0.04889416  1
  O  O629  1  0.32330403  0.51849662  0.30125301  1
  O  O630  1  0.32253092  0.51817592  0.55107949  1
  O  O631  1  0.32284347  0.51837000  0.80039336  1
  O  O632  1  0.32331642  0.85364791  0.04880391  1
  O  O633  1  0.32388392  0.85403448  0.30041955  1
  O  O634  1  0.32124673  0.85394693  0.55240572  1
  O  O635  1  0.32189047  0.85311810  0.80096639  1
  O  O636  1  0.82429286  0.18605602  0.04949277  1
  O  O637  1  0.82332424  0.18769830  0.30068525  1
  O  O638  1  0.82344560  0.18597635  0.55041509  1
  O  O639  1  0.82389317  0.18785271  0.80000011  1
  O  O640  1  0.82254258  0.51923958  0.05137026  1
  O  O641  1  0.82337744  0.51912971  0.30099702  1
  O  O642  1  0.82287680  0.52083544  0.55085340  1
  O  O643  1  0.82370099  0.52160879  0.80034166  1
  O  O644  1  0.82258906  0.85103959  0.05013829  1
  O  O645  1  0.82317105  0.85239264  0.29973252  1
  O  O646  1  0.82313044  0.85432469  0.55076172  1
  O  O647  1  0.82263916  0.85446627  0.79922018  1
  O  O648  1  0.17745467  0.14912580  0.19866862  1
  O  O649  1  0.17671547  0.14901150  0.44951750  1
  O  O650  1  0.17661150  0.14616307  0.70045238  1
  O  O651  1  0.17734169  0.14705843  0.94776279  1
  O  O652  1  0.17688321  0.47938098  0.20029885  1
  O  O653  1  0.17799107  0.48028893  0.44859019  1
  O  O654  1  0.17778521  0.47959201  0.69871034  1
  O  O655  1  0.17840879  0.47966768  0.94797336  1
  O  O656  1  0.17620574  0.81328469  0.20029098  1
  O  O657  1  0.17600070  0.81400692  0.45055968  1
  O  O658  1  0.17699132  0.81508609  0.69907164  1
  O  O659  1  0.17703172  0.81494983  0.94883610  1
  O  O660  1  0.67645706  0.14728691  0.19976392  1
  O  O661  1  0.67601353  0.14642562  0.45088224  1
  O  O662  1  0.67763965  0.14754344  0.69904544  1
  O  O663  1  0.67704562  0.14506521  0.94944297  1
  O  O664  1  0.67717354  0.48094824  0.19955593  1
  O  O665  1  0.67846276  0.48064085  0.44845613  1
  O  O666  1  0.67602832  0.48023682  0.70083574  1
  O  O667  1  0.67695771  0.47890144  0.94974217  1
  O  O668  1  0.67679583  0.81272293  0.19785198  1
  O  O669  1  0.67599877  0.81310827  0.45054004  1
  O  O670  1  0.67615475  0.81210513  0.70039395  1
  O  O671  1  0.67617691  0.81119892  0.94954138  1
