# generated using pymatgen
data_Na2MnFe(PO4)2
_symmetry_space_group_name_H-M   'P 1'
_cell_length_a   22.33708383
_cell_length_b   20.09215015
_cell_length_c   19.45481267
_cell_angle_alpha   89.98290747
_cell_angle_beta   90.00433939
_cell_angle_gamma   89.98727118
_symmetry_Int_Tables_number   1
_chemical_formula_structural   Na2MnFe(PO4)2
_chemical_formula_sum   'Na96 Mn48 Fe48 P96 O384'
_cell_volume   8731.32011692
_cell_formula_units_Z   48
loop_
 _symmetry_equiv_pos_site_id
 _symmetry_equiv_pos_as_xyz
  1  'x, y, z'
loop_
 _atom_site_type_symbol
 _atom_site_label
 _atom_site_symmetry_multiplicity
 _atom_site_fract_x
 _atom_site_fract_y
 _atom_site_fract_z
 _atom_site_occupancy
  Na  Na0  1  0.14007695  0.25097799  0.24401625  1
  Na  Na1  1  0.13959349  0.25043762  0.49372822  1
  Na  Na2  1  0.13985105  0.25083929  0.74256875  1
  Na  Na3  1  0.14006999  0.25156179  0.99349392  1
  Na  Na4  1  0.14002273  0.58288207  0.24413720  1
  Na  Na5  1  0.13982513  0.58296911  0.49305633  1
  Na  Na6  1  0.14020098  0.58169706  0.74192158  1
  Na  Na7  1  0.14009426  0.58357229  0.99202080  1
  Na  Na8  1  0.13915687  0.91708039  0.24328473  1
  Na  Na9  1  0.13978584  0.91608849  0.49227055  1
  Na  Na10  1  0.14012617  0.91491338  0.74326921  1
  Na  Na11  1  0.13919868  0.91662272  0.99351341  1
  Na  Na12  1  0.64106416  0.25101878  0.24444147  1
  Na  Na13  1  0.64029842  0.24934525  0.49382624  1
  Na  Na14  1  0.64113907  0.24884463  0.74417813  1
  Na  Na15  1  0.64099180  0.24937941  0.99467059  1
  Na  Na16  1  0.64118249  0.58529736  0.24482688  1
  Na  Na17  1  0.64088431  0.58407650  0.49420820  1
  Na  Na18  1  0.64103008  0.58412271  0.74338150  1
  Na  Na19  1  0.64091994  0.58379758  0.99486600  1
  Na  Na20  1  0.64082001  0.91701251  0.24300919  1
  Na  Na21  1  0.64070196  0.91558724  0.49455892  1
  Na  Na22  1  0.64046982  0.91563956  0.74336139  1
  Na  Na23  1  0.63995129  0.91727029  0.99335976  1
  Na  Na24  1  0.35909112  0.08399735  0.00584055  1
  Na  Na25  1  0.35883063  0.08433144  0.25584669  1
  Na  Na26  1  0.35930767  0.08421528  0.50665824  1
  Na  Na27  1  0.35891342  0.08216037  0.75604730  1
  Na  Na28  1  0.35888704  0.41651534  0.00515197  1
  Na  Na29  1  0.35906365  0.41736450  0.25535810  1
  Na  Na30  1  0.35898348  0.41748301  0.50639084  1
  Na  Na31  1  0.35942928  0.41664201  0.75524359  1
  Na  Na32  1  0.35989944  0.75058214  0.00576464  1
  Na  Na33  1  0.35984070  0.75071410  0.25635757  1
  Na  Na34  1  0.35935708  0.74983923  0.50608084  1
  Na  Na35  1  0.35926042  0.74906222  0.75606142  1
  Na  Na36  1  0.85940025  0.08225007  0.00743347  1
  Na  Na37  1  0.85979153  0.08286734  0.25664524  1
  Na  Na38  1  0.86006312  0.08235815  0.50671068  1
  Na  Na39  1  0.85994450  0.08220596  0.75561372  1
  Na  Na40  1  0.86024971  0.41572964  0.00663831  1
  Na  Na41  1  0.86013588  0.41861047  0.25726041  1
  Na  Na42  1  0.86032349  0.41703422  0.50750162  1
  Na  Na43  1  0.86046516  0.41606322  0.75655032  1
  Na  Na44  1  0.86068311  0.75027209  0.00808220  1
  Na  Na45  1  0.86007461  0.75098034  0.25740271  1
  Na  Na46  1  0.86000531  0.74962976  0.50761687  1
  Na  Na47  1  0.86074376  0.74892176  0.75558307  1
  Na  Na48  1  0.10893591  0.08337175  0.11826339  1
  Na  Na49  1  0.10908974  0.08278429  0.36918866  1
  Na  Na50  1  0.10913370  0.08270553  0.61710395  1
  Na  Na51  1  0.10890115  0.08329940  0.86924216  1
  Na  Na52  1  0.10962071  0.41767849  0.11807875  1
  Na  Na53  1  0.10951642  0.41600745  0.36932325  1
  Na  Na54  1  0.10970023  0.41627499  0.61771726  1
  Na  Na55  1  0.10975352  0.41657207  0.86666181  1
  Na  Na56  1  0.10899100  0.75137572  0.11883526  1
  Na  Na57  1  0.10978926  0.74982537  0.36819011  1
  Na  Na58  1  0.10933876  0.74844074  0.61696873  1
  Na  Na59  1  0.10913547  0.74906056  0.86836376  1
  Na  Na60  1  0.61013803  0.08287387  0.11796365  1
  Na  Na61  1  0.60951497  0.08322751  0.36909150  1
  Na  Na62  1  0.60959770  0.08206002  0.61988588  1
  Na  Na63  1  0.60994362  0.08207149  0.86928571  1
  Na  Na64  1  0.60997252  0.41821840  0.11941242  1
  Na  Na65  1  0.60998805  0.41675538  0.36969937  1
  Na  Na66  1  0.61003143  0.41676514  0.61805776  1
  Na  Na67  1  0.61000525  0.41689904  0.86956506  1
  Na  Na68  1  0.60987711  0.75218576  0.11899968  1
  Na  Na69  1  0.61065849  0.75010566  0.36932998  1
  Na  Na70  1  0.61037433  0.75080580  0.61876480  1
  Na  Na71  1  0.60989352  0.75107176  0.86969504  1
  Na  Na72  1  0.38939932  0.25056515  0.13125220  1
  Na  Na73  1  0.38982619  0.25067417  0.38069077  1
  Na  Na74  1  0.39040266  0.24919456  0.63095079  1
  Na  Na75  1  0.38984853  0.24984519  0.88112080  1
  Na  Na76  1  0.39051196  0.58543932  0.13034885  1
  Na  Na77  1  0.38996011  0.58421883  0.38177617  1
  Na  Na78  1  0.38974045  0.58458069  0.63115628  1
  Na  Na79  1  0.39035446  0.58387806  0.88058123  1
  Na  Na80  1  0.39002912  0.91681365  0.12993659  1
  Na  Na81  1  0.39001579  0.91608585  0.38126330  1
  Na  Na82  1  0.38982316  0.91660201  0.63107798  1
  Na  Na83  1  0.39028307  0.91566665  0.88036154  1
  Na  Na84  1  0.89055821  0.25032480  0.13181133  1
  Na  Na85  1  0.89062270  0.25009868  0.38267653  1
  Na  Na86  1  0.89073414  0.25016798  0.63127466  1
  Na  Na87  1  0.89056869  0.24903380  0.88170739  1
  Na  Na88  1  0.89109266  0.58469944  0.13200058  1
  Na  Na89  1  0.89092371  0.58319530  0.38314114  1
  Na  Na90  1  0.89052765  0.58212673  0.63194960  1
  Na  Na91  1  0.89112491  0.58286163  0.88073669  1
  Na  Na92  1  0.89018641  0.91682338  0.13201335  1
  Na  Na93  1  0.89042270  0.91582915  0.38239045  1
  Na  Na94  1  0.89020839  0.91530469  0.63106615  1
  Na  Na95  1  0.89074458  0.91550568  0.88181485  1
  Mn  Mn96  1  0.49968770  0.50159159  -0.00031196  1
  Mn  Mn97  1  0.50016751  0.16571473  -0.00001836  1
  Mn  Mn98  1  0.50046400  0.83297033  0.50070515  1
  Mn  Mn99  1  0.00005588  0.66707167  0.25057706  1
  Mn  Mn100  1  0.75112344  0.00002826  0.87506026  1
  Mn  Mn101  1  0.75066446  0.16550104  0.62432509  1
  Mn  Mn102  1  0.49995635  0.33377125  0.25024828  1
  Mn  Mn103  1  0.50028901  0.66839161  0.25031775  1
  Mn  Mn104  1  0.00038418  0.16604118  0.25052272  1
  Mn  Mn105  1  0.24900884  0.16746697  0.87465104  1
  Mn  Mn106  1  0.00068094  0.83160761  0.75015151  1
  Mn  Mn107  1  0.24876893  -0.00071403  0.87544330  1
  Mn  Mn108  1  0.25003993  0.00110142  0.12456846  1
  Mn  Mn109  1  0.74961125  -0.00091719  0.37512324  1
  Mn  Mn110  1  0.50011019  0.16650015  0.24944093  1
  Mn  Mn111  1  0.49960336  0.33249364  0.49964105  1
  Mn  Mn112  1  0.24980420  0.66607199  0.87408320  1
  Mn  Mn113  1  0.75094187  0.33321453  0.62562811  1
  Mn  Mn114  1  0.24928101  0.16822141  0.37580678  1
  Mn  Mn115  1  -0.00024920  0.16669942  0.00007361  1
  Mn  Mn116  1  0.24917563  0.66695989  0.12422140  1
  Mn  Mn117  1  0.25023054  0.49967459  0.12430035  1
  Mn  Mn118  1  -0.00069695  0.16681610  0.74947301  1
  Mn  Mn119  1  0.24976673  0.50004256  0.37459690  1
  Mn  Mn120  1  0.50047260  0.33283893  0.74953564  1
  Mn  Mn121  1  -0.00015712  0.33429561  0.25116522  1
  Mn  Mn122  1  0.74998158  0.16700416  0.37546238  1
  Mn  Mn123  1  0.75044017  0.33372660  0.12535022  1
  Mn  Mn124  1  0.24895601  0.00044615  0.37461932  1
  Mn  Mn125  1  0.50014916  0.50137088  0.24987247  1
  Mn  Mn126  1  0.50032199  0.00010868  0.50002957  1
  Mn  Mn127  1  0.75097836  0.66652231  0.87557996  1
  Mn  Mn128  1  0.74971624  0.33199103  0.87624312  1
  Mn  Mn129  1  0.50053703  0.50093812  0.74987073  1
  Mn  Mn130  1  0.24937643  0.83272424  0.62415715  1
  Mn  Mn131  1  0.24937412  0.16709113  0.62521061  1
  Mn  Mn132  1  0.75028950  0.66715264  0.12589025  1
  Mn  Mn133  1  0.50020567  0.16514332  0.75096426  1
  Mn  Mn134  1  0.49993749  0.33374450  0.00013317  1
  Mn  Mn135  1  0.50100305  0.66834176  0.75090726  1
  Mn  Mn136  1  0.75091660  0.83314009  0.87492815  1
  Mn  Mn137  1  0.24928903  0.83361734  0.12524673  1
  Mn  Mn138  1  0.75039675  0.50073658  0.37603091  1
  Mn  Mn139  1  0.49928184  -0.00065431  0.24964341  1
  Mn  Mn140  1  0.00036631  0.50032842  -0.00079741  1
  Mn  Mn141  1  0.75054222  0.49971520  0.87512870  1
  Mn  Mn142  1  0.49975919  0.50111485  0.49977045  1
  Mn  Mn143  1  0.00028183  -0.00094950  0.74938645  1
  Fe  Fe144  1  0.24968096  0.83285062  0.87415102  1
  Fe  Fe145  1  0.50008164  0.66757364  0.50031738  1
  Fe  Fe146  1  0.25013850  0.33360603  0.62471988  1
  Fe  Fe147  1  0.49970627  0.83349955  0.75037494  1
  Fe  Fe148  1  0.24983479  0.33362838  0.87423791  1
  Fe  Fe149  1  0.00041690  0.66683206  0.00022213  1
  Fe  Fe150  1  0.00012178  0.66564303  0.49975386  1
  Fe  Fe151  1  0.24941442  -0.00055747  0.62495647  1
  Fe  Fe152  1  -0.00018079  0.83391510  0.24979022  1
  Fe  Fe153  1  0.25009740  0.66673730  0.37487124  1
  Fe  Fe154  1  0.24997172  0.33382825  0.37454206  1
  Fe  Fe155  1  0.74986729  0.00034008  0.12500996  1
  Fe  Fe156  1  0.75039672  0.66658465  0.62473812  1
  Fe  Fe157  1  -0.00053396  -0.00056703  0.25022200  1
  Fe  Fe158  1  0.25002818  0.49945860  0.87333772  1
  Fe  Fe159  1  0.24936653  0.66624743  0.62467323  1
  Fe  Fe160  1  0.24981080  0.83366769  0.37510634  1
  Fe  Fe161  1  0.75065907  0.33424982  0.37507497  1
  Fe  Fe162  1  0.75074385  0.16700173  0.12581273  1
  Fe  Fe163  1  0.00011880  0.66568971  0.74923992  1
  Fe  Fe164  1  0.49984625  0.16592246  0.50033380  1
  Fe  Fe165  1  0.74995041  0.49969957  0.62513909  1
  Fe  Fe166  1  0.75066415  0.50045519  0.12626424  1
  Fe  Fe167  1  0.75004054  0.83372322  0.12605173  1
  Fe  Fe168  1  0.75030143  0.16562551  0.87523152  1
  Fe  Fe169  1  0.24952107  0.49963563  0.62387233  1
  Fe  Fe170  1  0.00037263  0.33311602  0.74947271  1
  Fe  Fe171  1  0.49999422  0.83418279  -0.00056292  1
  Fe  Fe172  1  0.00021329  0.83263143  0.49962795  1
  Fe  Fe173  1  0.75045961  0.83308422  0.37551775  1
  Fe  Fe174  1  0.24916328  0.16793089  0.12509185  1
  Fe  Fe175  1  0.00009568  0.49941838  0.74967889  1
  Fe  Fe176  1  -0.00028744  0.83326534  0.00021333  1
  Fe  Fe177  1  0.75081250  0.83254421  0.62475446  1
  Fe  Fe178  1  0.75106405  0.66720876  0.37580747  1
  Fe  Fe179  1  -0.00005637  0.33376937  -0.00015363  1
  Fe  Fe180  1  0.24915629  0.33380544  0.12414802  1
  Fe  Fe181  1  0.50006735  0.83405698  0.24928385  1
  Fe  Fe182  1  -0.00040432  -0.00047229  0.00021048  1
  Fe  Fe183  1  -0.00011869  0.49940548  0.50068874  1
  Fe  Fe184  1  0.49926188  -0.00082883  -0.00061418  1
  Fe  Fe185  1  0.75010560  -0.00089958  0.62530674  1
  Fe  Fe186  1  0.49964495  -0.00074289  0.74993571  1
  Fe  Fe187  1  0.00015617  0.50032439  0.25026353  1
  Fe  Fe188  1  -0.00028466  0.16621145  0.49998345  1
  Fe  Fe189  1  0.50070046  0.66832904  0.00029335  1
  Fe  Fe190  1  -0.00027958  -0.00112031  0.49940723  1
  Fe  Fe191  1  -0.00011666  0.33356953  0.50041210  1
  P  P192  1  0.04186352  0.25159542  0.10237357  1
  P  P193  1  0.04215754  0.24962761  0.35437877  1
  P  P194  1  0.04089279  0.25003679  0.60153891  1
  P  P195  1  0.04192756  0.25105675  0.85226951  1
  P  P196  1  0.04262279  0.58480591  0.10241432  1
  P  P197  1  0.04190382  0.58181440  0.35332565  1
  P  P198  1  0.04113228  0.58246111  0.60201268  1
  P  P199  1  0.04166582  0.58311240  0.85097353  1
  P  P200  1  0.04097849  0.91682081  0.10223399  1
  P  P201  1  0.04085147  0.91649122  0.35225990  1
  P  P202  1  0.04134087  0.91553755  0.60091348  1
  P  P203  1  0.04248899  0.91580584  0.85369534  1
  P  P204  1  0.54286300  0.24995920  0.10316495  1
  P  P205  1  0.54287835  0.24947684  0.35361553  1
  P  P206  1  0.54248885  0.24792115  0.60257024  1
  P  P207  1  0.54317936  0.24935720  0.85340122  1
  P  P208  1  0.54265558  0.58604277  0.10258219  1
  P  P209  1  0.54310833  0.58449598  0.35382112  1
  P  P210  1  0.54244223  0.58550973  0.60254354  1
  P  P211  1  0.54353076  0.58461726  0.85385225  1
  P  P212  1  0.54149394  0.91663675  0.10143025  1
  P  P213  1  0.54248226  0.91533624  0.35221188  1
  P  P214  1  0.54277265  0.91668885  0.60417557  1
  P  P215  1  0.54156237  0.91648686  0.85206720  1
  P  P216  1  0.45675037  0.08256053  0.14607838  1
  P  P217  1  0.45717649  0.08422771  0.39752562  1
  P  P218  1  0.45732320  0.08192087  0.64748922  1
  P  P219  1  0.45735427  0.08106085  0.89705439  1
  P  P220  1  0.45694955  0.41781047  0.14676975  1
  P  P221  1  0.45673653  0.41714871  0.39693187  1
  P  P222  1  0.45748720  0.41701102  0.64655353  1
  P  P223  1  0.45718800  0.41722368  0.89655165  1
  P  P224  1  0.45784880  0.75236580  0.14653421  1
  P  P225  1  0.45766288  0.74954196  0.39757709  1
  P  P226  1  0.45773628  0.75137252  0.64767962  1
  P  P227  1  0.45853288  0.75096738  0.89820066  1
  P  P228  1  0.95806441  0.08180668  0.14766175  1
  P  P229  1  0.95860475  0.08251556  0.39829314  1
  P  P230  1  0.95765069  0.08281827  0.64561814  1
  P  P231  1  0.95736133  0.08177244  0.89791660  1
  P  P232  1  0.95802455  0.41845853  0.14762501  1
  P  P233  1  0.95859701  0.41704951  0.39876583  1
  P  P234  1  0.95907680  0.41626113  0.64774392  1
  P  P235  1  0.95818826  0.41523299  0.89662951  1
  P  P236  1  0.95802456  0.75185434  0.14744027  1
  P  P237  1  0.95894116  0.74964005  0.39858397  1
  P  P238  1  0.95854630  0.74776496  0.64651787  1
  P  P239  1  0.95852505  0.74910996  0.89841284  1
  P  P240  1  0.20703542  0.08528836  0.22730514  1
  P  P241  1  0.20686002  0.08347996  0.47875959  1
  P  P242  1  0.20693529  0.08176835  0.72715002  1
  P  P243  1  0.20662130  0.08454380  0.97847528  1
  P  P244  1  0.20740033  0.41550089  0.22711123  1
  P  P245  1  0.20788097  0.41560598  0.47771999  1
  P  P246  1  0.20863191  0.41648505  0.72619437  1
  P  P247  1  0.20802990  0.41680389  0.97550409  1
  P  P248  1  0.20702575  0.74990444  0.22903437  1
  P  P249  1  0.20843229  0.74948169  0.47646016  1
  P  P250  1  0.20719414  0.74824331  0.72692404  1
  P  P251  1  0.20735203  0.75102617  0.97655733  1
  P  P252  1  0.70867836  0.08376397  0.22673005  1
  P  P253  1  0.70740633  0.08226002  0.47856094  1
  P  P254  1  0.70829451  0.08181614  0.72780604  1
  P  P255  1  0.70829934  0.08406146  0.97845561  1
  P  P256  1  0.70825077  0.41836352  0.22853862  1
  P  P257  1  0.70832164  0.41590696  0.47834346  1
  P  P258  1  0.70793717  0.41739013  0.72769497  1
  P  P259  1  0.70758692  0.41681957  0.97927304  1
  P  P260  1  0.70826281  0.75177188  0.22880230  1
  P  P261  1  0.70954992  0.74990316  0.47776129  1
  P  P262  1  0.70934508  0.74960715  0.72632772  1
  P  P263  1  0.70820963  0.75048154  0.97900817  1
  P  P264  1  0.29104845  0.25082754  0.02280013  1
  P  P265  1  0.29156799  0.25165209  0.27160137  1
  P  P266  1  0.29195259  0.25184324  0.52238690  1
  P  P267  1  0.29178213  0.25151032  0.77189972  1
  P  P268  1  0.29238456  0.58305333  0.02065741  1
  P  P269  1  0.29222217  0.58450771  0.27239359  1
  P  P270  1  0.29076969  0.58393334  0.52268897  1
  P  P271  1  0.29189741  0.58162160  0.77084344  1
  P  P272  1  0.29192008  0.91641472  0.02116848  1
  P  P273  1  0.29166215  0.91611327  0.27263375  1
  P  P274  1  0.29145151  0.91745251  0.52189380  1
  P  P275  1  0.29140846  0.91532355  0.77182221  1
  P  P276  1  0.79266788  0.24815508  0.02280057  1
  P  P277  1  0.79273882  0.25148963  0.27285583  1
  P  P278  1  0.79318422  0.25030921  0.52153876  1
  P  P279  1  0.79282477  0.24800910  0.77306151  1
  P  P280  1  0.79307866  0.58213857  0.02353471  1
  P  P281  1  0.79304624  0.58513685  0.27338856  1
  P  P282  1  0.79173607  0.58350816  0.52364973  1
  P  P283  1  0.79297279  0.58326421  0.77102745  1
  P  P284  1  0.79133078  0.91646387  0.02413078  1
  P  P285  1  0.79204405  0.91533319  0.27237731  1
  P  P286  1  0.79144649  0.91590768  0.52331924  1
  P  P287  1  0.79331273  0.91619699  0.77103340  1
  O  O288  1  0.03681832  0.25146344  0.18229885  1
  O  O289  1  0.03669454  0.24924675  0.43420537  1
  O  O290  1  0.03614199  0.25073655  0.68151505  1
  O  O291  1  0.03672845  0.25115512  0.93218533  1
  O  O292  1  0.03736565  0.58427994  0.18228500  1
  O  O293  1  0.03645202  0.58160432  0.43315215  1
  O  O294  1  0.03630634  0.58286199  0.68186346  1
  O  O295  1  0.03706056  0.58306836  0.93088174  1
  O  O296  1  0.03576061  0.91705621  0.18212283  1
  O  O297  1  0.03598903  0.91613090  0.43213500  1
  O  O298  1  0.03707555  0.91543817  0.68089575  1
  O  O299  1  0.03693637  0.91577326  0.93354568  1
  O  O300  1  0.53781642  0.25001120  0.18314655  1
  O  O301  1  0.53752522  0.24864377  0.43357067  1
  O  O302  1  0.53736316  0.24817927  0.68253669  1
  O  O303  1  0.53808260  0.24940049  0.93333134  1
  O  O304  1  0.53741722  0.58583442  0.18253947  1
  O  O305  1  0.53794083  0.58495511  0.43376229  1
  O  O306  1  0.53769889  0.58530951  0.68253127  1
  O  O307  1  0.53818365  0.58518431  0.93376605  1
  O  O308  1  0.53650950  0.91614608  0.18136943  1
  O  O309  1  0.53772356  0.91579063  0.43216477  1
  O  O310  1  0.53752764  0.91657033  0.68403093  1
  O  O311  1  0.53610799  0.91658715  0.93195215  1
  O  O312  1  0.46180733  0.08194253  0.06612344  1
  O  O313  1  0.46219375  0.08378669  0.31755602  1
  O  O314  1  0.46272187  0.08295787  0.56755978  1
  O  O315  1  0.46265810  0.08076164  0.81713273  1
  O  O316  1  0.46199231  0.41787350  0.06680526  1
  O  O317  1  0.46182648  0.41737155  0.31699050  1
  O  O318  1  0.46242069  0.41700456  0.56658398  1
  O  O319  1  0.46257601  0.41712392  0.81661154  1
  O  O320  1  0.46329163  0.75209610  0.06668441  1
  O  O321  1  0.46241710  0.75019273  0.31766794  1
  O  O322  1  0.46281481  0.75036617  0.56777039  1
  O  O323  1  0.46366126  0.75142278  0.81827952  1
  O  O324  1  0.96332334  0.08172668  0.06776976  1
  O  O325  1  0.96351779  0.08185180  0.31832683  1
  O  O326  1  0.96303086  0.08318994  0.56576180  1
  O  O327  1  0.96256680  0.08207264  0.81798959  1
  O  O328  1  0.96318330  0.41807626  0.06771887  1
  O  O329  1  0.96329165  0.41750826  0.31884288  1
  O  O330  1  0.96393672  0.41671967  0.56786344  1
  O  O331  1  0.96347884  0.41511176  0.81676538  1
  O  O332  1  0.96314184  0.75193874  0.06763214  1
  O  O333  1  0.96333192  0.74984162  0.31866701  1
  O  O334  1  0.96389232  0.74817699  0.56674185  1
  O  O335  1  0.96369947  0.74843028  0.81846729  1
  O  O336  1  0.21205375  0.08526490  0.05839574  1
  O  O337  1  0.21208143  0.08501470  0.30729560  1
  O  O338  1  0.21209678  0.08267778  0.55867627  1
  O  O339  1  0.21191134  0.08205871  0.80712966  1
  O  O340  1  0.21295436  0.41650115  0.05546314  1
  O  O341  1  0.21279181  0.41555918  0.30698728  1
  O  O342  1  0.21336003  0.41603440  0.55754378  1
  O  O343  1  0.21349267  0.41684441  0.80606839  1
  O  O344  1  0.21215528  0.75072367  0.05653421  1
  O  O345  1  0.21244650  0.74998236  0.30893344  1
  O  O346  1  0.21301956  0.74916159  0.55645988  1
  O  O347  1  0.21239923  0.74886824  0.80678480  1
  O  O348  1  0.71365371  0.08397636  0.05831342  1
  O  O349  1  0.71317509  0.08330235  0.30671099  1
  O  O350  1  0.71279820  0.08145641  0.55841612  1
  O  O351  1  0.71383626  0.08270721  0.80771462  1
  O  O352  1  0.71301856  0.41743110  0.05920726  1
  O  O353  1  0.71366461  0.41758022  0.30847911  1
  O  O354  1  0.71368146  0.41655684  0.55827850  1
  O  O355  1  0.71272256  0.41696745  0.80767802  1
  O  O356  1  0.71308316  0.75109912  0.05895260  1
  O  O357  1  0.71368910  0.75166247  0.30866359  1
  O  O358  1  0.71485163  0.74957677  0.55761401  1
  O  O359  1  0.71401508  0.74988541  0.80628835  1
  O  O360  1  0.28590962  0.25103327  0.19175047  1
  O  O361  1  0.28679280  0.25195961  0.44245690  1
  O  O362  1  0.28671348  0.25129271  0.69198562  1
  O  O363  1  0.28612806  0.25104840  0.94283370  1
  O  O364  1  0.28711492  0.58407520  0.19244825  1
  O  O365  1  0.28593144  0.58421142  0.44273948  1
  O  O366  1  0.28632213  0.58209891  0.69101536  1
  O  O367  1  0.28722557  0.58259168  0.94071453  1
  O  O368  1  0.28695983  0.91652214  0.19265364  1
  O  O369  1  0.28613434  0.91686242  0.44198809  1
  O  O370  1  0.28605947  0.91607921  0.69187731  1
  O  O371  1  0.28651513  0.91559385  0.94126874  1
  O  O372  1  0.78738869  0.25088425  0.19291053  1
  O  O373  1  0.78795654  0.25120278  0.44163497  1
  O  O374  1  0.78780654  0.24848065  0.69309039  1
  O  O375  1  0.78704013  0.24774591  0.94290509  1
  O  O376  1  0.78793989  0.58458929  0.19351927  1
  O  O377  1  0.78704826  0.58381998  0.44367857  1
  O  O378  1  0.78728490  0.58324438  0.69116113  1
  O  O379  1  0.78801373  0.58241518  0.94355297  1
  O  O380  1  0.78671947  0.91560343  0.19253602  1
  O  O381  1  0.78653029  0.91516476  0.44339628  1
  O  O382  1  0.78808870  0.91624787  0.69116270  1
  O  O383  1  0.78729159  0.91671137  0.94409083  1
  O  O384  1  0.22682837  0.25095302  0.05882467  1
  O  O385  1  0.22747724  0.25229456  0.30808076  1
  O  O386  1  0.22762564  0.25179239  0.55802518  1
  O  O387  1  0.22740501  0.25193379  0.80739956  1
  O  O388  1  0.22799367  0.58296336  0.05594860  1
  O  O389  1  0.22790093  0.58489793  0.30794407  1
  O  O390  1  0.22660112  0.58416639  0.55860572  1
  O  O391  1  0.22777774  0.58148490  0.80712883  1
  O  O392  1  0.22765595  0.91724034  0.05669385  1
  O  O393  1  0.22718292  0.91592102  0.30765986  1
  O  O394  1  0.22721560  0.91752710  0.55771758  1
  O  O395  1  0.22716659  0.91467826  0.80765181  1
  O  O396  1  0.72852532  0.24830440  0.05888309  1
  O  O397  1  0.72847234  0.25200922  0.30867983  1
  O  O398  1  0.72890601  0.25000818  0.55696488  1
  O  O399  1  0.72843792  0.24748137  0.80856371  1
  O  O400  1  0.72872458  0.58196974  0.05905484  1
  O  O401  1  0.72876884  0.58550546  0.30911775  1
  O  O402  1  0.72752213  0.58372389  0.55943491  1
  O  O403  1  0.72881116  0.58356888  0.80698903  1
  O  O404  1  0.72696043  0.91624509  0.05932308  1
  O  O405  1  0.72781476  0.91460836  0.30831295  1
  O  O406  1  0.72741655  0.91655847  0.55947880  1
  O  O407  1  0.72905685  0.91654509  0.80670614  1
  O  O408  1  0.27138918  0.08574545  0.19184971  1
  O  O409  1  0.27109359  0.08375970  0.44324645  1
  O  O410  1  0.27130153  0.08195142  0.69177133  1
  O  O411  1  0.27084084  0.08396673  0.94286922  1
  O  O412  1  0.27160389  0.41499475  0.19112415  1
  O  O413  1  0.27192435  0.41533332  0.44129998  1
  O  O414  1  0.27268751  0.41612567  0.68999365  1
  O  O415  1  0.27225143  0.41711265  0.93950880  1
  O  O416  1  0.27126360  0.74987975  0.19329789  1
  O  O417  1  0.27263056  0.74943537  0.44066442  1
  O  O418  1  0.27149590  0.74819127  0.69124210  1
  O  O419  1  0.27172955  0.75106494  0.94115086  1
  O  O420  1  0.77300035  0.08404058  0.19125566  1
  O  O421  1  0.77170442  0.08262265  0.44311017  1
  O  O422  1  0.77244083  0.08099557  0.69169828  1
  O  O423  1  0.77252507  0.08449582  0.94233682  1
  O  O424  1  0.77252616  0.41840075  0.19272844  1
  O  O425  1  0.77255821  0.41560301  0.44247308  1
  O  O426  1  0.77243920  0.41776553  0.69262042  1
  O  O427  1  0.77187152  0.41603345  0.94376374  1
  O  O428  1  0.77241976  0.75186965  0.19270188  1
  O  O429  1  0.77358366  0.75025834  0.44126197  1
  O  O430  1  0.77357785  0.74867251  0.69072804  1
  O  O431  1  0.77270996  0.75014002  0.94398393  1
  O  O432  1  0.02226930  0.08140983  0.18354607  1
  O  O433  1  0.02265745  0.08308355  0.43437135  1
  O  O434  1  0.02180510  0.08316085  0.68156690  1
  O  O435  1  0.02164222  0.08152848  0.93358680  1
  O  O436  1  0.02228864  0.41853376  0.18345355  1
  O  O437  1  0.02278332  0.41763221  0.43462352  1
  O  O438  1  0.02317657  0.41574567  0.68389330  1
  O  O439  1  0.02237689  0.41526450  0.93272100  1
  O  O440  1  0.02212778  0.75159677  0.18364103  1
  O  O441  1  0.02322521  0.74971217  0.43407277  1
  O  O442  1  0.02267563  0.74722811  0.68276507  1
  O  O443  1  0.02265502  0.74964240  0.93456882  1
  O  O444  1  0.52122988  0.08251429  0.18117865  1
  O  O445  1  0.52167503  0.08475514  0.43277827  1
  O  O446  1  0.52159812  0.08097884  0.68329047  1
  O  O447  1  0.52163292  0.08094341  0.93280791  1
  O  O448  1  0.52147921  0.41763900  0.18169138  1
  O  O449  1  0.52120395  0.41698897  0.43190320  1
  O  O450  1  0.52201213  0.41695954  0.68142562  1
  O  O451  1  0.52157228  0.41743023  0.93175200  1
  O  O452  1  0.52205900  0.75261338  0.18267732  1
  O  O453  1  0.52213094  0.74881205  0.43292444  1
  O  O454  1  0.52215813  0.75259529  0.68309977  1
  O  O455  1  0.52270003  0.75084948  0.93430297  1
  O  O456  1  0.47836727  0.24974509  0.06826824  1
  O  O457  1  0.47847979  0.24973075  0.31836021  1
  O  O458  1  0.47808564  0.24765320  0.56711757  1
  O  O459  1  0.47867831  0.24944276  0.81847865  1
  O  O460  1  0.47835150  0.58661251  0.06695771  1
  O  O461  1  0.47867864  0.58456440  0.31867263  1
  O  O462  1  0.47797610  0.58583500  0.56735921  1
  O  O463  1  0.47914495  0.58455102  0.81856524  1
  O  O464  1  0.47728268  0.91662702  0.06540705  1
  O  O465  1  0.47794239  0.91504439  0.31711587  1
  O  O466  1  0.47851715  0.91664228  0.56852407  1
  O  O467  1  0.47750606  0.91628245  0.81546011  1
  O  O468  1  0.97758743  0.25154650  0.06671703  1
  O  O469  1  0.97805274  0.24965473  0.31836583  1
  O  O470  1  0.97681039  0.24932424  0.56560267  1
  O  O471  1  0.97764066  0.25149084  0.81653914  1
  O  O472  1  0.97837328  0.58485654  0.06653311  1
  O  O473  1  0.97779984  0.58191919  0.31704398  1
  O  O474  1  0.97704259  0.58195874  0.56579975  1
  O  O475  1  0.97744902  0.58346843  0.81511499  1
  O  O476  1  0.97696566  0.91667820  0.06564967  1
  O  O477  1  0.97672401  0.91701148  0.31611510  1
  O  O478  1  0.97698646  0.91517470  0.56563914  1
  O  O479  1  0.97836333  0.91550003  0.81768795  1
  O  O480  1  0.07243923  0.31520776  0.07381414  1
  O  O481  1  0.07325402  0.31322654  0.32632895  1
  O  O482  1  0.07123569  0.31392529  0.57279134  1
  O  O483  1  0.07329246  0.31399908  0.82325998  1
  O  O484  1  0.07307796  0.64865208  0.07404685  1
  O  O485  1  0.07313310  0.64543427  0.32550663  1
  O  O486  1  0.07146400  0.64621579  0.57282402  1
  O  O487  1  0.07302444  0.64633597  0.82261497  1
  O  O488  1  0.07191342  0.98040654  0.07371984  1
  O  O489  1  0.07222149  0.97986574  0.32395701  1
  O  O490  1  0.07152201  0.97950313  0.57245076  1
  O  O491  1  0.07360169  0.97927051  0.82533111  1
  O  O492  1  0.57386621  0.31354219  0.07529712  1
  O  O493  1  0.57375561  0.31338373  0.32602919  1
  O  O494  1  0.57336689  0.31171307  0.57480327  1
  O  O495  1  0.57433973  0.31271920  0.82513373  1
  O  O496  1  0.57367813  0.64954842  0.07446881  1
  O  O497  1  0.57448702  0.64756805  0.32517124  1
  O  O498  1  0.57307743  0.64912738  0.57410970  1
  O  O499  1  0.57482362  0.64790592  0.82545262  1
  O  O500  1  0.57197942  0.98061671  0.07341745  1
  O  O501  1  0.57329313  0.97906566  0.32407970  1
  O  O502  1  0.57393038  0.97994617  0.57546107  1
  O  O503  1  0.57239223  0.98009988  0.82366453  1
  O  O504  1  0.42547603  0.01942813  0.17489069  1
  O  O505  1  0.42658802  0.02029040  0.42539859  1
  O  O506  1  0.42629777  0.01833773  0.67546486  1
  O  O507  1  0.42625192  0.01784343  0.92570909  1
  O  O508  1  0.42596194  0.35431201  0.17491421  1
  O  O509  1  0.42565949  0.35366616  0.42494960  1
  O  O510  1  0.42657645  0.35338170  0.67454825  1
  O  O511  1  0.42620763  0.35365923  0.92460758  1
  O  O512  1  0.42663112  0.68886083  0.17468303  1
  O  O513  1  0.42688793  0.68602676  0.42624331  1
  O  O514  1  0.42713442  0.68777483  0.67632849  1
  O  O515  1  0.42790711  0.68703298  0.92609557  1
  O  O516  1  0.92673025  0.01876294  0.17648158  1
  O  O517  1  0.92805583  0.01873303  0.42703574  1
  O  O518  1  0.92677839  0.01915208  0.67377222  1
  O  O519  1  0.92645135  0.01828855  0.92626535  1
  O  O520  1  0.92667953  0.35506890  0.17573541  1
  O  O521  1  0.92874162  0.35267042  0.42694807  1
  O  O522  1  0.92765476  0.35287322  0.67584839  1
  O  O523  1  0.92730625  0.35197647  0.92587889  1
  O  O524  1  0.92669475  0.68836912  0.17554537  1
  O  O525  1  0.92864036  0.68564401  0.42709009  1
  O  O526  1  0.92734873  0.68452319  0.67520947  1
  O  O527  1  0.92793096  0.68545273  0.92711940  1
  O  O528  1  0.17636731  0.02135334  0.19961108  1
  O  O529  1  0.17549347  0.02044757  0.44993817  1
  O  O530  1  0.17647100  0.01806514  0.69868603  1
  O  O531  1  0.17527142  0.02098095  0.95091948  1
  O  O532  1  0.17596452  0.35255293  0.19835400  1
  O  O533  1  0.17672753  0.35232102  0.44928019  1
  O  O534  1  0.17731677  0.35305082  0.69795845  1
  O  O535  1  0.17741113  0.35308689  0.94709385  1
  O  O536  1  0.17580402  0.68658402  0.20045326  1
  O  O537  1  0.17716054  0.68620448  0.44814622  1
  O  O538  1  0.17668488  0.68448281  0.69854991  1
  O  O539  1  0.17637125  0.68736346  0.94869289  1
  O  O540  1  0.67835636  0.01984492  0.19813525  1
  O  O541  1  0.67616147  0.01912652  0.44979521  1
  O  O542  1  0.67729154  0.01818099  0.69996476  1
  O  O543  1  0.67752330  0.02025305  0.95028609  1
  O  O544  1  0.67667919  0.35523245  0.20027982  1
  O  O545  1  0.67753314  0.35235205  0.45001687  1
  O  O546  1  0.67707187  0.35362970  0.69986514  1
  O  O547  1  0.67631989  0.35315028  0.95165186  1
  O  O548  1  0.67713489  0.68810806  0.20092547  1
  O  O549  1  0.67899806  0.68615815  0.44908874  1
  O  O550  1  0.67764183  0.68649721  0.69826693  1
  O  O551  1  0.67739349  0.68676936  0.95099872  1
  O  O552  1  0.32207157  0.31434850  0.05105331  1
  O  O553  1  0.32279191  0.31501094  0.29995253  1
  O  O554  1  0.32297864  0.31505922  0.55106604  1
  O  O555  1  0.32293496  0.31465049  0.80064012  1
  O  O556  1  0.32308314  0.64686296  0.04866069  1
  O  O557  1  0.32326976  0.64783736  0.30079586  1
  O  O558  1  0.32212833  0.64713059  0.55120004  1
  O  O559  1  0.32320963  0.64513665  0.79896397  1
  O  O560  1  0.32319831  0.98006304  0.04871597  1
  O  O561  1  0.32272024  0.97976128  0.30042267  1
  O  O562  1  0.32198337  0.98116999  0.55033388  1
  O  O563  1  0.32246326  0.97871287  0.80016737  1
  O  O564  1  0.82372602  0.31207449  0.05004301  1
  O  O565  1  0.82356800  0.31514118  0.30103561  1
  O  O566  1  0.82458993  0.31323998  0.55051732  1
  O  O567  1  0.82341189  0.31186227  0.80106222  1
  O  O568  1  0.82391025  0.64590318  0.05135702  1
  O  O569  1  0.82373648  0.64878972  0.30180933  1
  O  O570  1  0.82306061  0.64681191  0.55185086  1
  O  O571  1  0.82434394  0.64651410  0.79962161  1
  O  O572  1  0.82150731  0.98045075  0.05273061  1
  O  O573  1  0.82261577  0.97928063  0.30054075  1
  O  O574  1  0.82263295  0.97949463  0.55103030  1
  O  O575  1  0.82480493  0.97924120  0.79982328  1
  O  O576  1  0.42589200  0.14628618  0.17397847  1
  O  O577  1  0.42621446  0.14758447  0.42602851  1
  O  O578  1  0.42634047  0.14541047  0.67591284  1
  O  O579  1  0.42648695  0.14508227  0.92446788  1
  O  O580  1  0.42614165  0.48153176  0.17473038  1
  O  O581  1  0.42573675  0.48067907  0.42512084  1
  O  O582  1  0.42664512  0.48067604  0.67452786  1
  O  O583  1  0.42603026  0.48072313  0.92444006  1
  O  O584  1  0.42704920  0.81579988  0.17546490  1
  O  O585  1  0.42681453  0.81308337  0.42597903  1
  O  O586  1  0.42649151  0.81476133  0.67582760  1
  O  O587  1  0.42744714  0.81443200  0.92643645  1
  O  O588  1  0.92747765  0.14586535  0.17537003  1
  O  O589  1  0.92736035  0.14614551  0.42594835  1
  O  O590  1  0.92616674  0.14598200  0.67429580  1
  O  O591  1  0.92654925  0.14553621  0.92583371  1
  O  O592  1  0.92759820  0.48222856  0.17619408  1
  O  O593  1  0.92687364  0.47996203  0.42740344  1
  O  O594  1  0.92868396  0.48006259  0.67668042  1
  O  O595  1  0.92700285  0.47893412  0.92442788  1
  O  O596  1  0.92737808  0.81532917  0.17655343  1
  O  O597  1  0.92781462  0.81300372  0.42716533  1
  O  O598  1  0.92778824  0.81148446  0.67492215  1
  O  O599  1  0.92742711  0.81282519  0.92621716  1
  O  O600  1  0.07289813  0.18788232  0.07470268  1
  O  O601  1  0.07351482  0.18643976  0.32563893  1
  O  O602  1  0.07224517  0.18649003  0.57388688  1
  O  O603  1  0.07246237  0.18695356  0.82452129  1
  O  O604  1  0.07399444  0.52157047  0.07399564  1
  O  O605  1  0.07277957  0.51846575  0.32427365  1
  O  O606  1  0.07259726  0.51909792  0.57388278  1
  O  O607  1  0.07172844  0.51898144  0.82236243  1
  O  O608  1  0.07203458  0.85320886  0.07401331  1
  O  O609  1  0.07117879  0.85264283  0.32333616  1
  O  O610  1  0.07245354  0.85202904  0.57268827  1
  O  O611  1  0.07381929  0.85250235  0.82512568  1
  O  O612  1  0.57388921  0.18641051  0.07513332  1
  O  O613  1  0.57428310  0.18645212  0.32484500  1
  O  O614  1  0.57321416  0.18429407  0.57436739  1
  O  O615  1  0.57405344  0.18566463  0.82547848  1
  O  O616  1  0.57341672  0.52216803  0.07497518  1
  O  O617  1  0.57396377  0.52071632  0.32590600  1
  O  O618  1  0.57334120  0.52176677  0.57478316  1
  O  O619  1  0.57449170  0.52102474  0.82570029  1
  O  O620  1  0.57268204  0.85341167  0.07274643  1
  O  O621  1  0.57312849  0.85182202  0.32370188  1
  O  O622  1  0.57405389  0.85335688  0.57565755  1
  O  O623  1  0.57258077  0.85280422  0.82393192  1
  O  O624  1  0.32154964  0.18690360  0.05106552  1
  O  O625  1  0.32252810  0.18802399  0.30004088  1
  O  O626  1  0.32278893  0.18795586  0.55020706  1
  O  O627  1  0.32238302  0.18749605  0.79982677  1
  O  O628  1  0.32375984  0.51994604  0.04928554  1
  O  O629  1  0.32294882  0.52065201  0.30031479  1
  O  O630  1  0.32102106  0.51974064  0.55072988  1
  O  O631  1  0.32286506  0.51823153  0.79948851  1
  O  O632  1  0.32294711  0.85315098  0.04988854  1
  O  O633  1  0.32223727  0.85249998  0.30131651  1
  O  O634  1  0.32288779  0.85402237  0.54985408  1
  O  O635  1  0.32215249  0.85146709  0.79977884  1
  O  O636  1  0.82379756  0.18504988  0.05181219  1
  O  O637  1  0.82376964  0.18782066  0.30081836  1
  O  O638  1  0.82407227  0.18638828  0.54900055  1
  O  O639  1  0.82377948  0.18446969  0.80114167  1
  O  O640  1  0.82386013  0.51860995  0.05192205  1
  O  O641  1  0.82419162  0.52171903  0.30169501  1
  O  O642  1  0.82193616  0.51932078  0.55179104  1
  O  O643  1  0.82411379  0.51978616  0.79931837  1
  O  O644  1  0.82243652  0.85299588  0.05227422  1
  O  O645  1  0.82352897  0.85241013  0.30145485  1
  O  O646  1  0.82199112  0.85207746  0.55193822  1
  O  O647  1  0.82426823  0.85256223  0.79941375  1
  O  O648  1  0.17603319  0.14872823  0.19902657  1
  O  O649  1  0.17588683  0.14729396  0.45117784  1
  O  O650  1  0.17572890  0.14548593  0.69961058  1
  O  O651  1  0.17554440  0.14781536  0.94966908  1
  O  O652  1  0.17689522  0.47962318  0.19935304  1
  O  O653  1  0.17691157  0.47934739  0.44955115  1
  O  O654  1  0.17811084  0.48020053  0.69711321  1
  O  O655  1  0.17714798  0.48046335  0.94719698  1
  O  O656  1  0.17576972  0.81333618  0.20062826  1
  O  O657  1  0.17826671  0.81374069  0.44830258  1
  O  O658  1  0.17577642  0.81149339  0.69854979  1
  O  O659  1  0.17673602  0.81463944  0.94817990  1
  O  O660  1  0.67773314  0.14745532  0.19892287  1
  O  O661  1  0.67639494  0.14598497  0.45084133  1
  O  O662  1  0.67725858  0.14535198  0.69957821  1
  O  O663  1  0.67708889  0.14719677  0.94951677  1
  O  O664  1  0.67790579  0.48243517  0.20057783  1
  O  O665  1  0.67708550  0.47949089  0.45045818  1
  O  O666  1  0.67719732  0.48091643  0.69905387  1
  O  O667  1  0.67652989  0.48007269  0.95060541  1
  O  O668  1  0.67722452  0.81499272  0.19972512  1
  O  O669  1  0.67818046  0.81338515  0.44972694  1
  O  O670  1  0.67944583  0.81380619  0.69779485  1
  O  O671  1  0.67713023  0.81364765  0.95001420  1
