# generated using pymatgen
data_Na2MnFe(PO4)2
_symmetry_space_group_name_H-M   'P 1'
_cell_length_a   22.34543770
_cell_length_b   20.09854926
_cell_length_c   19.44768915
_cell_angle_alpha   90.00760552
_cell_angle_beta   90.04388842
_cell_angle_gamma   89.98679134
_symmetry_Int_Tables_number   1
_chemical_formula_structural   Na2MnFe(PO4)2
_chemical_formula_sum   'Na96 Mn48 Fe48 P96 O384'
_cell_volume   8734.16592232
_cell_formula_units_Z   48
loop_
 _symmetry_equiv_pos_site_id
 _symmetry_equiv_pos_as_xyz
  1  'x, y, z'
loop_
 _atom_site_type_symbol
 _atom_site_label
 _atom_site_symmetry_multiplicity
 _atom_site_fract_x
 _atom_site_fract_y
 _atom_site_fract_z
 _atom_site_occupancy
  Na  Na0  1  0.14027856  0.24916792  0.24239030  1
  Na  Na1  1  0.14034445  0.24884419  0.49413061  1
  Na  Na2  1  0.14036129  0.24975352  0.74451238  1
  Na  Na3  1  0.14089077  0.24915982  0.99333612  1
  Na  Na4  1  0.14030682  0.58379090  0.24200375  1
  Na  Na5  1  0.14063142  0.58419950  0.49377351  1
  Na  Na6  1  0.14046586  0.58263019  0.74462315  1
  Na  Na7  1  0.14017718  0.58185919  0.99481937  1
  Na  Na8  1  0.14126571  0.91708971  0.24259582  1
  Na  Na9  1  0.14092149  0.91782105  0.49349196  1
  Na  Na10  1  0.14010695  0.91841799  0.74369554  1
  Na  Na11  1  0.14007377  0.91793041  0.99329437  1
  Na  Na12  1  0.63975409  0.24929749  0.24322522  1
  Na  Na13  1  0.64041223  0.24930592  0.49494772  1
  Na  Na14  1  0.64014604  0.24899322  0.74381819  1
  Na  Na15  1  0.64037809  0.25081861  0.99507045  1
  Na  Na16  1  0.63965466  0.58275021  0.24359684  1
  Na  Na17  1  0.64020377  0.58393422  0.49347922  1
  Na  Na18  1  0.63966931  0.58372740  0.74402254  1
  Na  Na19  1  0.63939570  0.58411202  0.99432417  1
  Na  Na20  1  0.63997445  0.91557378  0.24346020  1
  Na  Na21  1  0.63990178  0.91633484  0.49342153  1
  Na  Na22  1  0.63945583  0.91670476  0.74187349  1
  Na  Na23  1  0.63947201  0.91822866  0.99278829  1
  Na  Na24  1  0.35970565  0.08188040  0.00669547  1
  Na  Na25  1  0.35994932  0.08191513  0.25660966  1
  Na  Na26  1  0.36006599  0.08233631  0.50504715  1
  Na  Na27  1  0.35978426  0.08380852  0.75722128  1
  Na  Na28  1  0.35963285  0.41610811  0.00825469  1
  Na  Na29  1  0.35998271  0.41615243  0.25735245  1
  Na  Na30  1  0.35991271  0.41584262  0.50603777  1
  Na  Na31  1  0.35983871  0.41533475  0.75755822  1
  Na  Na32  1  0.35954710  0.75011933  0.00816086  1
  Na  Na33  1  0.35929353  0.75069201  0.25515217  1
  Na  Na34  1  0.35988964  0.75105752  0.50621385  1
  Na  Na35  1  0.36062323  0.75094657  0.75745633  1
  Na  Na36  1  0.85989659  0.08453430  0.00547360  1
  Na  Na37  1  0.85967631  0.08291456  0.25526280  1
  Na  Na38  1  0.85982551  0.08341117  0.50613969  1
  Na  Na39  1  0.86016147  0.08319999  0.75593561  1
  Na  Na40  1  0.86033658  0.41759768  0.00701262  1
  Na  Na41  1  0.85999078  0.41697351  0.25603325  1
  Na  Na42  1  0.85966473  0.41702183  0.50648580  1
  Na  Na43  1  0.86005946  0.41606404  0.75714929  1
  Na  Na44  1  0.85931160  0.75119806  0.00607755  1
  Na  Na45  1  0.85922120  0.74934035  0.25553594  1
  Na  Na46  1  0.85963183  0.75080295  0.50469055  1
  Na  Na47  1  0.85958482  0.75032609  0.75510150  1
  Na  Na48  1  0.11026264  0.08486093  0.11773405  1
  Na  Na49  1  0.11058960  0.08476995  0.36699605  1
  Na  Na50  1  0.11044817  0.08424940  0.61963647  1
  Na  Na51  1  0.10997295  0.08320483  0.86782125  1
  Na  Na52  1  0.10969717  0.41688275  0.11889210  1
  Na  Na53  1  0.10923180  0.41695566  0.36772243  1
  Na  Na54  1  0.10971129  0.41646249  0.62066767  1
  Na  Na55  1  0.10984995  0.41527488  0.86973568  1
  Na  Na56  1  0.10977381  0.74977757  0.11786385  1
  Na  Na57  1  0.11009154  0.75022535  0.36717006  1
  Na  Na58  1  0.10975482  0.75094400  0.61947453  1
  Na  Na59  1  0.10930864  0.75008387  0.86955047  1
  Na  Na60  1  0.60955707  0.08230910  0.11829404  1
  Na  Na61  1  0.60936848  0.08290639  0.36866293  1
  Na  Na62  1  0.60968906  0.08161281  0.61858938  1
  Na  Na63  1  0.60953220  0.08306983  0.86743840  1
  Na  Na64  1  0.60901808  0.41685449  0.11950852  1
  Na  Na65  1  0.60897933  0.41611484  0.36871450  1
  Na  Na66  1  0.60898609  0.41582247  0.61998319  1
  Na  Na67  1  0.60892762  0.41810489  0.86991289  1
  Na  Na68  1  0.60897673  0.74977811  0.11736490  1
  Na  Na69  1  0.60973737  0.75030873  0.36796425  1
  Na  Na70  1  0.60915919  0.74914347  0.61794791  1
  Na  Na71  1  0.60856571  0.75070543  0.86877285  1
  Na  Na72  1  0.39088419  0.24875842  0.13273441  1
  Na  Na73  1  0.39057235  0.24867961  0.38092157  1
  Na  Na74  1  0.39015022  0.24820154  0.63195130  1
  Na  Na75  1  0.39010558  0.24987098  0.88240630  1
  Na  Na76  1  0.38994914  0.58257348  0.13207160  1
  Na  Na77  1  0.39030726  0.58338024  0.38071370  1
  Na  Na78  1  0.39105085  0.58270563  0.63153559  1
  Na  Na79  1  0.39076180  0.58433930  0.88269179  1
  Na  Na80  1  0.38977020  0.91699080  0.13165542  1
  Na  Na81  1  0.38994513  0.91684002  0.38106606  1
  Na  Na82  1  0.39098604  0.91567230  0.63095221  1
  Na  Na83  1  0.39079044  0.91614847  0.88193933  1
  Na  Na84  1  0.89086465  0.25197259  0.13127009  1
  Na  Na85  1  0.89051033  0.25063147  0.37995945  1
  Na  Na86  1  0.89092823  0.24966247  0.63285514  1
  Na  Na87  1  0.89037860  0.25008213  0.88136921  1
  Na  Na88  1  0.89053238  0.58299879  0.13215037  1
  Na  Na89  1  0.89029270  0.58401231  0.37996886  1
  Na  Na90  1  0.89042759  0.58393430  0.63145453  1
  Na  Na91  1  0.89083429  0.58239260  0.88103817  1
  Na  Na92  1  0.89020880  0.91815407  0.13089957  1
  Na  Na93  1  0.89039230  0.91681217  0.38020790  1
  Na  Na94  1  0.89079888  0.91784044  0.63116454  1
  Na  Na95  1  0.89047745  0.91716061  0.87968687  1
  Mn  Mn96  1  0.24931511  0.33172977  0.37518122  1
  Mn  Mn97  1  0.00054929  0.83360522  0.24934858  1
  Mn  Mn98  1  0.25025988  0.33188852  0.62554978  1
  Mn  Mn99  1  0.74968763  0.50078818  0.62527308  1
  Mn  Mn100  1  0.75012019  0.16670786  0.12514280  1
  Mn  Mn101  1  0.49980650  0.66617121  0.49989760  1
  Mn  Mn102  1  0.75008390  0.33247388  0.62596007  1
  Mn  Mn103  1  0.25099612  0.49903029  0.87544331  1
  Mn  Mn104  1  0.00061658  0.00170799  0.24980229  1
  Mn  Mn105  1  0.75027087  0.50065067  0.87557316  1
  Mn  Mn106  1  0.75005330  0.00132622  0.87389981  1
  Mn  Mn107  1  0.00070071  0.83397007  0.49945595  1
  Mn  Mn108  1  0.25073466  0.33190468  0.12550783  1
  Mn  Mn109  1  0.74991573  0.16585242  0.37448797  1
  Mn  Mn110  1  0.50062304  0.16579186  0.00063613  1
  Mn  Mn111  1  0.74971915  0.50060797  0.12550855  1
  Mn  Mn112  1  -0.00072544  0.66563703  -0.00098275  1
  Mn  Mn113  1  0.49984846  0.16588588  0.75051240  1
  Mn  Mn114  1  0.25045583  0.49950994  0.62531255  1
  Mn  Mn115  1  0.24999544  0.66667267  0.87627237  1
  Mn  Mn116  1  0.74998650  0.33282858  0.37572963  1
  Mn  Mn117  1  0.00011115  0.50033198  0.49987315  1
  Mn  Mn118  1  0.00017820  0.16728774  -0.00082870  1
  Mn  Mn119  1  0.00034189  0.66646112  0.75048605  1
  Mn  Mn120  1  0.50009836  0.33289499  0.50018084  1
  Mn  Mn121  1  0.74930832  0.50072797  0.37556879  1
  Mn  Mn122  1  0.25029462  0.66734966  0.62509514  1
  Mn  Mn123  1  0.74988028  0.83319125  0.62401111  1
  Mn  Mn124  1  0.25063225  0.66788530  0.37398672  1
  Mn  Mn125  1  0.74946313  0.33299216  0.87546423  1
  Mn  Mn126  1  0.74980722  0.66726378  0.87469015  1
  Mn  Mn127  1  0.74942719  0.83358355  0.12469312  1
  Mn  Mn128  1  0.49959353  0.50012554  0.75059888  1
  Mn  Mn129  1  0.49938364  0.83390355  0.24902386  1
  Mn  Mn130  1  0.25085254  0.00127148  0.62413204  1
  Mn  Mn131  1  -0.00066445  0.83413809  -0.00064450  1
  Mn  Mn132  1  0.50058266  0.16517743  0.50070831  1
  Mn  Mn133  1  0.74915531  0.83421544  0.87457503  1
  Mn  Mn134  1  0.49943626  0.66612685  0.24964406  1
  Mn  Mn135  1  0.00008710  0.33375629  0.50002633  1
  Mn  Mn136  1  0.24915880  0.83447646  0.87622019  1
  Mn  Mn137  1  0.74934308  -0.00119867  0.37537134  1
  Mn  Mn138  1  0.50004369  0.33395516  0.00147706  1
  Mn  Mn139  1  0.25007424  0.49998570  0.37518746  1
  Mn  Mn140  1  0.25023512  0.83431544  0.62558537  1
  Mn  Mn141  1  0.00036606  0.16746114  0.50004867  1
  Mn  Mn142  1  0.00061894  0.66700585  0.50019038  1
  Mn  Mn143  1  0.00064065  0.00110262  0.49985603  1
  Fe  Fe144  1  0.00004761  0.50015912  0.24968314  1
  Fe  Fe145  1  0.25045206  0.00056811  0.87566214  1
  Fe  Fe146  1  0.49974493  -0.00127516  0.74962435  1
  Fe  Fe147  1  0.25027992  0.16621900  0.87535179  1
  Fe  Fe148  1  0.75019167  0.83298443  0.37433750  1
  Fe  Fe149  1  0.49964688  0.83364411  -0.00085625  1
  Fe  Fe150  1  0.75054465  0.16616333  0.62485552  1
  Fe  Fe151  1  -0.00006405  0.00066220  -0.00095115  1
  Fe  Fe152  1  0.49986777  -0.00104776  0.49962451  1
  Fe  Fe153  1  0.75006710  0.66729423  0.62419561  1
  Fe  Fe154  1  0.49979156  0.33340229  0.25075379  1
  Fe  Fe155  1  -0.00013328  0.66636783  0.24897005  1
  Fe  Fe156  1  0.00006727  0.33354347  0.75058625  1
  Fe  Fe157  1  0.49963995  0.49924578  0.50030225  1
  Fe  Fe158  1  0.25075842  0.16552801  0.12438450  1
  Fe  Fe159  1  0.74928587  0.66714237  0.12508052  1
  Fe  Fe160  1  0.24985889  0.49903799  0.12523358  1
  Fe  Fe161  1  0.24991685  0.00011531  0.37426470  1
  Fe  Fe162  1  0.25035779  0.16637464  0.62516916  1
  Fe  Fe163  1  0.75028788  0.00011367  0.62426991  1
  Fe  Fe164  1  0.49993767  0.66701902  0.75056053  1
  Fe  Fe165  1  0.49987461  0.49993900  0.25012489  1
  Fe  Fe166  1  0.74988366  0.33366767  0.12498787  1
  Fe  Fe167  1  0.00034036  0.33367677  -0.00000043  1
  Fe  Fe168  1  0.00011152  0.49905859  0.00071803  1
  Fe  Fe169  1  0.25028018  0.33224531  0.87603444  1
  Fe  Fe170  1  0.49884625  0.50011137  0.00052980  1
  Fe  Fe171  1  0.50005965  0.16574158  0.25059144  1
  Fe  Fe172  1  0.24966419  0.66671384  0.12537159  1
  Fe  Fe173  1  0.74961762  0.66698062  0.37442921  1
  Fe  Fe174  1  0.24973207  0.83407830  0.12519425  1
  Fe  Fe175  1  0.24970751  0.00011370  0.12524251  1
  Fe  Fe176  1  0.49968279  -0.00070144  -0.00031871  1
  Fe  Fe177  1  0.50017518  0.83297928  0.50003039  1
  Fe  Fe178  1  0.49989911  0.83291274  0.75021140  1
  Fe  Fe179  1  0.49946834  0.33320330  0.75076626  1
  Fe  Fe180  1  0.25036622  0.16570982  0.37417658  1
  Fe  Fe181  1  0.00041686  0.49939614  0.75097346  1
  Fe  Fe182  1  0.50075445  -0.00060098  0.24985167  1
  Fe  Fe183  1  0.00007341  0.83378155  0.74989542  1
  Fe  Fe184  1  0.49961005  0.66668479  -0.00018940  1
  Fe  Fe185  1  0.00023315  0.16673067  0.75078633  1
  Fe  Fe186  1  0.00066911  0.00014606  0.74969390  1
  Fe  Fe187  1  0.74962919  -0.00006417  0.12454972  1
  Fe  Fe188  1  0.00019510  0.33412026  0.24957200  1
  Fe  Fe189  1  -0.00032410  0.16788547  0.24875107  1
  Fe  Fe190  1  0.74976961  0.16676599  0.87504919  1
  Fe  Fe191  1  0.24982354  0.83375755  0.37444692  1
  P  P192  1  0.04221452  0.25181522  0.10254175  1
  P  P193  1  0.04168240  0.25043582  0.35072655  1
  P  P194  1  0.04256868  0.25056437  0.60451213  1
  P  P195  1  0.04126148  0.25050100  0.85221955  1
  P  P196  1  0.04158466  0.58200455  0.10298840  1
  P  P197  1  0.04196962  0.58350551  0.35080221  1
  P  P198  1  0.04313544  0.58297748  0.60394758  1
  P  P199  1  0.04253519  0.58115930  0.85335595  1
  P  P200  1  0.04199802  0.91882724  0.10171704  1
  P  P201  1  0.04363488  0.91753031  0.35240530  1
  P  P202  1  0.04316758  0.91743904  0.60378443  1
  P  P203  1  0.04163323  0.91714911  0.85162889  1
  P  P204  1  0.54237497  0.24962166  0.10479532  1
  P  P205  1  0.54135812  0.24967779  0.35175276  1
  P  P206  1  0.54249175  0.24936293  0.60409388  1
  P  P207  1  0.54192979  0.25113148  0.85303050  1
  P  P208  1  0.54064420  0.58289211  0.10192935  1
  P  P209  1  0.54178968  0.58180898  0.35268463  1
  P  P210  1  0.54196850  0.58165666  0.60265041  1
  P  P211  1  0.54170195  0.58525123  0.85346649  1
  P  P212  1  0.54092587  0.91670294  0.10129241  1
  P  P213  1  0.54199587  0.91736238  0.35277251  1
  P  P214  1  0.54131792  0.91598049  0.60193142  1
  P  P215  1  0.54133691  0.91633054  0.85180168  1
  P  P216  1  0.45905609  0.08229620  0.14844755  1
  P  P217  1  0.45858078  0.08167362  0.39678136  1
  P  P218  1  0.45786173  0.08080860  0.64751199  1
  P  P219  1  0.45820737  0.08141656  0.89743909  1
  P  P220  1  0.45818009  0.41666308  0.14900954  1
  P  P221  1  0.45783500  0.41740113  0.39697804  1
  P  P222  1  0.45723387  0.41511669  0.64797029  1
  P  P223  1  0.45714099  0.41769217  0.89819571  1
  P  P224  1  0.45728045  0.74971598  0.14557793  1
  P  P225  1  0.45787467  0.75117401  0.39754013  1
  P  P226  1  0.45887995  0.74979398  0.64835529  1
  P  P227  1  0.45803333  0.75012660  0.89815575  1
  P  P228  1  0.95787199  0.08548587  0.14649974  1
  P  P229  1  0.95764590  0.08470159  0.39608441  1
  P  P230  1  0.95923556  0.08374036  0.64873717  1
  P  P231  1  0.95830709  0.08237338  0.89616078  1
  P  P232  1  0.95880591  0.41714324  0.14782686  1
  P  P233  1  0.95723454  0.41714922  0.39595381  1
  P  P234  1  0.95826686  0.41692598  0.64906774  1
  P  P235  1  0.95865418  0.41635328  0.89807417  1
  P  P236  1  0.95785197  0.74921299  0.14700385  1
  P  P237  1  0.95803937  0.74980236  0.39580105  1
  P  P238  1  0.95807005  0.75139888  0.64762455  1
  P  P239  1  0.95681905  0.75041389  0.89601671  1
  P  P240  1  0.20888318  0.08333827  0.22674962  1
  P  P241  1  0.20867968  0.08357937  0.47605899  1
  P  P242  1  0.20871575  0.08487102  0.72822455  1
  P  P243  1  0.20864955  0.08342950  0.97713089  1
  P  P244  1  0.20808093  0.41672505  0.22744815  1
  P  P245  1  0.20697016  0.41585625  0.47824380  1
  P  P246  1  0.20803949  0.41546609  0.72925639  1
  P  P247  1  0.20873316  0.41493597  0.97851296  1
  P  P248  1  0.20861912  0.75107560  0.22642941  1
  P  P249  1  0.20765641  0.75175278  0.47689447  1
  P  P250  1  0.20727686  0.75069442  0.72878633  1
  P  P251  1  0.20709256  0.75034577  0.97990174  1
  P  P252  1  0.70741415  0.08145028  0.22717959  1
  P  P253  1  0.70721283  0.08304834  0.47891351  1
  P  P254  1  0.70862941  0.08356461  0.72633687  1
  P  P255  1  0.70748608  0.08494432  0.97745134  1
  P  P256  1  0.70757371  0.41550524  0.22766004  1
  P  P257  1  0.70680355  0.41661722  0.47871795  1
  P  P258  1  0.70697901  0.41659079  0.72864387  1
  P  P259  1  0.70724561  0.41696580  0.97913207  1
  P  P260  1  0.70696741  0.74878901  0.22770302  1
  P  P261  1  0.70840867  0.75014483  0.47625225  1
  P  P262  1  0.70716766  0.74915151  0.72659073  1
  P  P263  1  0.70662737  0.75052628  0.97826537  1
  P  P264  1  0.29273615  0.24773540  0.02214567  1
  P  P265  1  0.29227465  0.24756278  0.27194295  1
  P  P266  1  0.29245725  0.24749359  0.52222033  1
  P  P267  1  0.29171116  0.24913601  0.77387839  1
  P  P268  1  0.29105942  0.58277419  0.02430513  1
  P  P269  1  0.29233314  0.58333354  0.27069091  1
  P  P270  1  0.29322277  0.58362642  0.52191327  1
  P  P271  1  0.29332185  0.58346459  0.77262984  1
  P  P272  1  0.29093212  0.91725951  0.02365836  1
  P  P273  1  0.29113074  0.91662658  0.27245582  1
  P  P274  1  0.29285221  0.91691964  0.52084153  1
  P  P275  1  0.29230800  0.91860057  0.77339784  1
  P  P276  1  0.79244023  0.25131967  0.02250045  1
  P  P277  1  0.79239832  0.25007717  0.27124246  1
  P  P278  1  0.79299556  0.24859515  0.52304520  1
  P  P279  1  0.79202698  0.24815112  0.77250006  1
  P  P280  1  0.79232140  0.58529102  0.02300395  1
  P  P281  1  0.79143376  0.58477202  0.27213442  1
  P  P282  1  0.79205510  0.58545105  0.52190032  1
  P  P283  1  0.79303002  0.58391423  0.77136823  1
  P  P284  1  0.79199023  0.91855264  0.02203685  1
  P  P285  1  0.79201318  0.91525608  0.27174538  1
  P  P286  1  0.79255775  0.91738036  0.52181433  1
  P  P287  1  0.79211853  0.91727073  0.77064836  1
  O  O288  1  0.03675890  0.25140852  0.18238040  1
  O  O289  1  0.03721166  0.25055774  0.43079403  1
  O  O290  1  0.03717297  0.25042466  0.68440926  1
  O  O291  1  0.03640954  0.25072989  0.93218336  1
  O  O292  1  0.03610471  0.58260316  0.18287906  1
  O  O293  1  0.03739635  0.58372502  0.43086526  1
  O  O294  1  0.03810145  0.58259018  0.68392976  1
  O  O295  1  0.03685299  0.58094090  0.93327320  1
  O  O296  1  0.03713635  0.91864567  0.18166371  1
  O  O297  1  0.03873859  0.91748292  0.43239821  1
  O  O298  1  0.03771742  0.91724991  0.68372729  1
  O  O299  1  0.03626635  0.91777110  0.93158862  1
  O  O300  1  0.53679891  0.24954575  0.18464569  1
  O  O301  1  0.53665093  0.24933078  0.43177142  1
  O  O302  1  0.53710584  0.24979307  0.68401307  1
  O  O303  1  0.53691477  0.25075327  0.93302228  1
  O  O304  1  0.53568320  0.58238880  0.18191863  1
  O  O305  1  0.53658558  0.58165519  0.43259884  1
  O  O306  1  0.53668556  0.58246079  0.68254372  1
  O  O307  1  0.53609078  0.58534701  0.93330203  1
  O  O308  1  0.53634986  0.91691120  0.18125897  1
  O  O309  1  0.53667143  0.91697863  0.43261878  1
  O  O310  1  0.53614831  0.91590289  0.68181044  1
  O  O311  1  0.53635610  0.91626255  0.93169258  1
  O  O312  1  0.46381028  0.08237899  0.06847067  1
  O  O313  1  0.46411307  0.08212525  0.31693321  1
  O  O314  1  0.46335439  0.08085658  0.56759572  1
  O  O315  1  0.46352390  0.08127305  0.81752915  1
  O  O316  1  0.46306046  0.41715975  0.06903583  1
  O  O317  1  0.46352075  0.41715842  0.31710013  1
  O  O318  1  0.46244009  0.41546248  0.56803206  1
  O  O319  1  0.46223284  0.41714179  0.81828353  1
  O  O320  1  0.46255771  0.74948762  0.06572221  1
  O  O321  1  0.46275886  0.75100387  0.31757237  1
  O  O322  1  0.46391521  0.75028345  0.56839557  1
  O  O323  1  0.46291091  0.75018163  0.81824789  1
  O  O324  1  0.96297344  0.08479512  0.06654710  1
  O  O325  1  0.96256364  0.08534677  0.31610242  1
  O  O326  1  0.96381877  0.08428810  0.56871799  1
  O  O327  1  0.96393666  0.08236284  0.81631805  1
  O  O328  1  0.96371141  0.41668047  0.06791621  1
  O  O329  1  0.96228627  0.41736647  0.31604001  1
  O  O330  1  0.96315515  0.41694728  0.56903300  1
  O  O331  1  0.96405691  0.41637270  0.81819795  1
  O  O332  1  0.96242319  0.74924840  0.06698775  1
  O  O333  1  0.96327038  0.74920023  0.31583277  1
  O  O334  1  0.96353140  0.75115421  0.56764687  1
  O  O335  1  0.96236020  0.75087710  0.81612474  1
  O  O336  1  0.21353122  0.08342394  0.05702566  1
  O  O337  1  0.21380087  0.08336374  0.30662944  1
  O  O338  1  0.21353857  0.08380128  0.55601800  1
  O  O339  1  0.21392139  0.08464721  0.80807791  1
  O  O340  1  0.21411651  0.41553828  0.05848645  1
  O  O341  1  0.21273813  0.41643684  0.30743732  1
  O  O342  1  0.21227943  0.41569716  0.55824661  1
  O  O343  1  0.21346873  0.41493174  0.80922722  1
  O  O344  1  0.21244875  0.75050017  0.05981866  1
  O  O345  1  0.21377217  0.75141337  0.30639383  1
  O  O346  1  0.21260529  0.75132600  0.55690477  1
  O  O347  1  0.21201224  0.75069822  0.80882611  1
  O  O348  1  0.71249611  0.08394807  0.05739954  1
  O  O349  1  0.71236009  0.08145926  0.30716273  1
  O  O350  1  0.71273611  0.08311289  0.55883594  1
  O  O351  1  0.71347355  0.08425524  0.80638019  1
  O  O352  1  0.71259080  0.41648988  0.05912181  1
  O  O353  1  0.71251463  0.41586704  0.30765234  1
  O  O354  1  0.71200556  0.41673970  0.55868666  1
  O  O355  1  0.71206275  0.41671528  0.80866187  1
  O  O356  1  0.71164054  0.75024241  0.05824552  1
  O  O357  1  0.71250706  0.74911576  0.30759546  1
  O  O358  1  0.71358777  0.74975862  0.55622112  1
  O  O359  1  0.71200885  0.74981201  0.80657505  1
  O  O360  1  0.28719483  0.24743091  0.19197263  1
  O  O361  1  0.28708460  0.24745204  0.44227012  1
  O  O362  1  0.28720391  0.24903287  0.69385977  1
  O  O363  1  0.28723731  0.24825233  0.94225909  1
  O  O364  1  0.28670907  0.58298898  0.19080058  1
  O  O365  1  0.28810472  0.58381922  0.44188266  1
  O  O366  1  0.28830349  0.58352750  0.69263627  1
  O  O367  1  0.28662057  0.58279564  0.94428958  1
  O  O368  1  0.28601266  0.91680499  0.19255665  1
  O  O369  1  0.28753340  0.91641936  0.44096237  1
  O  O370  1  0.28764864  0.91845351  0.69338509  1
  O  O371  1  0.28581233  0.91785467  0.94373939  1
  O  O372  1  0.78705663  0.25088562  0.19130067  1
  O  O373  1  0.78792430  0.24877717  0.44304015  1
  O  O374  1  0.78706643  0.24783592  0.69252366  1
  O  O375  1  0.78714136  0.25067039  0.94256100  1
  O  O376  1  0.78613321  0.58476129  0.19220377  1
  O  O377  1  0.78642125  0.58541157  0.44192806  1
  O  O378  1  0.78801307  0.58423833  0.69136418  1
  O  O379  1  0.78738734  0.58479881  0.94299823  1
  O  O380  1  0.78664574  0.91608641  0.19179279  1
  O  O381  1  0.78732522  0.91641643  0.44184638  1
  O  O382  1  0.78714761  0.91751125  0.69069361  1
  O  O383  1  0.78692599  0.91842464  0.94202975  1
  O  O384  1  0.22857939  0.24767277  0.05813033  1
  O  O385  1  0.22791954  0.24726142  0.30740165  1
  O  O386  1  0.22821505  0.24762559  0.55803135  1
  O  O387  1  0.22749172  0.24874592  0.80960322  1
  O  O388  1  0.22684541  0.58243564  0.05975033  1
  O  O389  1  0.22821262  0.58387148  0.30655916  1
  O  O390  1  0.22878424  0.58356046  0.55690462  1
  O  O391  1  0.22887712  0.58300028  0.80759500  1
  O  O392  1  0.22680356  0.91669609  0.05956299  1
  O  O393  1  0.22718823  0.91621863  0.30888220  1
  O  O394  1  0.22867943  0.91736622  0.55666187  1
  O  O395  1  0.22785988  0.91886670  0.80850117  1
  O  O396  1  0.72822190  0.25155568  0.05827929  1
  O  O397  1  0.72808670  0.24975761  0.30663784  1
  O  O398  1  0.72856006  0.24822784  0.55824338  1
  O  O399  1  0.72768135  0.24822612  0.80796129  1
  O  O400  1  0.72786207  0.58529551  0.05819060  1
  O  O401  1  0.72723738  0.58483210  0.30794476  1
  O  O402  1  0.72784939  0.58549610  0.55781422  1
  O  O403  1  0.72854442  0.58356742  0.80632129  1
  O  O404  1  0.72757103  0.91840711  0.05727473  1
  O  O405  1  0.72780076  0.91441095  0.30755662  1
  O  O406  1  0.72826675  0.91796046  0.55739352  1
  O  O407  1  0.72772723  0.91757552  0.80582144  1
  O  O408  1  0.27302294  0.08343161  0.19068842  1
  O  O409  1  0.27284252  0.08366369  0.44012610  1
  O  O410  1  0.27283182  0.08523373  0.69202352  1
  O  O411  1  0.27285036  0.08366372  0.94119728  1
  O  O412  1  0.27250109  0.41662547  0.19244064  1
  O  O413  1  0.27137540  0.41548073  0.44317566  1
  O  O414  1  0.27224552  0.41550502  0.69362580  1
  O  O415  1  0.27288621  0.41459497  0.94276854  1
  O  O416  1  0.27265637  0.75117910  0.19035798  1
  O  O417  1  0.27210627  0.75221925  0.44166443  1
  O  O418  1  0.27185169  0.75065842  0.69410377  1
  O  O419  1  0.27136654  0.75085017  0.94435104  1
  O  O420  1  0.77175396  0.08150178  0.19178998  1
  O  O421  1  0.77143193  0.08280010  0.44322933  1
  O  O422  1  0.77283506  0.08322858  0.69045649  1
  O  O423  1  0.77187823  0.08532913  0.94206017  1
  O  O424  1  0.77191017  0.41581426  0.19228672  1
  O  O425  1  0.77122257  0.41685602  0.44369571  1
  O  O426  1  0.77141818  0.41676470  0.69371876  1
  O  O427  1  0.77156700  0.41676635  0.94381189  1
  O  O428  1  0.77115037  0.74869346  0.19162065  1
  O  O429  1  0.77247239  0.75033755  0.44004311  1
  O  O430  1  0.77160816  0.74894989  0.69139059  1
  O  O431  1  0.77104144  0.75099693  0.94321235  1
  O  O432  1  0.02220715  0.08611270  0.18212377  1
  O  O433  1  0.02216066  0.08439675  0.43108877  1
  O  O434  1  0.02342951  0.08314074  0.68441328  1
  O  O435  1  0.02237425  0.08227972  0.93254647  1
  O  O436  1  0.02286360  0.41797886  0.18408572  1
  O  O437  1  0.02163626  0.41700962  0.43138346  1
  O  O438  1  0.02249023  0.41663345  0.68500310  1
  O  O439  1  0.02269743  0.41631060  0.93468776  1
  O  O440  1  0.02229268  0.74924779  0.18207803  1
  O  O441  1  0.02238239  0.75013593  0.43122879  1
  O  O442  1  0.02223058  0.75154645  0.68361337  1
  O  O443  1  0.02104408  0.75009286  0.93166008  1
  O  O444  1  0.52321559  0.08194069  0.18437161  1
  O  O445  1  0.52255092  0.08088811  0.43335116  1
  O  O446  1  0.52203356  0.08099645  0.68354363  1
  O  O447  1  0.52244607  0.08098837  0.93329895  1
  O  O448  1  0.52236952  0.41619667  0.18494790  1
  O  O449  1  0.52188043  0.41773016  0.43346615  1
  O  O450  1  0.52144727  0.41492924  0.68394796  1
  O  O451  1  0.52143551  0.41849923  0.93394703  1
  O  O452  1  0.52139892  0.74982700  0.18157568  1
  O  O453  1  0.52218032  0.75080888  0.43309767  1
  O  O454  1  0.52293668  0.74937556  0.68456800  1
  O  O455  1  0.52212671  0.74961499  0.93428141  1
  O  O456  1  0.47829209  0.24943256  0.06869667  1
  O  O457  1  0.47721482  0.25020764  0.31588562  1
  O  O458  1  0.47830169  0.24903521  0.56840053  1
  O  O459  1  0.47761157  0.25081979  0.81744721  1
  O  O460  1  0.47651056  0.58308717  0.06583264  1
  O  O461  1  0.47752212  0.58174074  0.31689727  1
  O  O462  1  0.47776075  0.58161964  0.56664047  1
  O  O463  1  0.47764607  0.58526553  0.81708112  1
  O  O464  1  0.47667894  0.91710635  0.06550758  1
  O  O465  1  0.47782803  0.91832097  0.31658928  1
  O  O466  1  0.47734371  0.91597871  0.56530601  1
  O  O467  1  0.47721729  0.91666421  0.81558967  1
  O  O468  1  0.97811897  0.25194637  0.06625466  1
  O  O469  1  0.97740958  0.25001239  0.31514497  1
  O  O470  1  0.97834696  0.25055567  0.56863209  1
  O  O471  1  0.97720180  0.25089314  0.81616274  1
  O  O472  1  0.97750333  0.58139592  0.06668995  1
  O  O473  1  0.97761918  0.58300194  0.31527942  1
  O  O474  1  0.97873367  0.58354393  0.56863280  1
  O  O475  1  0.97841461  0.58146788  0.81721063  1
  O  O476  1  0.97762034  0.91923542  0.06629972  1
  O  O477  1  0.97910637  0.91756759  0.31759624  1
  O  O478  1  0.97893656  0.91762025  0.56793624  1
  O  O479  1  0.97761320  0.91706690  0.81520334  1
  O  O480  1  0.07317381  0.31524693  0.07404083  1
  O  O481  1  0.07190620  0.31444419  0.32242266  1
  O  O482  1  0.07362657  0.31391138  0.57590183  1
  O  O483  1  0.07281598  0.31357660  0.82397084  1
  O  O484  1  0.07259608  0.64552000  0.07467821  1
  O  O485  1  0.07220505  0.64738488  0.32222377  1
  O  O486  1  0.07427631  0.64650165  0.57582135  1
  O  O487  1  0.07375475  0.64496644  0.82614975  1
  O  O488  1  0.07287441  0.98226136  0.07329349  1
  O  O489  1  0.07460668  0.98101238  0.32432734  1
  O  O490  1  0.07438158  0.98091888  0.57557838  1
  O  O491  1  0.07284958  0.98049937  0.82328843  1
  O  O492  1  0.57344207  0.31312113  0.07654247  1
  O  O493  1  0.57258038  0.31319421  0.32399149  1
  O  O494  1  0.57373284  0.31253347  0.57555533  1
  O  O495  1  0.57223140  0.31496974  0.82486058  1
  O  O496  1  0.57146568  0.64667408  0.07410293  1
  O  O497  1  0.57249488  0.64577879  0.32500397  1
  O  O498  1  0.57328515  0.64495907  0.57431167  1
  O  O499  1  0.57265972  0.64846778  0.82434276  1
  O  O500  1  0.57227989  0.97989821  0.07285314  1
  O  O501  1  0.57353308  0.98038772  0.32408601  1
  O  O502  1  0.57226644  0.97953009  0.57360528  1
  O  O503  1  0.57268754  0.97958771  0.82326403  1
  O  O504  1  0.42774868  0.01894851  0.17659023  1
  O  O505  1  0.42715571  0.01849325  0.42515371  1
  O  O506  1  0.42694592  0.01746228  0.67602005  1
  O  O507  1  0.42687833  0.01835334  0.92618803  1
  O  O508  1  0.42719618  0.35293304  0.17684377  1
  O  O509  1  0.42672483  0.35366762  0.42476595  1
  O  O510  1  0.42669219  0.35139682  0.67647780  1
  O  O511  1  0.42642037  0.35412501  0.92661545  1
  O  O512  1  0.42608171  0.68651964  0.17429636  1
  O  O513  1  0.42657189  0.68767245  0.42527083  1
  O  O514  1  0.42793115  0.68611334  0.67631925  1
  O  O515  1  0.42649361  0.68708018  0.92684299  1
  O  O516  1  0.92689092  0.02204756  0.17490357  1
  O  O517  1  0.92678649  0.02096254  0.42405381  1
  O  O518  1  0.92793818  0.02020283  0.67625346  1
  O  O519  1  0.92726050  0.01910275  0.92496121  1
  O  O520  1  0.92873887  0.35318772  0.17675239  1
  O  O521  1  0.92617770  0.35376124  0.42457300  1
  O  O522  1  0.92734068  0.35328653  0.67708372  1
  O  O523  1  0.92766157  0.35275897  0.92633657  1
  O  O524  1  0.92746557  0.68555929  0.17569487  1
  O  O525  1  0.92693950  0.68662986  0.42459543  1
  O  O526  1  0.92697186  0.68776775  0.67523284  1
  O  O527  1  0.92569683  0.68679251  0.92373080  1
  O  O528  1  0.17825053  0.01954288  0.19817358  1
  O  O529  1  0.17847286  0.01956812  0.44753347  1
  O  O530  1  0.17779416  0.02132555  0.69981203  1
  O  O531  1  0.17817116  0.01964926  0.94839111  1
  O  O532  1  0.17698326  0.35318390  0.19953120  1
  O  O533  1  0.17573460  0.35247321  0.45005702  1
  O  O534  1  0.17666743  0.35234152  0.70077643  1
  O  O535  1  0.17812987  0.35112761  0.95028900  1
  O  O536  1  0.17829463  0.68687749  0.19850839  1
  O  O537  1  0.17693487  0.68801404  0.44866743  1
  O  O538  1  0.17632248  0.68724572  0.70046638  1
  O  O539  1  0.17629232  0.68666512  0.95162022  1
  O  O540  1  0.67691035  0.01784898  0.19856700  1
  O  O541  1  0.67584208  0.01976214  0.45057033  1
  O  O542  1  0.67802938  0.01955807  0.69850454  1
  O  O543  1  0.67633919  0.02175155  0.94858868  1
  O  O544  1  0.67722003  0.35182217  0.19908781  1
  O  O545  1  0.67595992  0.35293878  0.45079581  1
  O  O546  1  0.67620924  0.35286801  0.70076532  1
  O  O547  1  0.67563406  0.35393558  0.95072542  1
  O  O548  1  0.67607129  0.68535878  0.19898783  1
  O  O549  1  0.67726883  0.68671430  0.44798568  1
  O  O550  1  0.67664880  0.68552235  0.69817979  1
  O  O551  1  0.67565058  0.68719792  0.94975616  1
  O  O552  1  0.32408860  0.31106240  0.05056109  1
  O  O553  1  0.32278884  0.31155562  0.29973951  1
  O  O554  1  0.32357282  0.31115691  0.55008898  1
  O  O555  1  0.32174481  0.31319902  0.80253119  1
  O  O556  1  0.32129415  0.64683793  0.05244870  1
  O  O557  1  0.32390710  0.64677496  0.29855933  1
  O  O558  1  0.32418928  0.64717366  0.55003057  1
  O  O559  1  0.32390193  0.64707378  0.80113069  1
  O  O560  1  0.32150624  0.98088985  0.05242252  1
  O  O561  1  0.32147482  0.98056213  0.30107447  1
  O  O562  1  0.32408381  0.98040246  0.54894670  1
  O  O563  1  0.32301836  0.98204953  0.80210643  1
  O  O564  1  0.82304834  0.31503467  0.05089967  1
  O  O565  1  0.82367032  0.31311089  0.30009035  1
  O  O566  1  0.82377331  0.31238846  0.55094456  1
  O  O567  1  0.82291984  0.31201679  0.80011992  1
  O  O568  1  0.82281279  0.64896734  0.05131218  1
  O  O569  1  0.82244049  0.64808148  0.30069648  1
  O  O570  1  0.82299283  0.64888701  0.55030077  1
  O  O571  1  0.82401890  0.64727280  0.79983391  1
  O  O572  1  0.82247102  0.98221842  0.05052340  1
  O  O573  1  0.82300210  0.97873200  0.30005603  1
  O  O574  1  0.82336866  0.98102398  0.55004192  1
  O  O575  1  0.82358790  0.98036996  0.79910615  1
  O  O576  1  0.42882217  0.14625703  0.17708505  1
  O  O577  1  0.42781205  0.14544051  0.42503269  1
  O  O578  1  0.42675052  0.14449912  0.67532511  1
  O  O579  1  0.42765159  0.14540317  0.92519964  1
  O  O580  1  0.42752154  0.48031615  0.17744912  1
  O  O581  1  0.42677558  0.48071118  0.42569790  1
  O  O582  1  0.42603232  0.47859579  0.67594874  1
  O  O583  1  0.42620488  0.48125397  0.92649483  1
  O  O584  1  0.42608910  0.81323996  0.17369104  1
  O  O585  1  0.42748177  0.81484937  0.42605805  1
  O  O586  1  0.42818507  0.81342855  0.67705169  1
  O  O587  1  0.42785107  0.81425252  0.92671004  1
  O  O588  1  0.92703294  0.14913106  0.17460762  1
  O  O589  1  0.92651172  0.14779497  0.42504591  1
  O  O590  1  0.92898905  0.14757214  0.67753611  1
  O  O591  1  0.92715517  0.14602727  0.92398782  1
  O  O592  1  0.92706884  0.48029495  0.17598691  1
  O  O593  1  0.92621243  0.48049030  0.42480907  1
  O  O594  1  0.92767156  0.48071472  0.67719053  1
  O  O595  1  0.92766608  0.47987207  0.92658405  1
  O  O596  1  0.92676394  0.81293007  0.17458591  1
  O  O597  1  0.92697533  0.81350475  0.42353899  1
  O  O598  1  0.92720167  0.81504143  0.67559333  1
  O  O599  1  0.92560104  0.81368426  0.92451576  1
  O  O600  1  0.07345405  0.18838851  0.07418799  1
  O  O601  1  0.07276318  0.18701625  0.32244531  1
  O  O602  1  0.07379987  0.18722053  0.57594471  1
  O  O603  1  0.07139368  0.18617364  0.82430495  1
  O  O604  1  0.07278110  0.51854256  0.07480185  1
  O  O605  1  0.07306397  0.51998750  0.32274314  1
  O  O606  1  0.07396947  0.51958186  0.57527348  1
  O  O607  1  0.07341771  0.51778637  0.82476778  1
  O  O608  1  0.07263337  0.85491408  0.07402085  1
  O  O609  1  0.07451446  0.85410375  0.32397808  1
  O  O610  1  0.07434703  0.85412427  0.57526528  1
  O  O611  1  0.07229712  0.85309701  0.82410816  1
  O  O612  1  0.57383036  0.18643403  0.07623398  1
  O  O613  1  0.57161845  0.18563060  0.32353421  1
  O  O614  1  0.57362345  0.18574310  0.57624580  1
  O  O615  1  0.57318871  0.18758584  0.82524777  1
  O  O616  1  0.57147943  0.51929673  0.07349769  1
  O  O617  1  0.57289733  0.51870814  0.32367416  1
  O  O618  1  0.57237116  0.51777638  0.57455852  1
  O  O619  1  0.57294792  0.52157984  0.82577632  1
  O  O620  1  0.57101171  0.85260608  0.07288245  1
  O  O621  1  0.57251548  0.85355230  0.32433747  1
  O  O622  1  0.57225246  0.85232642  0.57344281  1
  O  O623  1  0.57169523  0.85246653  0.82302288  1
  O  O624  1  0.32365371  0.18421839  0.05062088  1
  O  O625  1  0.32353214  0.18448272  0.30066504  1
  O  O626  1  0.32329272  0.18414463  0.55105884  1
  O  O627  1  0.32320850  0.18597805  0.80225792  1
  O  O628  1  0.32211378  0.51915662  0.05229703  1
  O  O629  1  0.32338544  0.51998877  0.29939607  1
  O  O630  1  0.32413277  0.52001043  0.54990244  1
  O  O631  1  0.32459633  0.52006827  0.80065891  1
  O  O632  1  0.32221436  0.85372233  0.05147314  1
  O  O633  1  0.32257549  0.85328958  0.30066985  1
  O  O634  1  0.32392008  0.85373231  0.55000350  1
  O  O635  1  0.32309961  0.85488123  0.80144687  1
  O  O636  1  0.82371109  0.18784368  0.05043682  1
  O  O637  1  0.82324261  0.18614110  0.29872546  1
  O  O638  1  0.82388103  0.18516445  0.55157780  1
  O  O639  1  0.82281674  0.18488664  0.80156942  1
  O  O640  1  0.82338075  0.52170540  0.05098036  1
  O  O641  1  0.82240926  0.52097475  0.29985102  1
  O  O642  1  0.82312788  0.52168509  0.54956640  1
  O  O643  1  0.82400474  0.52041182  0.79986082  1
  O  O644  1  0.82322613  0.85507460  0.04992488  1
  O  O645  1  0.82294993  0.85161474  0.29979700  1
  O  O646  1  0.82370324  0.85393431  0.54999553  1
  O  O647  1  0.82270891  0.85352859  0.79895282  1
  O  O648  1  0.17777020  0.14659865  0.19789968  1
  O  O649  1  0.17732716  0.14679519  0.44757714  1
  O  O650  1  0.17776336  0.14822791  0.69935300  1
  O  O651  1  0.17736086  0.14670331  0.94848865  1
  O  O652  1  0.17760460  0.48041009  0.19889286  1
  O  O653  1  0.17616595  0.47952927  0.45024161  1
  O  O654  1  0.17714898  0.47926012  0.70153304  1
  O  O655  1  0.17733777  0.47826999  0.95050220  1
  O  O656  1  0.17709377  0.81421543  0.19807820  1
  O  O657  1  0.17674421  0.81516165  0.44845283  1
  O  O658  1  0.17652819  0.81430994  0.70055408  1
  O  O659  1  0.17546309  0.81343479  0.95132290  1
  O  O660  1  0.67638608  0.14514135  0.19961368  1
  O  O661  1  0.67611036  0.14643858  0.45027878  1
  O  O662  1  0.67765702  0.14697663  0.69781806  1
  O  O663  1  0.67690233  0.14876987  0.94933692  1
  O  O664  1  0.67618171  0.47903227  0.19998393  1
  O  O665  1  0.67567001  0.47998496  0.45043672  1
  O  O666  1  0.67569278  0.47987625  0.70044063  1
  O  O667  1  0.67653951  0.48082097  0.95125643  1
  O  O668  1  0.67572462  0.81229976  0.19954147  1
  O  O669  1  0.67780586  0.81411743  0.44833729  1
  O  O670  1  0.67621866  0.81271314  0.69840920  1
  O  O671  1  0.67560848  0.81413157  0.95008381  1
