# generated using pymatgen
data_Na2MnFe(PO4)2
_symmetry_space_group_name_H-M   'P 1'
_cell_length_a   22.34148492
_cell_length_b   20.09426701
_cell_length_c   19.44945427
_cell_angle_alpha   90.02865957
_cell_angle_beta   89.96919922
_cell_angle_gamma   89.94505903
_symmetry_Int_Tables_number   1
_chemical_formula_structural   Na2MnFe(PO4)2
_chemical_formula_sum   'Na96 Mn48 Fe48 P96 O384'
_cell_volume   8731.54922473
_cell_formula_units_Z   48
loop_
 _symmetry_equiv_pos_site_id
 _symmetry_equiv_pos_as_xyz
  1  'x, y, z'
loop_
 _atom_site_type_symbol
 _atom_site_label
 _atom_site_symmetry_multiplicity
 _atom_site_fract_x
 _atom_site_fract_y
 _atom_site_fract_z
 _atom_site_occupancy
  Na  Na0  1  0.14045650  0.24978742  0.24337538  1
  Na  Na1  1  0.14020122  0.24957050  0.49483927  1
  Na  Na2  1  0.13986562  0.24988379  0.74512925  1
  Na  Na3  1  0.14027012  0.24934898  0.99316068  1
  Na  Na4  1  0.14031857  0.58315095  0.24239372  1
  Na  Na5  1  0.14075593  0.58225438  0.49336805  1
  Na  Na6  1  0.14094900  0.58437973  0.74549899  1
  Na  Na7  1  0.14008676  0.58389206  0.99355932  1
  Na  Na8  1  0.14067102  0.91623553  0.24305347  1
  Na  Na9  1  0.14029929  0.91480712  0.49411882  1
  Na  Na10  1  0.14048907  0.91688156  0.74475232  1
  Na  Na11  1  0.14108008  0.91694174  0.99364403  1
  Na  Na12  1  0.64021337  0.25074685  0.24362319  1
  Na  Na13  1  0.64037444  0.24943789  0.49350639  1
  Na  Na14  1  0.64014328  0.25045497  0.74274176  1
  Na  Na15  1  0.64022628  0.25084801  0.99388815  1
  Na  Na16  1  0.64089505  0.58405202  0.24229165  1
  Na  Na17  1  0.64044769  0.58299178  0.49313787  1
  Na  Na18  1  0.64019007  0.58412144  0.74244003  1
  Na  Na19  1  0.64019974  0.58399281  0.99485340  1
  Na  Na20  1  0.64045041  0.91577984  0.24326810  1
  Na  Na21  1  0.64057379  0.91671990  0.49337379  1
  Na  Na22  1  0.64086341  0.91741909  0.74286644  1
  Na  Na23  1  0.64020096  0.91613378  0.99430696  1
  Na  Na24  1  0.35898366  0.08329051  0.00626357  1
  Na  Na25  1  0.35945934  0.08334989  0.25638349  1
  Na  Na26  1  0.36008679  0.08239062  0.50679621  1
  Na  Na27  1  0.35922020  0.08326491  0.75683070  1
  Na  Na28  1  0.35995773  0.41642462  0.00647395  1
  Na  Na29  1  0.35995282  0.41691571  0.25616369  1
  Na  Na30  1  0.35962500  0.41630453  0.50527670  1
  Na  Na31  1  0.36020635  0.41672600  0.75803846  1
  Na  Na32  1  0.35982959  0.75068092  0.00730073  1
  Na  Na33  1  0.36019595  0.74985660  0.25512082  1
  Na  Na34  1  0.35988419  0.74856960  0.50519164  1
  Na  Na35  1  0.35957543  0.75128034  0.75703118  1
  Na  Na36  1  0.85937442  0.08350632  0.00619197  1
  Na  Na37  1  0.85901438  0.08320513  0.25589408  1
  Na  Na38  1  0.85915550  0.08296452  0.50686489  1
  Na  Na39  1  0.85969238  0.08361481  0.75627053  1
  Na  Na40  1  0.85956481  0.41772166  0.00789399  1
  Na  Na41  1  0.85980149  0.41648244  0.25668374  1
  Na  Na42  1  0.85927487  0.41572573  0.50559886  1
  Na  Na43  1  0.85916384  0.41734965  0.75603574  1
  Na  Na44  1  0.85916570  0.75026858  0.00743421  1
  Na  Na45  1  0.85970013  0.75006785  0.25540654  1
  Na  Na46  1  0.85933399  0.74977407  0.50687415  1
  Na  Na47  1  0.85916092  0.75102891  0.75513134  1
  Na  Na48  1  0.10977152  0.08266658  0.11855643  1
  Na  Na49  1  0.10954465  0.08348560  0.36874356  1
  Na  Na50  1  0.10953656  0.08247470  0.62073593  1
  Na  Na51  1  0.10973783  0.08445233  0.86834688  1
  Na  Na52  1  0.10959357  0.41600681  0.11860527  1
  Na  Na53  1  0.10964144  0.41594625  0.36796799  1
  Na  Na54  1  0.10977632  0.41550936  0.62014379  1
  Na  Na55  1  0.10937386  0.41614465  0.86962311  1
  Na  Na56  1  0.11012853  0.74906286  0.11733749  1
  Na  Na57  1  0.10965139  0.74994774  0.36818887  1
  Na  Na58  1  0.11019636  0.75001269  0.61936830  1
  Na  Na59  1  0.11023793  0.74998655  0.86937829  1
  Na  Na60  1  0.60935802  0.08299486  0.11839787  1
  Na  Na61  1  0.60952894  0.08367111  0.36915599  1
  Na  Na62  1  0.60979313  0.08368557  0.61761634  1
  Na  Na63  1  0.60978503  0.08378317  0.86810209  1
  Na  Na64  1  0.61028068  0.41792388  0.11907684  1
  Na  Na65  1  0.60965849  0.41713399  0.36727208  1
  Na  Na66  1  0.60910606  0.41728063  0.61846906  1
  Na  Na67  1  0.60965747  0.41681459  0.86945061  1
  Na  Na68  1  0.60999068  0.74999063  0.11837933  1
  Na  Na69  1  0.61011705  0.74874835  0.36795027  1
  Na  Na70  1  0.61002370  0.75042637  0.61705646  1
  Na  Na71  1  0.60987561  0.74930376  0.86936166  1
  Na  Na72  1  0.39022448  0.25188074  0.13118585  1
  Na  Na73  1  0.39024113  0.25017573  0.38109015  1
  Na  Na74  1  0.39060573  0.25043760  0.63160446  1
  Na  Na75  1  0.39015273  0.25068157  0.88166910  1
  Na  Na76  1  0.39059972  0.58452092  0.13190574  1
  Na  Na77  1  0.39051766  0.58367915  0.37925224  1
  Na  Na78  1  0.39057486  0.58353480  0.63103142  1
  Na  Na79  1  0.39101267  0.58352050  0.88199023  1
  Na  Na80  1  0.38987115  0.91540719  0.13153197  1
  Na  Na81  1  0.39091095  0.91550429  0.38074500  1
  Na  Na82  1  0.39033234  0.91656275  0.63150539  1
  Na  Na83  1  0.39005371  0.91583965  0.88265666  1
  Na  Na84  1  0.89017103  0.24991427  0.13225005  1
  Na  Na85  1  0.88947965  0.25025974  0.38094011  1
  Na  Na86  1  0.89000982  0.24882668  0.63168859  1
  Na  Na87  1  0.89005735  0.25105421  0.88091233  1
  Na  Na88  1  0.89017636  0.58240932  0.13177379  1
  Na  Na89  1  0.89007856  0.58398932  0.38123886  1
  Na  Na90  1  0.88991125  0.58293188  0.63125068  1
  Na  Na91  1  0.89014782  0.58319620  0.88138921  1
  Na  Na92  1  0.88971600  0.91660463  0.13110819  1
  Na  Na93  1  0.89041324  0.91703387  0.38048195  1
  Na  Na94  1  0.89000284  0.91701050  0.63200323  1
  Na  Na95  1  0.88961316  0.91825608  0.88155638  1
  Mn  Mn96  1  0.75053517  0.83241754  0.37462085  1
  Mn  Mn97  1  0.49950527  -0.00075478  -0.00016460  1
  Mn  Mn98  1  -0.00001490  0.33305014  0.50020303  1
  Mn  Mn99  1  0.74973235  0.50105790  0.87539803  1
  Mn  Mn100  1  0.24963502  -0.00137282  0.62614985  1
  Mn  Mn101  1  0.24999104  0.16656930  0.12483475  1
  Mn  Mn102  1  0.49938970  0.16741112  0.24962955  1
  Mn  Mn103  1  0.25028093  0.49992744  0.62523999  1
  Mn  Mn104  1  0.75000839  0.50005219  0.37485481  1
  Mn  Mn105  1  -0.00052360  0.49947358  0.50026914  1
  Mn  Mn106  1  -0.00052557  -0.00070502  0.50010309  1
  Mn  Mn107  1  0.00045911  0.83321497  0.00002899  1
  Mn  Mn108  1  0.25024249  0.50008921  0.12476847  1
  Mn  Mn109  1  -0.00008752  0.66633313  0.75017362  1
  Mn  Mn110  1  0.74990519  0.33337088  0.62452790  1
  Mn  Mn111  1  0.75034689  0.00015087  0.37478547  1
  Mn  Mn112  1  0.00103797  0.66707808  0.50001573  1
  Mn  Mn113  1  0.25043222  0.66732081  0.62490567  1
  Mn  Mn114  1  -0.00040990  0.33309471  0.00039774  1
  Mn  Mn115  1  -0.00000783  0.16638446  0.50030379  1
  Mn  Mn116  1  0.74954363  0.16677595  0.12498445  1
  Mn  Mn117  1  0.24967774  0.16676883  0.37523393  1
  Mn  Mn118  1  0.49994738  0.16808326  -0.00054034  1
  Mn  Mn119  1  -0.00078103  0.83352586  0.75049534  1
  Mn  Mn120  1  0.75002809  0.16631848  0.87488647  1
  Mn  Mn121  1  0.24991180  0.49959099  0.37414825  1
  Mn  Mn122  1  0.49988386  0.83283208  0.49971010  1
  Mn  Mn123  1  0.75027801  0.66741535  0.87473120  1
  Mn  Mn124  1  0.49943871  0.66615075  0.75010361  1
  Mn  Mn125  1  0.49936858  0.33354974  0.49952561  1
  Mn  Mn126  1  0.00081332  0.49910081  0.75062853  1
  Mn  Mn127  1  0.49936420  0.16758806  0.74958307  1
  Mn  Mn128  1  0.25024820  0.50065269  0.87588363  1
  Mn  Mn129  1  0.50041450  0.83305186  0.74973321  1
  Mn  Mn130  1  0.50002918  0.50005799  0.00042998  1
  Mn  Mn131  1  -0.00009162  0.83377855  0.24905510  1
  Mn  Mn132  1  0.00006170  0.00101546  0.00008173  1
  Mn  Mn133  1  -0.00032712  0.66594286  0.24981180  1
  Mn  Mn134  1  0.49942574  0.50077935  0.49912865  1
  Mn  Mn135  1  0.25027262  -0.00106610  0.37537812  1
  Mn  Mn136  1  -0.00045902  0.16631958  0.25026736  1
  Mn  Mn137  1  0.49989031  0.00010635  0.75003736  1
  Mn  Mn138  1  0.25037467  0.33303352  0.62585134  1
  Mn  Mn139  1  0.74959077  0.83460501  0.87514800  1
  Mn  Mn140  1  0.74944321  0.33421139  0.87453974  1
  Mn  Mn141  1  0.25058548  0.83182116  0.37365485  1
  Mn  Mn142  1  0.25025601  0.16628446  0.62564837  1
  Mn  Mn143  1  0.49971123  -0.00065318  0.24956781  1
  Fe  Fe144  1  -0.00056245  0.66594782  -0.00009833  1
  Fe  Fe145  1  -0.00018996  0.16668187  0.75049978  1
  Fe  Fe146  1  0.00036121  0.49969938  0.24979707  1
  Fe  Fe147  1  0.25012213  0.33311634  0.12479271  1
  Fe  Fe148  1  -0.00050584  0.49940086  0.00026247  1
  Fe  Fe149  1  0.75030915  0.33345349  0.12525917  1
  Fe  Fe150  1  0.00019101  0.33299719  0.24971817  1
  Fe  Fe151  1  0.50031614  0.66601237  0.49883090  1
  Fe  Fe152  1  0.75007004  0.66654424  0.37461562  1
  Fe  Fe153  1  0.50012491  0.33431923  0.00023509  1
  Fe  Fe154  1  0.74943114  0.16643299  0.37483824  1
  Fe  Fe155  1  -0.00089754  0.33294723  0.75064858  1
  Fe  Fe156  1  0.00023833  0.00021842  0.75044645  1
  Fe  Fe157  1  0.74936200  0.00005229  0.12512647  1
  Fe  Fe158  1  0.50052296  0.83251187  0.00091858  1
  Fe  Fe159  1  0.50046751  0.66660269  0.00065903  1
  Fe  Fe160  1  0.24965264  0.33346766  0.87578959  1
  Fe  Fe161  1  0.49999466  0.16687718  0.49986021  1
  Fe  Fe162  1  0.74965076  0.00054144  0.87466314  1
  Fe  Fe163  1  -0.00043601  0.16697576  0.00013315  1
  Fe  Fe164  1  0.75021347  0.50044392  0.12587648  1
  Fe  Fe165  1  -0.00019501  0.83368285  0.49998158  1
  Fe  Fe166  1  0.50011163  -0.00019323  0.49951130  1
  Fe  Fe167  1  0.75026752  0.16661838  0.62454089  1
  Fe  Fe168  1  0.25014193  -0.00006035  0.12456191  1
  Fe  Fe169  1  0.25030776  0.83359939  0.87596887  1
  Fe  Fe170  1  0.25011293  0.83315101  0.12444653  1
  Fe  Fe171  1  0.74988482  0.83372735  0.12469123  1
  Fe  Fe172  1  0.25000536  0.33304959  0.37499789  1
  Fe  Fe173  1  0.25077771  0.66776590  0.87504873  1
  Fe  Fe174  1  0.25011194  -0.00042177  0.87551218  1
  Fe  Fe175  1  0.74985374  0.00062692  0.62461398  1
  Fe  Fe176  1  0.50039723  0.50050962  0.24942642  1
  Fe  Fe177  1  0.50080089  0.83249906  0.25056559  1
  Fe  Fe178  1  0.25018884  0.66714210  0.12394657  1
  Fe  Fe179  1  0.00006145  0.00004717  0.24996054  1
  Fe  Fe180  1  0.50058637  0.49990931  0.75030574  1
  Fe  Fe181  1  0.50033690  0.33381666  0.74975727  1
  Fe  Fe182  1  0.74987923  0.83370899  0.62487890  1
  Fe  Fe183  1  0.25001716  0.16681130  0.87608547  1
  Fe  Fe184  1  0.24971167  0.66646006  0.37422946  1
  Fe  Fe185  1  0.74948508  0.33312497  0.37508657  1
  Fe  Fe186  1  0.25020114  0.83310357  0.62590769  1
  Fe  Fe187  1  0.75014574  0.66703946  0.12526747  1
  Fe  Fe188  1  0.50056754  0.66674055  0.24953473  1
  Fe  Fe189  1  0.74984005  0.66654763  0.62463999  1
  Fe  Fe190  1  0.74961949  0.49993966  0.62412514  1
  Fe  Fe191  1  0.50056425  0.33391635  0.25007606  1
  P  P192  1  0.04198996  0.24879059  0.10282340  1
  P  P193  1  0.04230957  0.25089676  0.35215061  1
  P  P194  1  0.04234300  0.24942940  0.60451743  1
  P  P195  1  0.04104762  0.25004797  0.85231006  1
  P  P196  1  0.04116618  0.58216602  0.10173804  1
  P  P197  1  0.04255639  0.58205800  0.35209845  1
  P  P198  1  0.04333575  0.58269339  0.60327204  1
  P  P199  1  0.04256506  0.58312701  0.85452286  1
  P  P200  1  0.04295798  0.91717106  0.10324045  1
  P  P201  1  0.04236260  0.91759745  0.35239021  1
  P  P202  1  0.04213349  0.91551370  0.60303277  1
  P  P203  1  0.04202342  0.91809719  0.85269467  1
  P  P204  1  0.54217520  0.25244802  0.10280371  1
  P  P205  1  0.54188949  0.25090848  0.35257468  1
  P  P206  1  0.54208928  0.24962935  0.60227900  1
  P  P207  1  0.54233509  0.25208423  0.85243260  1
  P  P208  1  0.54189723  0.58463095  0.10350447  1
  P  P209  1  0.54216844  0.58361940  0.35096309  1
  P  P210  1  0.54223333  0.58428144  0.60211129  1
  P  P211  1  0.54261224  0.58222944  0.85282702  1
  P  P212  1  0.54195497  0.91490673  0.10306935  1
  P  P213  1  0.54245325  0.91549678  0.35275311  1
  P  P214  1  0.54237320  0.91784087  0.60179665  1
  P  P215  1  0.54274479  0.91588636  0.85361764  1
  P  P216  1  0.45681139  0.08359100  0.14661772  1
  P  P217  1  0.45851921  0.08349864  0.39828451  1
  P  P218  1  0.45724835  0.08349317  0.64588766  1
  P  P219  1  0.45700604  0.08376506  0.89695506  1
  P  P220  1  0.45883915  0.41705209  0.14820835  1
  P  P221  1  0.45753758  0.41729102  0.39542244  1
  P  P222  1  0.45823222  0.41720165  0.64852780  1
  P  P223  1  0.45793675  0.41576954  0.89716929  1
  P  P224  1  0.45934952  0.75013931  0.14788660  1
  P  P225  1  0.45848511  0.74812559  0.39625009  1
  P  P226  1  0.45729653  0.74969083  0.64645550  1
  P  P227  1  0.45880488  0.74954858  0.89916338  1
  P  P228  1  0.95731171  0.08220241  0.14743057  1
  P  P229  1  0.95687791  0.08307249  0.39667221  1
  P  P230  1  0.95844425  0.08302989  0.64891733  1
  P  P231  1  0.95792726  0.08555127  0.89684919  1
  P  P232  1  0.95881186  0.41673123  0.14823134  1
  P  P233  1  0.95727372  0.41641525  0.39583137  1
  P  P234  1  0.95718133  0.41510069  0.64807103  1
  P  P235  1  0.95718301  0.41719935  0.89781970  1
  P  P236  1  0.95749687  0.74899243  0.14603827  1
  P  P237  1  0.95772860  0.75149808  0.39749627  1
  P  P238  1  0.95736081  0.75022801  0.64644847  1
  P  P239  1  0.95741602  0.74901922  0.89795525  1
  P  P240  1  0.20783346  0.08202556  0.22718017  1
  P  P241  1  0.20704963  0.08248394  0.47851921  1
  P  P242  1  0.20777057  0.08299934  0.72991671  1
  P  P243  1  0.20863063  0.08270804  0.97708274  1
  P  P244  1  0.20825967  0.41518503  0.22737427  1
  P  P245  1  0.20738307  0.41523806  0.47723823  1
  P  P246  1  0.20772197  0.41675348  0.72949423  1
  P  P247  1  0.20788403  0.41550628  0.97822873  1
  P  P248  1  0.20856056  0.74944919  0.22592307  1
  P  P249  1  0.20764097  0.74852684  0.47714805  1
  P  P250  1  0.20811076  0.75153360  0.72876564  1
  P  P251  1  0.20892342  0.75018432  0.97745492  1
  P  P252  1  0.70721440  0.08256946  0.22763201  1
  P  P253  1  0.70806951  0.08426861  0.47797865  1
  P  P254  1  0.70831571  0.08356617  0.72637575  1
  P  P255  1  0.70741183  0.08193216  0.97775316  1
  P  P256  1  0.70907552  0.41635382  0.22717051  1
  P  P257  1  0.70749314  0.41561772  0.47721752  1
  P  P258  1  0.70733169  0.41832304  0.72681605  1
  P  P259  1  0.70762250  0.41729586  0.97939257  1
  P  P260  1  0.70888343  0.75026677  0.22645878  1
  P  P261  1  0.70822832  0.74815181  0.47777508  1
  P  P262  1  0.70835865  0.75049550  0.72600563  1
  P  P263  1  0.70777414  0.75048479  0.97902690  1
  P  P264  1  0.29190376  0.25098465  0.02190810  1
  P  P265  1  0.29216845  0.25128865  0.27216774  1
  P  P266  1  0.29304278  0.24996945  0.52187141  1
  P  P267  1  0.29118563  0.25004298  0.77439100  1
  P  P268  1  0.29244680  0.58484742  0.02204003  1
  P  P269  1  0.29176321  0.58486340  0.27137808  1
  P  P270  1  0.29292312  0.58314729  0.52122515  1
  P  P271  1  0.29293349  0.58515958  0.77311176  1
  P  P272  1  0.29121003  0.91668186  0.02275152  1
  P  P273  1  0.29307368  0.91628706  0.27061538  1
  P  P274  1  0.29236299  0.91436862  0.52293898  1
  P  P275  1  0.29184053  0.91624545  0.77401354  1
  P  P276  1  0.79225485  0.25117396  0.02276373  1
  P  P277  1  0.79076738  0.24999192  0.27314951  1
  P  P278  1  0.79200692  0.24850814  0.52166352  1
  P  P279  1  0.79225605  0.24991255  0.77130924  1
  P  P280  1  0.79127358  0.58356562  0.02406261  1
  P  P281  1  0.79199124  0.58463583  0.27183910  1
  P  P282  1  0.79147346  0.58312997  0.52284132  1
  P  P283  1  0.79231824  0.58391533  0.77075334  1
  P  P284  1  0.79125821  0.91747846  0.02313331  1
  P  P285  1  0.79247728  0.91639321  0.27085648  1
  P  P286  1  0.79134748  0.91675097  0.52347159  1
  P  P287  1  0.79188147  0.91875738  0.77176043  1
  O  O288  1  0.03682095  0.24948839  0.18274942  1
  O  O289  1  0.03764522  0.25074693  0.43214568  1
  O  O290  1  0.03676108  0.24949531  0.68442754  1
  O  O291  1  0.03596257  0.24968392  0.93230009  1
  O  O292  1  0.03617417  0.58195452  0.18174359  1
  O  O293  1  0.03773171  0.58259430  0.43206907  1
  O  O294  1  0.03841624  0.58271747  0.68328318  1
  O  O295  1  0.03698437  0.58331211  0.93444880  1
  O  O296  1  0.03794488  0.91756139  0.18317658  1
  O  O297  1  0.03681609  0.91659328  0.43233157  1
  O  O298  1  0.03691986  0.91622725  0.68296557  1
  O  O299  1  0.03709328  0.91789305  0.93264163  1
  O  O300  1  0.53668979  0.25240211  0.18275705  1
  O  O301  1  0.53652806  0.25016380  0.43249577  1
  O  O302  1  0.53677740  0.25037983  0.68223681  1
  O  O303  1  0.53725342  0.25232774  0.93242422  1
  O  O304  1  0.53652757  0.58445673  0.18336728  1
  O  O305  1  0.53698081  0.58389972  0.43092851  1
  O  O306  1  0.53715877  0.58357362  0.68202671  1
  O  O307  1  0.53740449  0.58280916  0.93278450  1
  O  O308  1  0.53680489  0.91484267  0.18302194  1
  O  O309  1  0.53680548  0.91635583  0.43267840  1
  O  O310  1  0.53766816  0.91761548  0.68180446  1
  O  O311  1  0.53743999  0.91515174  0.93359064  1
  O  O312  1  0.46196650  0.08366887  0.06668905  1
  O  O313  1  0.46354481  0.08341675  0.31826248  1
  O  O314  1  0.46265872  0.08338095  0.56595478  1
  O  O315  1  0.46198989  0.08380877  0.81697088  1
  O  O316  1  0.46391482  0.41647915  0.06821775  1
  O  O317  1  0.46327097  0.41719855  0.31557735  1
  O  O318  1  0.46306129  0.41724836  0.56849591  1
  O  O319  1  0.46332186  0.41598877  0.81731445  1
  O  O320  1  0.46473094  0.75019095  0.06799013  1
  O  O321  1  0.46425225  0.74858683  0.31638846  1
  O  O322  1  0.46222163  0.74953586  0.56652092  1
  O  O323  1  0.46334526  0.74936505  0.81915159  1
  O  O324  1  0.96244475  0.08307508  0.06749145  1
  O  O325  1  0.96195882  0.08252844  0.31672638  1
  O  O326  1  0.96334618  0.08277994  0.56893625  1
  O  O327  1  0.96351451  0.08533685  0.81697357  1
  O  O328  1  0.96360956  0.41694462  0.06821796  1
  O  O329  1  0.96272397  0.41639852  0.31589707  1
  O  O330  1  0.96217191  0.41537076  0.56806360  1
  O  O331  1  0.96252692  0.41644120  0.81791501  1
  O  O332  1  0.96268922  0.74837790  0.06611832  1
  O  O333  1  0.96282060  0.75108712  0.31748925  1
  O  O334  1  0.96286638  0.75089102  0.56651706  1
  O  O335  1  0.96227568  0.74939158  0.81792597  1
  O  O336  1  0.21357185  0.08252670  0.05707160  1
  O  O337  1  0.21276875  0.08249160  0.30713659  1
  O  O338  1  0.21216459  0.08245112  0.55852205  1
  O  O339  1  0.21325677  0.08303913  0.80979682  1
  O  O340  1  0.21319577  0.41533431  0.05817351  1
  O  O341  1  0.21358616  0.41516669  0.30729657  1
  O  O342  1  0.21251833  0.41584596  0.55723743  1
  O  O343  1  0.21290345  0.41656094  0.80945881  1
  O  O344  1  0.21412057  0.74999122  0.05735701  1
  O  O345  1  0.21313241  0.74896218  0.30591259  1
  O  O346  1  0.21270176  0.74930347  0.55705888  1
  O  O347  1  0.21363819  0.75145803  0.80864834  1
  O  O348  1  0.71248579  0.08203378  0.05770871  1
  O  O349  1  0.71271853  0.08328108  0.30753741  1
  O  O350  1  0.71367056  0.08418227  0.55784329  1
  O  O351  1  0.71320723  0.08312806  0.80640198  1
  O  O352  1  0.71327861  0.41699103  0.05927873  1
  O  O353  1  0.71389135  0.41605736  0.30715017  1
  O  O354  1  0.71257681  0.41630076  0.55713363  1
  O  O355  1  0.71242181  0.41835853  0.80680308  1
  O  O356  1  0.71314328  0.75071062  0.05889368  1
  O  O357  1  0.71361675  0.74958525  0.30641412  1
  O  O358  1  0.71340140  0.74805200  0.55760126  1
  O  O359  1  0.71301881  0.75109051  0.80604583  1
  O  O360  1  0.28690514  0.25118144  0.19218808  1
  O  O361  1  0.28796370  0.25045505  0.44189595  1
  O  O362  1  0.28676277  0.24967932  0.69436352  1
  O  O363  1  0.28635994  0.25088285  0.94205274  1
  O  O364  1  0.28640066  0.58499744  0.19143274  1
  O  O365  1  0.28764754  0.58318206  0.44125318  1
  O  O366  1  0.28775078  0.58484647  0.69314253  1
  O  O367  1  0.28729324  0.58502682  0.94211917  1
  O  O368  1  0.28789772  0.91679375  0.19071988  1
  O  O369  1  0.28745815  0.91455615  0.44294913  1
  O  O370  1  0.28669996  0.91554174  0.69405458  1
  O  O371  1  0.28601373  0.91637599  0.94284675  1
  O  O372  1  0.78585277  0.25063080  0.19314789  1
  O  O373  1  0.78640186  0.24869864  0.44180378  1
  O  O374  1  0.78716820  0.24947081  0.69136241  1
  O  O375  1  0.78716713  0.25094815  0.94281832  1
  O  O376  1  0.78656379  0.58436263  0.19199517  1
  O  O377  1  0.78654024  0.58337378  0.44283323  1
  O  O378  1  0.78693814  0.58364468  0.69087163  1
  O  O379  1  0.78681925  0.58371368  0.94404299  1
  O  O380  1  0.78685827  0.91648257  0.19099862  1
  O  O381  1  0.78675104  0.91631149  0.44347949  1
  O  O382  1  0.78666791  0.91870607  0.69192619  1
  O  O383  1  0.78620020  0.91781793  0.94313226  1
  O  O384  1  0.22778060  0.25103172  0.05813399  1
  O  O385  1  0.22790894  0.25139456  0.30804677  1
  O  O386  1  0.22863236  0.24986494  0.55711217  1
  O  O387  1  0.22691463  0.25036662  0.80988419  1
  O  O388  1  0.22813438  0.58458524  0.05765355  1
  O  O389  1  0.22762943  0.58461095  0.30746357  1
  O  O390  1  0.22863198  0.58323510  0.55679016  1
  O  O391  1  0.22863484  0.58553899  0.80875411  1
  O  O392  1  0.22726876  0.91710702  0.05925183  1
  O  O393  1  0.22878031  0.91600695  0.30623274  1
  O  O394  1  0.22797179  0.91419765  0.55843200  1
  O  O395  1  0.22767729  0.91640016  0.81012284  1
  O  O396  1  0.72790370  0.25153732  0.05825743  1
  O  O397  1  0.72667332  0.24950769  0.30925933  1
  O  O398  1  0.72789550  0.24841943  0.55793495  1
  O  O399  1  0.72794067  0.24990415  0.80674955  1
  O  O400  1  0.72705813  0.58311342  0.05961669  1
  O  O401  1  0.72786359  0.58481791  0.30807104  1
  O  O402  1  0.72727097  0.58313875  0.55881732  1
  O  O403  1  0.72805275  0.58426525  0.80652896  1
  O  O404  1  0.72713504  0.91711194  0.05933245  1
  O  O405  1  0.72839315  0.91619882  0.30691695  1
  O  O406  1  0.72709354  0.91740883  0.55910850  1
  O  O407  1  0.72766118  0.91893632  0.80786403  1
  O  O408  1  0.27216732  0.08207124  0.19165972  1
  O  O409  1  0.27151139  0.08282165  0.44345348  1
  O  O410  1  0.27189627  0.08255448  0.69386306  1
  O  O411  1  0.27274121  0.08237154  0.94112099  1
  O  O412  1  0.27248372  0.41546065  0.19148645  1
  O  O413  1  0.27174624  0.41508488  0.44166410  1
  O  O414  1  0.27210791  0.41685303  0.69413311  1
  O  O415  1  0.27212941  0.41548054  0.94245998  1
  O  O416  1  0.27285420  0.74938771  0.19029955  1
  O  O417  1  0.27199483  0.74757126  0.44136602  1
  O  O418  1  0.27225033  0.75167838  0.69247180  1
  O  O419  1  0.27303423  0.75032660  0.94114277  1
  O  O420  1  0.77142020  0.08221034  0.19167458  1
  O  O421  1  0.77212341  0.08495583  0.44156994  1
  O  O422  1  0.77256392  0.08349010  0.69048951  1
  O  O423  1  0.77173839  0.08186425  0.94204578  1
  O  O424  1  0.77318470  0.41629907  0.19110134  1
  O  O425  1  0.77177800  0.41543367  0.44155129  1
  O  O426  1  0.77167089  0.41829289  0.69129099  1
  O  O427  1  0.77175851  0.41728125  0.94337272  1
  O  O428  1  0.77299711  0.75105874  0.19053403  1
  O  O429  1  0.77244881  0.74791457  0.44167570  1
  O  O430  1  0.77257241  0.74994598  0.69032915  1
  O  O431  1  0.77193412  0.75077929  0.94305240  1
  O  O432  1  0.02161252  0.08187652  0.18308079  1
  O  O433  1  0.02127444  0.08284967  0.43181922  1
  O  O434  1  0.02255790  0.08304160  0.68491291  1
  O  O435  1  0.02207451  0.08575143  0.93299522  1
  O  O436  1  0.02297328  0.41688242  0.18407442  1
  O  O437  1  0.02152563  0.41646488  0.43148815  1
  O  O438  1  0.02157655  0.41409876  0.68343779  1
  O  O439  1  0.02144398  0.41765560  0.93359337  1
  O  O440  1  0.02178664  0.74932561  0.18139372  1
  O  O441  1  0.02210507  0.75212674  0.43291455  1
  O  O442  1  0.02158011  0.75020485  0.68206729  1
  O  O443  1  0.02187488  0.74853963  0.93300409  1
  O  O444  1  0.52121298  0.08356524  0.18166348  1
  O  O445  1  0.52266400  0.08387790  0.43419423  1
  O  O446  1  0.52150526  0.08377148  0.68156741  1
  O  O447  1  0.52143904  0.08351382  0.93189625  1
  O  O448  1  0.52297910  0.41745676  0.18426042  1
  O  O449  1  0.52161584  0.41721761  0.43142792  1
  O  O450  1  0.52252567  0.41708924  0.68426033  1
  O  O451  1  0.52209595  0.41582277  0.93328899  1
  O  O452  1  0.52332122  0.75001205  0.18442050  1
  O  O453  1  0.52245691  0.74816869  0.43277195  1
  O  O454  1  0.52176965  0.74937846  0.68145811  1
  O  O455  1  0.52313753  0.74958369  0.93458212  1
  O  O456  1  0.47796554  0.25249810  0.06691228  1
  O  O457  1  0.47768884  0.25174494  0.31676689  1
  O  O458  1  0.47785903  0.24872808  0.56649280  1
  O  O459  1  0.47799184  0.25238005  0.81687654  1
  O  O460  1  0.47788261  0.58482685  0.06721407  1
  O  O461  1  0.47803197  0.58321325  0.31490948  1
  O  O462  1  0.47790955  0.58513268  0.56641581  1
  O  O463  1  0.47828750  0.58152781  0.81720889  1
  O  O464  1  0.47772715  0.91471993  0.06730684  1
  O  O465  1  0.47830466  0.91472889  0.31675302  1
  O  O466  1  0.47796540  0.91774856  0.56665567  1
  O  O467  1  0.47833814  0.91613333  0.81842543  1
  O  O468  1  0.97765851  0.24860774  0.06725570  1
  O  O469  1  0.97785804  0.25101939  0.31706594  1
  O  O470  1  0.97813474  0.24963166  0.56868332  1
  O  O471  1  0.97696765  0.25008990  0.81613822  1
  O  O472  1  0.97696871  0.58217511  0.06579004  1
  O  O473  1  0.97807189  0.58151744  0.31702453  1
  O  O474  1  0.97881586  0.58355982  0.56844940  1
  O  O475  1  0.97840589  0.58275784  0.81868975  1
  O  O476  1  0.97854997  0.91696656  0.06819119  1
  O  O477  1  0.97811157  0.91830156  0.31648945  1
  O  O478  1  0.97777031  0.91485802  0.56736482  1
  O  O479  1  0.97764863  0.91858740  0.81741145  1
  O  O480  1  0.07325679  0.31207302  0.07450267  1
  O  O481  1  0.07288944  0.31430535  0.32322105  1
  O  O482  1  0.07378530  0.31259136  0.57604698  1
  O  O483  1  0.07152327  0.31409561  0.82455972  1
  O  O484  1  0.07167410  0.64611931  0.07366842  1
  O  O485  1  0.07311615  0.64587144  0.32392185  1
  O  O486  1  0.07484675  0.64583580  0.57506121  1
  O  O487  1  0.07359808  0.64652072  0.82597985  1
  O  O488  1  0.07415025  0.98028693  0.07458701  1
  O  O489  1  0.07315051  0.98130250  0.32442331  1
  O  O490  1  0.07303298  0.97910770  0.57490036  1
  O  O491  1  0.07281139  0.98160217  0.82435158  1
  O  O492  1  0.57321713  0.31569463  0.07431257  1
  O  O493  1  0.57292580  0.31444840  0.32442167  1
  O  O494  1  0.57285256  0.31333217  0.57420250  1
  O  O495  1  0.57353787  0.31506553  0.82337944  1
  O  O496  1  0.57291242  0.64795845  0.07482906  1
  O  O497  1  0.57298550  0.64714606  0.32257523  1
  O  O498  1  0.57314179  0.64767987  0.57358605  1
  O  O499  1  0.57346286  0.64583033  0.82465490  1
  O  O500  1  0.57268807  0.97883630  0.07542812  1
  O  O501  1  0.57343998  0.97899771  0.32453931  1
  O  O502  1  0.57289023  0.98138705  0.57313471  1
  O  O503  1  0.57362904  0.97960318  0.82579320  1
  O  O504  1  0.42590655  0.02009600  0.17477724  1
  O  O505  1  0.42815548  0.01940353  0.42613237  1
  O  O506  1  0.42620963  0.02008382  0.67445590  1
  O  O507  1  0.42585405  0.02036904  0.92498640  1
  O  O508  1  0.42800625  0.35365047  0.17684558  1
  O  O509  1  0.42615189  0.35413806  0.42397919  1
  O  O510  1  0.42751929  0.35340607  0.67643665  1
  O  O511  1  0.42711576  0.35244307  0.92611608  1
  O  O512  1  0.42823593  0.68653551  0.17592312  1
  O  O513  1  0.42779055  0.68450743  0.42461528  1
  O  O514  1  0.42584556  0.68672376  0.67513500  1
  O  O515  1  0.42828112  0.68578510  0.92748293  1
  O  O516  1  0.92679249  0.01849070  0.17566230  1
  O  O517  1  0.92537753  0.02011059  0.42542245  1
  O  O518  1  0.92787861  0.01920246  0.67704493  1
  O  O519  1  0.92679242  0.02192947  0.92479340  1
  O  O520  1  0.92857687  0.35253994  0.17619001  1
  O  O521  1  0.92607839  0.35312652  0.42435071  1
  O  O522  1  0.92592602  0.35189866  0.67642127  1
  O  O523  1  0.92608612  0.35379220  0.92610791  1
  O  O524  1  0.92636930  0.68584679  0.17484480  1
  O  O525  1  0.92719875  0.68756372  0.42529301  1
  O  O526  1  0.92650732  0.68644932  0.67410918  1
  O  O527  1  0.92655630  0.68555443  0.92633645  1
  O  O528  1  0.17730925  0.01845861  0.19867190  1
  O  O529  1  0.17629627  0.01886053  0.45042439  1
  O  O530  1  0.17637640  0.01966930  0.70162873  1
  O  O531  1  0.17715181  0.01960445  0.94870693  1
  O  O532  1  0.17742309  0.35185822  0.19866078  1
  O  O533  1  0.17675578  0.35153632  0.44914238  1
  O  O534  1  0.17658185  0.35344316  0.70114093  1
  O  O535  1  0.17680147  0.35229410  0.94946193  1
  O  O536  1  0.17725162  0.68630775  0.19720565  1
  O  O537  1  0.17668488  0.68504587  0.44873218  1
  O  O538  1  0.17693333  0.68797287  0.70079158  1
  O  O539  1  0.17815571  0.68657706  0.94891529  1
  O  O540  1  0.67641978  0.01889521  0.19956697  1
  O  O541  1  0.67734023  0.02035373  0.45016194  1
  O  O542  1  0.67718739  0.02025848  0.69776971  1
  O  O543  1  0.67648196  0.01873175  0.94892703  1
  O  O544  1  0.67781603  0.35311065  0.19877973  1
  O  O545  1  0.67693018  0.35188016  0.44889078  1
  O  O546  1  0.67636701  0.35456279  0.69929775  1
  O  O547  1  0.67632611  0.35411403  0.95059597  1
  O  O548  1  0.67864778  0.68637835  0.19770654  1
  O  O549  1  0.67728927  0.68499404  0.44847105  1
  O  O550  1  0.67711232  0.68702404  0.69822497  1
  O  O551  1  0.67686379  0.68690477  0.95068728  1
  O  O552  1  0.32287417  0.31434781  0.05065288  1
  O  O553  1  0.32313119  0.31454886  0.30078913  1
  O  O554  1  0.32420812  0.31321553  0.55057635  1
  O  O555  1  0.32216689  0.31370970  0.80220948  1
  O  O556  1  0.32330589  0.64813619  0.05080994  1
  O  O557  1  0.32253775  0.64820964  0.30012622  1
  O  O558  1  0.32422555  0.64629926  0.54966755  1
  O  O559  1  0.32382894  0.64869158  0.80129533  1
  O  O560  1  0.32262261  0.98008582  0.05072683  1
  O  O561  1  0.32421983  0.97939315  0.29977394  1
  O  O562  1  0.32312922  0.97810855  0.55089592  1
  O  O563  1  0.32260013  0.98014468  0.80173974  1
  O  O564  1  0.82324584  0.31448108  0.05135865  1
  O  O565  1  0.82135859  0.31363374  0.30183000  1
  O  O566  1  0.82318236  0.31211938  0.54960149  1
  O  O567  1  0.82299747  0.31370982  0.79920703  1
  O  O568  1  0.82154017  0.64754910  0.05231053  1
  O  O569  1  0.82287905  0.64806923  0.30053168  1
  O  O570  1  0.82257945  0.64643548  0.55132190  1
  O  O571  1  0.82356627  0.64732871  0.79911588  1
  O  O572  1  0.82207674  0.98101688  0.05157913  1
  O  O573  1  0.82359194  0.97977342  0.29933404  1
  O  O574  1  0.82265922  0.98021229  0.55123634  1
  O  O575  1  0.82273519  0.98200707  0.80092474  1
  O  O576  1  0.42573457  0.14715514  0.17467089  1
  O  O577  1  0.42738642  0.14709170  0.42619238  1
  O  O578  1  0.42581000  0.14681804  0.67435138  1
  O  O579  1  0.42619159  0.14745838  0.92496034  1
  O  O580  1  0.42796132  0.48110210  0.17562000  1
  O  O581  1  0.42625770  0.48078682  0.42363418  1
  O  O582  1  0.42773574  0.48103705  0.67683983  1
  O  O583  1  0.42662711  0.47925019  0.92552331  1
  O  O584  1  0.42841316  0.81370619  0.17645425  1
  O  O585  1  0.42688522  0.81152816  0.42423034  1
  O  O586  1  0.42676887  0.81351225  0.67496692  1
  O  O587  1  0.42795422  0.81323866  0.92739657  1
  O  O588  1  0.92599500  0.14564006  0.17563422  1
  O  O589  1  0.92629658  0.14697589  0.42473566  1
  O  O590  1  0.92747998  0.14674212  0.67671751  1
  O  O591  1  0.92692573  0.14887727  0.92582756  1
  O  O592  1  0.92750504  0.48000917  0.17668654  1
  O  O593  1  0.92600388  0.47982682  0.42439812  1
  O  O594  1  0.92684634  0.47919369  0.67588589  1
  O  O595  1  0.92628242  0.48078637  0.92618577  1
  O  O596  1  0.92635181  0.81268309  0.17373039  1
  O  O597  1  0.92661633  0.81492504  0.42575787  1
  O  O598  1  0.92580704  0.81328341  0.67512270  1
  O  O599  1  0.92662943  0.81294801  0.92569147  1
  O  O600  1  0.07251495  0.18500361  0.07438678  1
  O  O601  1  0.07338731  0.18718560  0.32438650  1
  O  O602  1  0.07334918  0.18583262  0.57607588  1
  O  O603  1  0.07228551  0.18670321  0.82389440  1
  O  O604  1  0.07230470  0.51866783  0.07349610  1
  O  O605  1  0.07356934  0.51869169  0.32354863  1
  O  O606  1  0.07365703  0.51874352  0.57515637  1
  O  O607  1  0.07410276  0.51974536  0.82643667  1
  O  O608  1  0.07390683  0.85343727  0.07522358  1
  O  O609  1  0.07352630  0.85414132  0.32400599  1
  O  O610  1  0.07300551  0.85201314  0.57444362  1
  O  O611  1  0.07287158  0.85425107  0.82503956  1
  O  O612  1  0.57313002  0.18851819  0.07509300  1
  O  O613  1  0.57288344  0.18733146  0.32433454  1
  O  O614  1  0.57322628  0.18617985  0.57399493  1
  O  O615  1  0.57302255  0.18799149  0.82481009  1
  O  O616  1  0.57307228  0.52103007  0.07550459  1
  O  O617  1  0.57318993  0.51989322  0.32297032  1
  O  O618  1  0.57297888  0.52059891  0.57368533  1
  O  O619  1  0.57345553  0.51870092  0.82425631  1
  O  O620  1  0.57313673  0.85167556  0.07437497  1
  O  O621  1  0.57358882  0.85181270  0.32494960  1
  O  O622  1  0.57353753  0.85422387  0.57395640  1
  O  O623  1  0.57397425  0.85267894  0.82476738  1
  O  O624  1  0.32317121  0.18737870  0.04980536  1
  O  O625  1  0.32304206  0.18731885  0.29975446  1
  O  O626  1  0.32391160  0.18631938  0.55000075  1
  O  O627  1  0.32161477  0.18614653  0.80280967  1
  O  O628  1  0.32356207  0.52107520  0.04970092  1
  O  O629  1  0.32298882  0.52106382  0.29867651  1
  O  O630  1  0.32379697  0.51944068  0.54944957  1
  O  O631  1  0.32380880  0.52144647  0.80098165  1
  O  O632  1  0.32169879  0.85276603  0.05129696  1
  O  O633  1  0.32420307  0.85267316  0.29869178  1
  O  O634  1  0.32312497  0.85082644  0.55133524  1
  O  O635  1  0.32302557  0.85295902  0.80268844  1
  O  O636  1  0.82303242  0.18731783  0.05053417  1
  O  O637  1  0.82179370  0.18615599  0.30073759  1
  O  O638  1  0.82309576  0.18521654  0.55053016  1
  O  O639  1  0.82359714  0.18677482  0.79989872  1
  O  O640  1  0.82246118  0.52011740  0.05226582  1
  O  O641  1  0.82314966  0.52106187  0.29989452  1
  O  O642  1  0.82197643  0.51899293  0.55065637  1
  O  O643  1  0.82339582  0.52060754  0.79959479  1
  O  O644  1  0.82221150  0.85363107  0.05084740  1
  O  O645  1  0.82395271  0.85311842  0.29920581  1
  O  O646  1  0.82139679  0.85268571  0.55199362  1
  O  O647  1  0.82292077  0.85504723  0.79986925  1
  O  O648  1  0.17663464  0.14563582  0.19932266  1
  O  O649  1  0.17582573  0.14589713  0.45036228  1
  O  O650  1  0.17675141  0.14646801  0.70149292  1
  O  O651  1  0.17849826  0.14703231  0.94907051  1
  O  O652  1  0.17712355  0.47900368  0.19985519  1
  O  O653  1  0.17628711  0.47873785  0.44902831  1
  O  O654  1  0.17679001  0.48040978  0.70135985  1
  O  O655  1  0.17698617  0.47946626  0.95087310  1
  O  O656  1  0.17838123  0.81362374  0.19769299  1
  O  O657  1  0.17697626  0.81213832  0.44856398  1
  O  O658  1  0.17725603  0.81496488  0.69991106  1
  O  O659  1  0.17775472  0.81382278  0.94944778  1
  O  O660  1  0.67595371  0.14598267  0.19941721  1
  O  O661  1  0.67660893  0.14731858  0.44919237  1
  O  O662  1  0.67778750  0.14757742  0.69844601  1
  O  O663  1  0.67660719  0.14588602  0.94996703  1
  O  O664  1  0.67873211  0.48057092  0.19926940  1
  O  O665  1  0.67618143  0.47896071  0.44892072  1
  O  O666  1  0.67663337  0.48176476  0.69812147  1
  O  O667  1  0.67633881  0.48081139  0.95132583  1
  O  O668  1  0.67748899  0.81373393  0.19864660  1
  O  O669  1  0.67730106  0.81197964  0.44984050  1
  O  O670  1  0.67817125  0.81452101  0.69746225  1
  O  O671  1  0.67631431  0.81361501  0.95039923  1
