# generated using pymatgen
data_Na2MnFe(PO4)2
_symmetry_space_group_name_H-M   'P 1'
_cell_length_a   22.34523587
_cell_length_b   20.09887407
_cell_length_c   19.44771055
_cell_angle_alpha   89.97598897
_cell_angle_beta   89.99130154
_cell_angle_gamma   90.07368371
_symmetry_Int_Tables_number   1
_chemical_formula_structural   Na2MnFe(PO4)2
_chemical_formula_sum   'Na96 Mn48 Fe48 P96 O384'
_cell_volume   8734.23257984
_cell_formula_units_Z   48
loop_
 _symmetry_equiv_pos_site_id
 _symmetry_equiv_pos_as_xyz
  1  'x, y, z'
loop_
 _atom_site_type_symbol
 _atom_site_label
 _atom_site_symmetry_multiplicity
 _atom_site_fract_x
 _atom_site_fract_y
 _atom_site_fract_z
 _atom_site_occupancy
  Na  Na0  1  0.14080665  0.25016729  0.24534944  1
  Na  Na1  1  0.14078771  0.24970111  0.49489097  1
  Na  Na2  1  0.14062598  0.24908278  0.74404811  1
  Na  Na3  1  0.14088748  0.24984575  0.99391884  1
  Na  Na4  1  0.14102654  0.58404322  0.24362039  1
  Na  Na5  1  0.14070866  0.58368339  0.49465941  1
  Na  Na6  1  0.14017268  0.58452923  0.74440116  1
  Na  Na7  1  0.14065940  0.58477641  0.99249890  1
  Na  Na8  1  0.14059476  0.91662012  0.24474040  1
  Na  Na9  1  0.14066134  0.91777475  0.49553465  1
  Na  Na10  1  0.14103613  0.91783494  0.74473151  1
  Na  Na11  1  0.14090580  0.91617969  0.99339824  1
  Na  Na12  1  0.63968410  0.25060490  0.24252003  1
  Na  Na13  1  0.64020240  0.24933785  0.49110298  1
  Na  Na14  1  0.63997260  0.24804600  0.74278912  1
  Na  Na15  1  0.63954255  0.25052819  0.99369688  1
  Na  Na16  1  0.64032438  0.58214445  0.24373469  1
  Na  Na17  1  0.63997876  0.58272530  0.49240071  1
  Na  Na18  1  0.63960107  0.58214966  0.74384875  1
  Na  Na19  1  0.64049557  0.58299431  0.99331011  1
  Na  Na20  1  0.63947630  0.91758898  0.24369675  1
  Na  Na21  1  0.63983484  0.91818288  0.49209043  1
  Na  Na22  1  0.64023045  0.91648511  0.74278781  1
  Na  Na23  1  0.64009247  0.91615445  0.99300057  1
  Na  Na24  1  0.36024291  0.08204244  0.00680237  1
  Na  Na25  1  0.36042726  0.08329597  0.25810417  1
  Na  Na26  1  0.36014198  0.08344282  0.50721392  1
  Na  Na27  1  0.36052345  0.08336621  0.75568301  1
  Na  Na28  1  0.35991723  0.41694026  0.00594734  1
  Na  Na29  1  0.36030556  0.41540703  0.25739975  1
  Na  Na30  1  0.36066616  0.41594302  0.50667410  1
  Na  Na31  1  0.36003298  0.41785734  0.75647522  1
  Na  Na32  1  0.36043368  0.75049494  0.00611375  1
  Na  Na33  1  0.36057237  0.75095428  0.25659212  1
  Na  Na34  1  0.36008957  0.75245770  0.50650756  1
  Na  Na35  1  0.35971306  0.75145809  0.75761009  1
  Na  Na36  1  0.85936288  0.08410535  0.00531238  1
  Na  Na37  1  0.85850361  0.08388381  0.25639743  1
  Na  Na38  1  0.85872716  0.08319921  0.50600579  1
  Na  Na39  1  0.85944874  0.08210213  0.75636931  1
  Na  Na40  1  0.85868323  0.41639301  0.00621932  1
  Na  Na41  1  0.85919588  0.41625764  0.25594063  1
  Na  Na42  1  0.85928665  0.41553961  0.50511022  1
  Na  Na43  1  0.85879429  0.41626178  0.75690678  1
  Na  Na44  1  0.85940845  0.74864997  0.00508470  1
  Na  Na45  1  0.85908185  0.74991095  0.25607317  1
  Na  Na46  1  0.85880885  0.75065348  0.50566193  1
  Na  Na47  1  0.85867939  0.74829960  0.75721442  1
  Na  Na48  1  0.10981849  0.08345735  0.11972201  1
  Na  Na49  1  0.10990598  0.08361815  0.37007887  1
  Na  Na50  1  0.11049629  0.08348352  0.61987336  1
  Na  Na51  1  0.10989538  0.08242899  0.86874571  1
  Na  Na52  1  0.10989814  0.41828718  0.11913203  1
  Na  Na53  1  0.11021266  0.41641224  0.36900222  1
  Na  Na54  1  0.10930803  0.41703199  0.62056283  1
  Na  Na55  1  0.10931827  0.41731832  0.86836460  1
  Na  Na56  1  0.11001623  0.75125521  0.11820709  1
  Na  Na57  1  0.10995087  0.75002662  0.36906720  1
  Na  Na58  1  0.10989607  0.75023613  0.62044981  1
  Na  Na59  1  0.11016577  0.74970800  0.86827701  1
  Na  Na60  1  0.60926646  0.08372070  0.11882589  1
  Na  Na61  1  0.60961644  0.08392538  0.36707675  1
  Na  Na62  1  0.60986212  0.08390406  0.61619321  1
  Na  Na63  1  0.60958242  0.08344280  0.86787660  1
  Na  Na64  1  0.61000877  0.41507639  0.11844333  1
  Na  Na65  1  0.61003707  0.41633677  0.36705105  1
  Na  Na66  1  0.60895261  0.41651372  0.61743768  1
  Na  Na67  1  0.60941491  0.41507854  0.86874922  1
  Na  Na68  1  0.60964388  0.74972449  0.11917352  1
  Na  Na69  1  0.60897286  0.75190542  0.36808422  1
  Na  Na70  1  0.60900962  0.75087394  0.61876427  1
  Na  Na71  1  0.60994604  0.74948123  0.86759877  1
  Na  Na72  1  0.39097444  0.24910993  0.13199142  1
  Na  Na73  1  0.39065117  0.25027816  0.38289756  1
  Na  Na74  1  0.39091558  0.25063147  0.62994511  1
  Na  Na75  1  0.39118033  0.24913206  0.88057649  1
  Na  Na76  1  0.39080642  0.58336244  0.13122189  1
  Na  Na77  1  0.39131644  0.58449526  0.38169511  1
  Na  Na78  1  0.39080593  0.58405685  0.63184033  1
  Na  Na79  1  0.39017987  0.58276544  0.88213156  1
  Na  Na80  1  0.39118279  0.91576421  0.13225267  1
  Na  Na81  1  0.39061677  0.91786294  0.38225814  1
  Na  Na82  1  0.39034048  0.91816807  0.63202241  1
  Na  Na83  1  0.39045756  0.91692598  0.88193722  1
  Na  Na84  1  0.88945352  0.25065370  0.13148547  1
  Na  Na85  1  0.88923865  0.25006313  0.38120796  1
  Na  Na86  1  0.88975097  0.24896091  0.63170103  1
  Na  Na87  1  0.88991754  0.24787057  0.88102655  1
  Na  Na88  1  0.88984250  0.58360288  0.13001277  1
  Na  Na89  1  0.89010828  0.58214428  0.38002793  1
  Na  Na90  1  0.88984518  0.58278787  0.63142446  1
  Na  Na91  1  0.88936522  0.58279585  0.88102057  1
  Na  Na92  1  0.89025897  0.91701563  0.12987465  1
  Na  Na93  1  0.88930232  0.91629178  0.38184336  1
  Na  Na94  1  0.88958738  0.91681741  0.63172642  1
  Na  Na95  1  0.89007972  0.91594112  0.88063542  1
  Mn  Mn96  1  -0.00046697  0.66619245  0.24938643  1
  Mn  Mn97  1  0.25081430  0.66850939  0.62497445  1
  Mn  Mn98  1  0.25099061  0.16561015  0.87486370  1
  Mn  Mn99  1  -0.00029271  0.83273095  0.75054011  1
  Mn  Mn100  1  0.24978946  0.33289317  0.62591047  1
  Mn  Mn101  1  0.00039665  0.33434894  0.25040452  1
  Mn  Mn102  1  0.00000209  0.66599299  0.49981120  1
  Mn  Mn103  1  0.25043466  0.50063192  0.62514468  1
  Mn  Mn104  1  0.74971207  0.33242563  0.87491925  1
  Mn  Mn105  1  0.50052284  0.00053287  0.74983193  1
  Mn  Mn106  1  0.25042976  0.00012682  0.37600682  1
  Mn  Mn107  1  0.50062290  0.66686614  0.00036587  1
  Mn  Mn108  1  -0.00032884  0.83354291  0.24923834  1
  Mn  Mn109  1  0.74961523  0.66640956  0.37472418  1
  Mn  Mn110  1  0.74907600  0.83393608  0.62511295  1
  Mn  Mn111  1  0.74891605  0.33148886  0.62474017  1
  Mn  Mn112  1  0.75014239  0.00102909  0.12411969  1
  Mn  Mn113  1  0.74914856  0.00010074  0.87435989  1
  Mn  Mn114  1  0.25094710  0.33398102  0.87455914  1
  Mn  Mn115  1  -0.00078435  0.16706580  0.24999541  1
  Mn  Mn116  1  -0.00036308  -0.00015282  0.50085817  1
  Mn  Mn117  1  0.25064938  0.16626738  0.12561721  1
  Mn  Mn118  1  -0.00028371  0.16648423  0.50094087  1
  Mn  Mn119  1  0.49984222  0.66669005  0.75002950  1
  Mn  Mn120  1  0.25087323  0.66801353  0.12445638  1
  Mn  Mn121  1  0.50055136  -0.00014390  0.00005926  1
  Mn  Mn122  1  -0.00021839  0.33345912  0.50092992  1
  Mn  Mn123  1  -0.00053785  0.50097181  -0.00091713  1
  Mn  Mn124  1  0.25047136  0.66840000  0.37480552  1
  Mn  Mn125  1  0.50030982  0.33307159  0.74902238  1
  Mn  Mn126  1  0.74957035  0.49905476  0.62462374  1
  Mn  Mn127  1  0.50008379  0.66790015  0.50070163  1
  Mn  Mn128  1  -0.00012913  0.83269218  0.50095669  1
  Mn  Mn129  1  0.25037978  0.33337315  0.12503651  1
  Mn  Mn130  1  0.50018842  0.49966149  0.25006224  1
  Mn  Mn131  1  0.25045591  -0.00121846  0.12655896  1
  Mn  Mn132  1  0.74977322  0.83333587  0.12467517  1
  Mn  Mn133  1  -0.00056513  0.00013091  0.25031865  1
  Mn  Mn134  1  0.50055187  0.49836705  0.00120492  1
  Mn  Mn135  1  -0.00026659  0.33331198  -0.00024629  1
  Mn  Mn136  1  0.74902454  0.66563196  0.12522920  1
  Mn  Mn137  1  0.00027084  0.16569272  0.00061392  1
  Mn  Mn138  1  0.25112024  0.49972715  0.37500097  1
  Mn  Mn139  1  0.74914458  0.66636675  0.62443776  1
  Mn  Mn140  1  -0.00027601  0.33288868  0.75039541  1
  Mn  Mn141  1  0.00001392  0.83326674  -0.00091137  1
  Mn  Mn142  1  0.00031433  0.49994605  0.50056333  1
  Mn  Mn143  1  0.25055035  0.50048210  0.12521976  1
  Fe  Fe144  1  0.25046101  -0.00023145  0.87524155  1
  Fe  Fe145  1  0.24993719  0.16655820  0.37625846  1
  Fe  Fe146  1  0.50070863  0.33381964  0.49930410  1
  Fe  Fe147  1  0.74928057  0.66575282  0.87523073  1
  Fe  Fe148  1  0.74979814  0.00017383  0.62382932  1
  Fe  Fe149  1  0.49969348  0.49949960  0.75001965  1
  Fe  Fe150  1  0.74941046  0.16632593  0.87461840  1
  Fe  Fe151  1  0.49959976  0.83465393  0.49948605  1
  Fe  Fe152  1  0.25023515  0.33291178  0.37610683  1
  Fe  Fe153  1  0.24969526  0.50103869  0.87528980  1
  Fe  Fe154  1  0.25010072  0.83409831  0.37595499  1
  Fe  Fe155  1  0.74992319  0.16553940  0.62352160  1
  Fe  Fe156  1  0.49965106  0.33289319  0.24988095  1
  Fe  Fe157  1  -0.00069130  0.66625462  0.74980106  1
  Fe  Fe158  1  0.25080239  0.16634314  0.62508602  1
  Fe  Fe159  1  0.50060305  0.66703437  0.25089191  1
  Fe  Fe160  1  0.25060321  0.00011230  0.62581074  1
  Fe  Fe161  1  0.74936900  0.83407528  0.37515868  1
  Fe  Fe162  1  0.74967989  0.16692888  0.37416139  1
  Fe  Fe163  1  0.74918534  0.16726259  0.12505987  1
  Fe  Fe164  1  0.00034499  -0.00028623  0.75061678  1
  Fe  Fe165  1  0.74963597  0.33272089  0.37383354  1
  Fe  Fe166  1  0.49964709  0.16679263  0.24992203  1
  Fe  Fe167  1  0.50062695  0.16703772  0.74858139  1
  Fe  Fe168  1  0.50064613  0.83312046  0.00074295  1
  Fe  Fe169  1  0.49944129  0.33191618  -0.00057086  1
  Fe  Fe170  1  0.25069162  0.83409362  0.87531121  1
  Fe  Fe171  1  0.74864087  0.49925626  0.87528655  1
  Fe  Fe172  1  0.00039846  0.16596539  0.75104417  1
  Fe  Fe173  1  0.25015799  0.83458658  0.62641560  1
  Fe  Fe174  1  0.75012323  0.49906789  0.37397756  1
  Fe  Fe175  1  0.74964947  0.33289429  0.12488029  1
  Fe  Fe176  1  0.00034472  0.50058026  0.24943201  1
  Fe  Fe177  1  0.25044134  0.83325822  0.12465621  1
  Fe  Fe178  1  0.49964422  0.16613177  0.00013898  1
  Fe  Fe179  1  0.50014511  0.83405565  0.74985436  1
  Fe  Fe180  1  0.25053873  0.66779821  0.87500033  1
  Fe  Fe181  1  0.00009567  0.66662913  -0.00043026  1
  Fe  Fe182  1  -0.00089647  0.50021285  0.75023013  1
  Fe  Fe183  1  0.49987056  0.00024888  0.25006073  1
  Fe  Fe184  1  0.50028339  0.00074104  0.49936299  1
  Fe  Fe185  1  0.74952271  0.00067125  0.37432195  1
  Fe  Fe186  1  0.50038971  0.16720692  0.49866934  1
  Fe  Fe187  1  0.74976597  0.83291405  0.87435772  1
  Fe  Fe188  1  0.50038302  0.50072615  0.49964386  1
  Fe  Fe189  1  0.50019322  0.83386072  0.25027422  1
  Fe  Fe190  1  0.74989780  0.49918771  0.12446221  1
  Fe  Fe191  1  -0.00025115  -0.00004506  -0.00028085  1
  P  P192  1  0.04295287  0.25049497  0.10333638  1
  P  P193  1  0.04264464  0.25015434  0.35367840  1
  P  P194  1  0.04277648  0.24963171  0.60461530  1
  P  P195  1  0.04254649  0.24839824  0.85287358  1
  P  P196  1  0.04270160  0.58466070  0.10206290  1
  P  P197  1  0.04301671  0.58219326  0.35211003  1
  P  P198  1  0.04287947  0.58350865  0.60448799  1
  P  P199  1  0.04114141  0.58373860  0.85164344  1
  P  P200  1  0.04240866  0.91809142  0.10185719  1
  P  P201  1  0.04260221  0.91641709  0.35344210  1
  P  P202  1  0.04241929  0.91665757  0.60465521  1
  P  P203  1  0.04208700  0.91755675  0.85298776  1
  P  P204  1  0.54090507  0.24945309  0.10197813  1
  P  P205  1  0.54091587  0.25007866  0.35154185  1
  P  P206  1  0.54172407  0.25007003  0.60039244  1
  P  P207  1  0.54207664  0.24822303  0.85219444  1
  P  P208  1  0.54306449  0.58325146  0.10397893  1
  P  P209  1  0.54232714  0.58437618  0.35308530  1
  P  P210  1  0.54222818  0.58250537  0.60264078  1
  P  P211  1  0.54166638  0.58153542  0.85253883  1
  P  P212  1  0.54240244  0.91547844  0.10321816  1
  P  P213  1  0.54076551  0.91768433  0.35214560  1
  P  P214  1  0.54125734  0.91729140  0.60126894  1
  P  P215  1  0.54256651  0.91565679  0.85245280  1
  P  P216  1  0.45861632  0.08320668  0.14843265  1
  P  P217  1  0.45904684  0.08367925  0.39755434  1
  P  P218  1  0.45886539  0.08487659  0.64617580  1
  P  P219  1  0.45822783  0.08428100  0.89727948  1
  P  P220  1  0.45793255  0.41458429  0.14748889  1
  P  P221  1  0.45935637  0.41687728  0.39801035  1
  P  P222  1  0.45806301  0.41812975  0.64659401  1
  P  P223  1  0.45803346  0.41481838  0.89738568  1
  P  P224  1  0.45939036  0.74995066  0.14881118  1
  P  P225  1  0.45824190  0.75201577  0.39711394  1
  P  P226  1  0.45779644  0.75220903  0.64760429  1
  P  P227  1  0.45876647  0.75160886  0.89759748  1
  P  P228  1  0.95639573  0.08304446  0.14648367  1
  P  P229  1  0.95650006  0.08329980  0.39743103  1
  P  P230  1  0.95871942  0.08310108  0.64933267  1
  P  P231  1  0.95798491  0.08164687  0.89674931  1
  P  P232  1  0.95755470  0.41857086  0.14732848  1
  P  P233  1  0.95746654  0.41705890  0.39662288  1
  P  P234  1  0.95684781  0.41760437  0.64814479  1
  P  P235  1  0.95660577  0.41678790  0.89613757  1
  P  P236  1  0.95681231  0.74984723  0.14569569  1
  P  P237  1  0.95675988  0.74957055  0.39676185  1
  P  P238  1  0.95683440  0.74849577  0.64792700  1
  P  P239  1  0.95784350  0.74789739  0.89665459  1
  P  P240  1  0.20767840  0.08339099  0.22949277  1
  P  P241  1  0.20834670  0.08438907  0.47910809  1
  P  P242  1  0.20956367  0.08308660  0.72721654  1
  P  P243  1  0.20820769  0.08138782  0.97773142  1
  P  P244  1  0.20798418  0.41622338  0.22897566  1
  P  P245  1  0.20834996  0.41557882  0.47794111  1
  P  P246  1  0.20749437  0.41772968  0.72900085  1
  P  P247  1  0.20790282  0.41796221  0.97719952  1
  P  P248  1  0.20808152  0.75211332  0.22765106  1
  P  P249  1  0.20797768  0.75245525  0.47852484  1
  P  P250  1  0.20861994  0.75217015  0.72893265  1
  P  P251  1  0.20911591  0.75102181  0.97665311  1
  P  P252  1  0.70752589  0.08491406  0.22770280  1
  P  P253  1  0.70843833  0.08380029  0.47605623  1
  P  P254  1  0.70816291  0.08283775  0.72571555  1
  P  P255  1  0.70714894  0.08499279  0.97732097  1
  P  P256  1  0.70870666  0.41630168  0.22667484  1
  P  P257  1  0.70845334  0.41575755  0.47544926  1
  P  P258  1  0.70654237  0.41555064  0.72802589  1
  P  P259  1  0.70737214  0.41695296  0.97800363  1
  P  P260  1  0.70718027  0.75028400  0.22862684  1
  P  P261  1  0.70695384  0.75145728  0.47702763  1
  P  P262  1  0.70690230  0.74946062  0.72873717  1
  P  P263  1  0.70832363  0.74972668  0.97622525  1
  P  P264  1  0.29351618  0.24967453  0.02201235  1
  P  P265  1  0.29196281  0.24962968  0.27458253  1
  P  P266  1  0.29214156  0.24884125  0.52224792  1
  P  P267  1  0.29332549  0.24942840  0.77137352  1
  P  P268  1  0.29296902  0.58403284  0.02089355  1
  P  P269  1  0.29378211  0.58421392  0.27200239  1
  P  P270  1  0.29356049  0.58433306  0.52200888  1
  P  P271  1  0.29161740  0.58435524  0.77372268  1
  P  P272  1  0.29278840  0.91532086  0.02239814  1
  P  P273  1  0.29273551  0.91532279  0.27322942  1
  P  P274  1  0.29161726  0.91694224  0.52407270  1
  P  P275  1  0.29206789  0.91733785  0.77324825  1
  P  P276  1  0.79083738  0.24965830  0.02297592  1
  P  P277  1  0.79073239  0.24982137  0.27207854  1
  P  P278  1  0.79167991  0.24820185  0.52129008  1
  P  P279  1  0.79173454  0.24753151  0.77187441  1
  P  P280  1  0.79131011  0.58172671  0.02169852  1
  P  P281  1  0.79164632  0.58144058  0.27175587  1
  P  P282  1  0.79216913  0.58255587  0.52101674  1
  P  P283  1  0.79026185  0.58230148  0.77365754  1
  P  P284  1  0.79214050  0.91651195  0.02072538  1
  P  P285  1  0.79069998  0.91705811  0.27319482  1
  P  P286  1  0.79147129  0.91809268  0.52146791  1
  P  P287  1  0.79172516  0.91559826  0.77199979  1
  O  O288  1  0.03781131  0.25071362  0.18332474  1
  O  O289  1  0.03758953  0.25019424  0.43369833  1
  O  O290  1  0.03769787  0.24912268  0.68461276  1
  O  O291  1  0.03755171  0.24856980  0.93287360  1
  O  O292  1  0.03756827  0.58372596  0.18201683  1
  O  O293  1  0.03826790  0.58246336  0.43214079  1
  O  O294  1  0.03731310  0.58347248  0.68441071  1
  O  O295  1  0.03625478  0.58440569  0.93164660  1
  O  O296  1  0.03722608  0.91758462  0.18183097  1
  O  O297  1  0.03764138  0.91620494  0.43347360  1
  O  O298  1  0.03718543  0.91700480  0.68462590  1
  O  O299  1  0.03683429  0.91780664  0.93290546  1
  O  O300  1  0.53556543  0.24961069  0.18183652  1
  O  O301  1  0.53658662  0.25005744  0.43143286  1
  O  O302  1  0.53740495  0.24992391  0.68035582  1
  O  O303  1  0.53631898  0.24811210  0.93199176  1
  O  O304  1  0.53776320  0.58392407  0.18392580  1
  O  O305  1  0.53668407  0.58380102  0.43302623  1
  O  O306  1  0.53678498  0.58217655  0.68260670  1
  O  O307  1  0.53687155  0.58181214  0.93253467  1
  O  O308  1  0.53685850  0.91604540  0.18305852  1
  O  O309  1  0.53582715  0.91757936  0.43204810  1
  O  O310  1  0.53643953  0.91743241  0.68126766  1
  O  O311  1  0.53776078  0.91560326  0.93242513  1
  O  O312  1  0.46359576  0.08364592  0.06847696  1
  O  O313  1  0.46351038  0.08350030  0.31764090  1
  O  O314  1  0.46411314  0.08430557  0.56632268  1
  O  O315  1  0.46354651  0.08413548  0.81736187  1
  O  O316  1  0.46307939  0.41410842  0.06755538  1
  O  O317  1  0.46390851  0.41609363  0.31801583  1
  O  O318  1  0.46360150  0.41859791  0.56678140  1
  O  O319  1  0.46334330  0.41553998  0.81743394  1
  O  O320  1  0.46439877  0.75052651  0.06882999  1
  O  O321  1  0.46401113  0.75123072  0.31729545  1
  O  O322  1  0.46305973  0.75226712  0.56765760  1
  O  O323  1  0.46390436  0.75165909  0.81765603  1
  O  O324  1  0.96161143  0.08249359  0.06649639  1
  O  O325  1  0.96118107  0.08341938  0.31743642  1
  O  O326  1  0.96336581  0.08319432  0.56933026  1
  O  O327  1  0.96373830  0.08211400  0.81686806  1
  O  O328  1  0.96238835  0.41818281  0.06730789  1
  O  O329  1  0.96268104  0.41767745  0.31664648  1
  O  O330  1  0.96222621  0.41729950  0.56815146  1
  O  O331  1  0.96173886  0.41704197  0.81619094  1
  O  O332  1  0.96219077  0.74953326  0.06571045  1
  O  O333  1  0.96154931  0.74976105  0.31670846  1
  O  O334  1  0.96179368  0.74884577  0.56791582  1
  O  O335  1  0.96321150  0.74752498  0.81670691  1
  O  O336  1  0.21319556  0.08148090  0.05770799  1
  O  O337  1  0.21273009  0.08383246  0.30947397  1
  O  O338  1  0.21389952  0.08427037  0.55897852  1
  O  O339  1  0.21436928  0.08224547  0.80716942  1
  O  O340  1  0.21296104  0.41773811  0.05723778  1
  O  O341  1  0.21336950  0.41555519  0.30894084  1
  O  O342  1  0.21327847  0.41581400  0.55794157  1
  O  O343  1  0.21287844  0.41839933  0.80892926  1
  O  O344  1  0.21374656  0.75090218  0.05665140  1
  O  O345  1  0.21302794  0.75209072  0.30765032  1
  O  O346  1  0.21334047  0.75248443  0.55848594  1
  O  O347  1  0.21419069  0.75175652  0.80880475  1
  O  O348  1  0.71240563  0.08514160  0.05724472  1
  O  O349  1  0.71291545  0.08476643  0.30757418  1
  O  O350  1  0.71345581  0.08338904  0.55595234  1
  O  O351  1  0.71283462  0.08298792  0.80571218  1
  O  O352  1  0.71292653  0.41675495  0.05784456  1
  O  O353  1  0.71379571  0.41610534  0.30656458  1
  O  O354  1  0.71274121  0.41520322  0.55546488  1
  O  O355  1  0.71161284  0.41580134  0.80798064  1
  O  O356  1  0.71288138  0.74943676  0.05626524  1
  O  O357  1  0.71264632  0.75094976  0.30852585  1
  O  O358  1  0.71192907  0.75123468  0.55704329  1
  O  O359  1  0.71237904  0.74945894  0.80865126  1
  O  O360  1  0.28741696  0.24981429  0.19451755  1
  O  O361  1  0.28654201  0.24919297  0.44235447  1
  O  O362  1  0.28779857  0.24893261  0.69145900  1
  O  O363  1  0.28856314  0.24964138  0.94205514  1
  O  O364  1  0.28870290  0.58432245  0.19197510  1
  O  O365  1  0.28856819  0.58438633  0.44204324  1
  O  O366  1  0.28723577  0.58465598  0.69368618  1
  O  O367  1  0.28751351  0.58392993  0.94096380  1
  O  O368  1  0.28773556  0.91519231  0.19328364  1
  O  O369  1  0.28699864  0.91698961  0.44411001  1
  O  O370  1  0.28670060  0.91733165  0.69337503  1
  O  O371  1  0.28756874  0.91588426  0.94250889  1
  O  O372  1  0.78580581  0.24999741  0.19217617  1
  O  O373  1  0.78656423  0.24861401  0.44140420  1
  O  O374  1  0.78650324  0.24729366  0.69193233  1
  O  O375  1  0.78611860  0.24952372  0.94299929  1
  O  O376  1  0.78600915  0.58133510  0.19184368  1
  O  O377  1  0.78711693  0.58220329  0.44105507  1
  O  O378  1  0.78576223  0.58271057  0.69363931  1
  O  O379  1  0.78560298  0.58191327  0.94184708  1
  O  O380  1  0.78611615  0.91746226  0.19316516  1
  O  O381  1  0.78612598  0.91787620  0.44158202  1
  O  O382  1  0.78669764  0.91628715  0.69207809  1
  O  O383  1  0.78648852  0.91597157  0.94082635  1
  O  O384  1  0.22899648  0.24953472  0.05690779  1
  O  O385  1  0.22766735  0.24965612  0.31010747  1
  O  O386  1  0.22814892  0.24816261  0.55870548  1
  O  O387  1  0.22911714  0.24963901  0.80698354  1
  O  O388  1  0.22878275  0.58414100  0.05669872  1
  O  O389  1  0.22936439  0.58390702  0.30702377  1
  O  O390  1  0.22911937  0.58454953  0.55701696  1
  O  O391  1  0.22733110  0.58401792  0.80914097  1
  O  O392  1  0.22853228  0.91500899  0.05837339  1
  O  O393  1  0.22841931  0.91566575  0.30886712  1
  O  O394  1  0.22748801  0.91662862  0.55998190  1
  O  O395  1  0.22807299  0.91730547  0.80985680  1
  O  O396  1  0.72665426  0.24949476  0.05890338  1
  O  O397  1  0.72664634  0.24917801  0.30829032  1
  O  O398  1  0.72735622  0.24740848  0.55705026  1
  O  O399  1  0.72747566  0.24790805  0.80763686  1
  O  O400  1  0.72728585  0.58101094  0.05815710  1
  O  O401  1  0.72755763  0.58157347  0.30788559  1
  O  O402  1  0.72772320  0.58253085  0.55617439  1
  O  O403  1  0.72604446  0.58193176  0.80930850  1
  O  O404  1  0.72795990  0.91701191  0.05646005  1
  O  O405  1  0.72647495  0.91641103  0.30885028  1
  O  O406  1  0.72727764  0.91857292  0.55749804  1
  O  O407  1  0.72744773  0.91512011  0.80764755  1
  O  O408  1  0.27211057  0.08290493  0.19431382  1
  O  O409  1  0.27244420  0.08461097  0.44283201  1
  O  O410  1  0.27366388  0.08362949  0.69119096  1
  O  O411  1  0.27264749  0.08119775  0.94242884  1
  O  O412  1  0.27233791  0.41657922  0.19359057  1
  O  O413  1  0.27274386  0.41531434  0.44261585  1
  O  O414  1  0.27181725  0.41705704  0.69362909  1
  O  O415  1  0.27229059  0.41846426  0.94188978  1
  O  O416  1  0.27250877  0.75228382  0.19219560  1
  O  O417  1  0.27226250  0.75257820  0.44270787  1
  O  O418  1  0.27268172  0.75283968  0.69258321  1
  O  O419  1  0.27335203  0.75151469  0.94102863  1
  O  O420  1  0.77162232  0.08551773  0.19143270  1
  O  O421  1  0.77245221  0.08449391  0.43983668  1
  O  O422  1  0.77241855  0.08269829  0.68986500  1
  O  O423  1  0.77137751  0.08464872  0.94147372  1
  O  O424  1  0.77263349  0.41664271  0.19014563  1
  O  O425  1  0.77273352  0.41617268  0.44002750  1
  O  O426  1  0.77090881  0.41515028  0.69275844  1
  O  O427  1  0.77138737  0.41741740  0.94153979  1
  O  O428  1  0.77135327  0.74962002  0.19289199  1
  O  O429  1  0.77129404  0.75154297  0.44161086  1
  O  O430  1  0.77106041  0.74968947  0.69282732  1
  O  O431  1  0.77249195  0.75002356  0.94051016  1
  O  O432  1  0.02083074  0.08349145  0.18157651  1
  O  O433  1  0.02107740  0.08323848  0.43210182  1
  O  O434  1  0.02303634  0.08319461  0.68481916  1
  O  O435  1  0.02207178  0.08120880  0.93307772  1
  O  O436  1  0.02199575  0.41883207  0.18257542  1
  O  O437  1  0.02181114  0.41649856  0.43196294  1
  O  O438  1  0.02112532  0.41812221  0.68373356  1
  O  O439  1  0.02100632  0.41689314  0.93131879  1
  O  O440  1  0.02117621  0.74990271  0.18097505  1
  O  O441  1  0.02131055  0.74974748  0.43156242  1
  O  O442  1  0.02129188  0.74839344  0.68304628  1
  O  O443  1  0.02206172  0.74816043  0.93252374  1
  O  O444  1  0.52267732  0.08291563  0.18454314  1
  O  O445  1  0.52323445  0.08337055  0.43333963  1
  O  O446  1  0.52296130  0.08492210  0.68240456  1
  O  O447  1  0.52239389  0.08460725  0.93323514  1
  O  O448  1  0.52222060  0.41494567  0.18310970  1
  O  O449  1  0.52357803  0.41725091  0.43362864  1
  O  O450  1  0.52216189  0.41810066  0.68286643  1
  O  O451  1  0.52217048  0.41399434  0.93346884  1
  O  O452  1  0.52340506  0.74941269  0.18496790  1
  O  O453  1  0.52221788  0.75247477  0.43363795  1
  O  O454  1  0.52201948  0.75168852  0.68336484  1
  O  O455  1  0.52299000  0.75165613  0.93343144  1
  O  O456  1  0.47696795  0.24951514  0.06527031  1
  O  O457  1  0.47668181  0.25030400  0.31586929  1
  O  O458  1  0.47752324  0.25039446  0.56478988  1
  O  O459  1  0.47813034  0.24826864  0.81552545  1
  O  O460  1  0.47882139  0.58301894  0.06846814  1
  O  O461  1  0.47828212  0.58463322  0.31683890  1
  O  O462  1  0.47803968  0.58279777  0.56680259  1
  O  O463  1  0.47739385  0.58181194  0.81696514  1
  O  O464  1  0.47835006  0.91527354  0.06685204  1
  O  O465  1  0.47682641  0.91803081  0.31576161  1
  O  O466  1  0.47706646  0.91719726  0.56540076  1
  O  O467  1  0.47823221  0.91600411  0.81694700  1
  O  O468  1  0.97843538  0.24989207  0.06845638  1
  O  O469  1  0.97817053  0.25059762  0.31869854  1
  O  O470  1  0.97832093  0.24989496  0.56954011  1
  O  O471  1  0.97815034  0.24813457  0.81762608  1
  O  O472  1  0.97825897  0.58531521  0.06663998  1
  O  O473  1  0.97849362  0.58168375  0.31697501  1
  O  O474  1  0.97856416  0.58338114  0.56893064  1
  O  O475  1  0.97687358  0.58327599  0.81585445  1
  O  O476  1  0.97805623  0.91798707  0.06635830  1
  O  O477  1  0.97804935  0.91637559  0.31863647  1
  O  O478  1  0.97806142  0.91634140  0.56934967  1
  O  O479  1  0.97787874  0.91749645  0.81723839  1
  O  O480  1  0.07361045  0.31414660  0.07495223  1
  O  O481  1  0.07403129  0.31343063  0.32549037  1
  O  O482  1  0.07372203  0.31338203  0.57669828  1
  O  O483  1  0.07355435  0.31211140  0.82517891  1
  O  O484  1  0.07350842  0.64836270  0.07380910  1
  O  O485  1  0.07367535  0.64606809  0.32412168  1
  O  O486  1  0.07413575  0.64683699  0.57586905  1
  O  O487  1  0.07203539  0.64722721  0.82303069  1
  O  O488  1  0.07305556  0.98179513  0.07371866  1
  O  O489  1  0.07355680  0.98010567  0.32555975  1
  O  O490  1  0.07357599  0.97998151  0.57617547  1
  O  O491  1  0.07318349  0.98074166  0.82404560  1
  O  O492  1  0.57199809  0.31295529  0.07343142  1
  O  O493  1  0.57203470  0.31351872  0.32278024  1
  O  O494  1  0.57242827  0.31391569  0.57196346  1
  O  O495  1  0.57344593  0.31179529  0.82428618  1
  O  O496  1  0.57437081  0.64635591  0.07507994  1
  O  O497  1  0.57316616  0.64815989  0.32529349  1
  O  O498  1  0.57342403  0.64640891  0.57535825  1
  O  O499  1  0.57284266  0.64515759  0.82473942  1
  O  O500  1  0.57360596  0.97900146  0.07484839  1
  O  O501  1  0.57207298  0.98108939  0.32368058  1
  O  O502  1  0.57180669  0.98116603  0.57273571  1
  O  O503  1  0.57366906  0.97943737  0.82458578  1
  O  O504  1  0.42758305  0.01945022  0.17627053  1
  O  O505  1  0.42781560  0.02040471  0.42656059  1
  O  O506  1  0.42750759  0.02157244  0.67483107  1
  O  O507  1  0.42759992  0.02030276  0.92529690  1
  O  O508  1  0.42707932  0.35132816  0.17666081  1
  O  O509  1  0.42878441  0.35327031  0.42711381  1
  O  O510  1  0.42695009  0.35425344  0.67412471  1
  O  O511  1  0.42695178  0.35116625  0.92526328  1
  O  O512  1  0.42814415  0.68630986  0.17661119  1
  O  O513  1  0.42700591  0.68859547  0.42556042  1
  O  O514  1  0.42648860  0.68852577  0.67536188  1
  O  O515  1  0.42789450  0.68763805  0.92523482  1
  O  O516  1  0.92523308  0.01977389  0.17512851  1
  O  O517  1  0.92563023  0.01974274  0.42575140  1
  O  O518  1  0.92804685  0.01918276  0.67722828  1
  O  O519  1  0.92670951  0.01830718  0.92512898  1
  O  O520  1  0.92657350  0.35483792  0.17516940  1
  O  O521  1  0.92619101  0.35350706  0.42463167  1
  O  O522  1  0.92588826  0.35377522  0.67568246  1
  O  O523  1  0.92581339  0.35299605  0.92427521  1
  O  O524  1  0.92538157  0.68671449  0.17425580  1
  O  O525  1  0.92603427  0.68576290  0.42466016  1
  O  O526  1  0.92602404  0.68492662  0.67633718  1
  O  O527  1  0.92684456  0.68472885  0.92560630  1
  O  O528  1  0.17654654  0.01978632  0.20160086  1
  O  O529  1  0.17717007  0.02071457  0.45123664  1
  O  O530  1  0.17896239  0.01941149  0.69844846  1
  O  O531  1  0.17747567  0.01797231  0.94896801  1
  O  O532  1  0.17676835  0.35301532  0.20030283  1
  O  O533  1  0.17755209  0.35193829  0.44976356  1
  O  O534  1  0.17613773  0.35408329  0.70151542  1
  O  O535  1  0.17704342  0.35415826  0.94946869  1
  O  O536  1  0.17730173  0.68826974  0.19965351  1
  O  O537  1  0.17708938  0.68860428  0.45069007  1
  O  O538  1  0.17774723  0.68848502  0.70069007  1
  O  O539  1  0.17897461  0.68694011  0.94803448  1
  O  O540  1  0.67674177  0.02111285  0.19961013  1
  O  O541  1  0.67810912  0.01986800  0.44723856  1
  O  O542  1  0.67754458  0.01898163  0.69742735  1
  O  O543  1  0.67589619  0.02131115  0.94962736  1
  O  O544  1  0.67817696  0.35237276  0.19810092  1
  O  O545  1  0.67810595  0.35192849  0.44663252  1
  O  O546  1  0.67541502  0.35201375  0.69984055  1
  O  O547  1  0.67639881  0.35323954  0.94996163  1
  O  O548  1  0.67587564  0.68665047  0.20104409  1
  O  O549  1  0.67587408  0.68777302  0.44939489  1
  O  O550  1  0.67574760  0.68601813  0.70029611  1
  O  O551  1  0.67790133  0.68566427  0.94811410  1
  O  O552  1  0.32432682  0.31326485  0.05022200  1
  O  O553  1  0.32271637  0.31332002  0.30299865  1
  O  O554  1  0.32315216  0.31253892  0.55025786  1
  O  O555  1  0.32446939  0.31317682  0.79887979  1
  O  O556  1  0.32433895  0.64746921  0.04911445  1
  O  O557  1  0.32455258  0.64784495  0.30015245  1
  O  O558  1  0.32472191  0.64774680  0.55023309  1
  O  O559  1  0.32197274  0.64838365  0.80202599  1
  O  O560  1  0.32399027  0.97869684  0.05098130  1
  O  O561  1  0.32384394  0.97906274  0.30103121  1
  O  O562  1  0.32191321  0.98106396  0.55237146  1
  O  O563  1  0.32304274  0.98102891  0.80144219  1
  O  O564  1  0.82124994  0.31367868  0.05127956  1
  O  O565  1  0.82095548  0.31385482  0.30079933  1
  O  O566  1  0.82237900  0.31190250  0.54984218  1
  O  O567  1  0.82302197  0.31114411  0.79962464  1
  O  O568  1  0.82213236  0.64557712  0.04969880  1
  O  O569  1  0.82293948  0.64516222  0.29916646  1
  O  O570  1  0.82286765  0.64636792  0.54913584  1
  O  O571  1  0.82067529  0.64618138  0.80221837  1
  O  O572  1  0.82335979  0.98015105  0.04841328  1
  O  O573  1  0.82085045  0.98116702  0.30151272  1
  O  O574  1  0.82256108  0.98143506  0.55029714  1
  O  O575  1  0.82278241  0.97910987  0.80020700  1
  O  O576  1  0.42795545  0.14674418  0.17722355  1
  O  O577  1  0.42866825  0.14750000  0.42620271  1
  O  O578  1  0.42821685  0.14849305  0.67458260  1
  O  O579  1  0.42688026  0.14725391  0.92594192  1
  O  O580  1  0.42685930  0.47833659  0.17499677  1
  O  O581  1  0.42848323  0.48064864  0.42574981  1
  O  O582  1  0.42705713  0.48119630  0.67601430  1
  O  O583  1  0.42725185  0.47834365  0.92575034  1
  O  O584  1  0.42890248  0.81371793  0.17738397  1
  O  O585  1  0.42717461  0.81551718  0.42525694  1
  O  O586  1  0.42728054  0.81565197  0.67642425  1
  O  O587  1  0.42783298  0.81476136  0.92653660  1
  O  O588  1  0.92541617  0.14666986  0.17437682  1
  O  O589  1  0.92569636  0.14675287  0.42578136  1
  O  O590  1  0.92792397  0.14672402  0.67750565  1
  O  O591  1  0.92700292  0.14526502  0.92487375  1
  O  O592  1  0.92707620  0.48219316  0.17570207  1
  O  O593  1  0.92651887  0.48031714  0.42525048  1
  O  O594  1  0.92587999  0.48102341  0.67633715  1
  O  O595  1  0.92535077  0.47993929  0.92452060  1
  O  O596  1  0.92590668  0.81354508  0.17357510  1
  O  O597  1  0.92572137  0.81279040  0.42535100  1
  O  O598  1  0.92588879  0.81207578  0.67589779  1
  O  O599  1  0.92686548  0.81184369  0.92374724  1
  O  O600  1  0.07430218  0.18713860  0.07548753  1
  O  O601  1  0.07324561  0.18648694  0.32560062  1
  O  O602  1  0.07383349  0.18642761  0.57601998  1
  O  O603  1  0.07334685  0.18486930  0.82459215  1
  O  O604  1  0.07361805  0.52131124  0.07341870  1
  O  O605  1  0.07376189  0.51882284  0.32350967  1
  O  O606  1  0.07411404  0.52017596  0.57612001  1
  O  O607  1  0.07172194  0.51976957  0.82397161  1
  O  O608  1  0.07349145  0.85458289  0.07382649  1
  O  O609  1  0.07354900  0.85314813  0.32480801  1
  O  O610  1  0.07335970  0.85303501  0.57679166  1
  O  O611  1  0.07294335  0.85360508  0.82573694  1
  O  O612  1  0.57168378  0.18573153  0.07377394  1
  O  O613  1  0.57130046  0.18636240  0.32260229  1
  O  O614  1  0.57241602  0.18662619  0.57158414  1
  O  O615  1  0.57294947  0.18497988  0.82307614  1
  O  O616  1  0.57393945  0.51947664  0.07639949  1
  O  O617  1  0.57354336  0.52097104  0.32504687  1
  O  O618  1  0.57316218  0.51940611  0.57347799  1
  O  O619  1  0.57206935  0.51783809  0.82422291  1
  O  O620  1  0.57334532  0.85202666  0.07479021  1
  O  O621  1  0.57134421  0.85396814  0.32352884  1
  O  O622  1  0.57232708  0.85388505  0.57306668  1
  O  O623  1  0.57314772  0.85239746  0.82330794  1
  O  O624  1  0.32436999  0.18618498  0.05036796  1
  O  O625  1  0.32258050  0.18585227  0.30267897  1
  O  O626  1  0.32345182  0.18557709  0.55062342  1
  O  O627  1  0.32461318  0.18627446  0.79982330  1
  O  O628  1  0.32422055  0.52076980  0.04943053  1
  O  O629  1  0.32503987  0.52081613  0.29990477  1
  O  O630  1  0.32426004  0.52069085  0.55012934  1
  O  O631  1  0.32258270  0.52083540  0.80185918  1
  O  O632  1  0.32356674  0.85182779  0.05103357  1
  O  O633  1  0.32335929  0.85205357  0.30224683  1
  O  O634  1  0.32287833  0.85381873  0.55263835  1
  O  O635  1  0.32308471  0.85388899  0.80167983  1
  O  O636  1  0.82198547  0.18638531  0.05141004  1
  O  O637  1  0.82232453  0.18678180  0.30054438  1
  O  O638  1  0.82293943  0.18506804  0.55012057  1
  O  O639  1  0.82230104  0.18414708  0.80089405  1
  O  O640  1  0.82273590  0.51862664  0.05029883  1
  O  O641  1  0.82245911  0.51802992  0.30032592  1
  O  O642  1  0.82334425  0.51940900  0.54978638  1
  O  O643  1  0.82118075  0.51869907  0.80158071  1
  O  O644  1  0.82329009  0.85326660  0.04922330  1
  O  O645  1  0.82190065  0.85360628  0.30115051  1
  O  O646  1  0.82247629  0.85456045  0.54974245  1
  O  O647  1  0.82248912  0.85198987  0.80033878  1
  O  O648  1  0.17678521  0.14666700  0.20070894  1
  O  O649  1  0.17726309  0.14760832  0.45030360  1
  O  O650  1  0.17856484  0.14676577  0.69948321  1
  O  O651  1  0.17736392  0.14510375  0.94984880  1
  O  O652  1  0.17702563  0.47990867  0.20114118  1
  O  O653  1  0.17749124  0.47928734  0.45011640  1
  O  O654  1  0.17661167  0.48097505  0.70017331  1
  O  O655  1  0.17700042  0.48145480  0.94889618  1
  O  O656  1  0.17718355  0.81528934  0.19867537  1
  O  O657  1  0.17704649  0.81573983  0.44990016  1
  O  O658  1  0.17728621  0.81544806  0.70064947  1
  O  O659  1  0.17759304  0.81413027  0.94840567  1
  O  O660  1  0.67624861  0.14809351  0.19907860  1
  O  O661  1  0.67682755  0.14690621  0.44769556  1
  O  O662  1  0.67731049  0.14626154  0.69711418  1
  O  O663  1  0.67657209  0.14835396  0.94833582  1
  O  O664  1  0.67728750  0.47956802  0.19845135  1
  O  O665  1  0.67751954  0.47936137  0.44747454  1
  O  O666  1  0.67564343  0.47886398  0.69936494  1
  O  O667  1  0.67610857  0.48017157  0.94940402  1
  O  O668  1  0.67624571  0.81357170  0.19993582  1
  O  O669  1  0.67638327  0.81511270  0.44871161  1
  O  O670  1  0.67557010  0.81275439  0.70037034  1
  O  O671  1  0.67732870  0.81324644  0.94818798  1
