# generated using pymatgen
data_Na2MnFe(PO4)2
_symmetry_space_group_name_H-M   'P 1'
_cell_length_a   22.34560928
_cell_length_b   20.09878187
_cell_length_c   19.44778901
_cell_angle_alpha   90.00928277
_cell_angle_beta   90.01540509
_cell_angle_gamma   90.02886402
_symmetry_Int_Tables_number   1
_chemical_formula_structural   Na2MnFe(PO4)2
_chemical_formula_sum   'Na96 Mn48 Fe48 P96 O384'
_cell_volume   8734.38025581
_cell_formula_units_Z   48
loop_
 _symmetry_equiv_pos_site_id
 _symmetry_equiv_pos_as_xyz
  1  'x, y, z'
loop_
 _atom_site_type_symbol
 _atom_site_label
 _atom_site_symmetry_multiplicity
 _atom_site_fract_x
 _atom_site_fract_y
 _atom_site_fract_z
 _atom_site_occupancy
  Na  Na0  1  0.14077706  0.24960927  0.24322872  1
  Na  Na1  1  0.14105393  0.24987730  0.49344708  1
  Na  Na2  1  0.13995400  0.24980453  0.74327872  1
  Na  Na3  1  0.14046236  0.25106362  0.99348549  1
  Na  Na4  1  0.14062015  0.58361149  0.24228794  1
  Na  Na5  1  0.14022746  0.58304693  0.49345846  1
  Na  Na6  1  0.13988322  0.58238043  0.74260342  1
  Na  Na7  1  0.14062921  0.58260845  0.99287075  1
  Na  Na8  1  0.14130270  0.91702387  0.24302308  1
  Na  Na9  1  0.14056468  0.91839658  0.49345896  1
  Na  Na10  1  0.13999452  0.91645820  0.74324437  1
  Na  Na11  1  0.14005514  0.91653679  0.99416133  1
  Na  Na12  1  0.64038780  0.24863556  0.24404498  1
  Na  Na13  1  0.64031293  0.24962289  0.49444588  1
  Na  Na14  1  0.63986041  0.25026114  0.74362036  1
  Na  Na15  1  0.64023627  0.24942648  0.99344153  1
  Na  Na16  1  0.64006362  0.58270913  0.24420683  1
  Na  Na17  1  0.64014122  0.58348660  0.49335317  1
  Na  Na18  1  0.64003427  0.58276373  0.74388745  1
  Na  Na19  1  0.64027398  0.58309812  0.99340301  1
  Na  Na20  1  0.64039436  0.91609123  0.24514011  1
  Na  Na21  1  0.63970680  0.91654611  0.49378893  1
  Na  Na22  1  0.64022424  0.91745671  0.74431277  1
  Na  Na23  1  0.63983909  0.91714293  0.99483330  1
  Na  Na24  1  0.35869507  0.08419083  0.00789230  1
  Na  Na25  1  0.35901562  0.08415803  0.25789071  1
  Na  Na26  1  0.35974433  0.08384305  0.50679270  1
  Na  Na27  1  0.35949061  0.08410578  0.75570089  1
  Na  Na28  1  0.35943127  0.41712919  0.00560621  1
  Na  Na29  1  0.35957226  0.41637450  0.25664024  1
  Na  Na30  1  0.36006109  0.41684470  0.50618770  1
  Na  Na31  1  0.35986934  0.41640606  0.75685381  1
  Na  Na32  1  0.35905856  0.75090818  0.00763580  1
  Na  Na33  1  0.35955653  0.75160035  0.25694343  1
  Na  Na34  1  0.35963226  0.75197757  0.50643335  1
  Na  Na35  1  0.35932893  0.74971675  0.75578068  1
  Na  Na36  1  0.85929329  0.08239939  0.00555885  1
  Na  Na37  1  0.85974945  0.08190132  0.25482873  1
  Na  Na38  1  0.86036942  0.08274440  0.50654390  1
  Na  Na39  1  0.85955678  0.08391604  0.75647632  1
  Na  Na40  1  0.86035576  0.41521206  0.00536582  1
  Na  Na41  1  0.86017848  0.41559434  0.25580639  1
  Na  Na42  1  0.86021261  0.41698953  0.50634726  1
  Na  Na43  1  0.86031424  0.41645521  0.75751394  1
  Na  Na44  1  0.85967361  0.75104433  0.00544423  1
  Na  Na45  1  0.86008547  0.74854256  0.25591605  1
  Na  Na46  1  0.85985068  0.75013496  0.50560215  1
  Na  Na47  1  0.86009585  0.75026866  0.75789688  1
  Na  Na48  1  0.11021181  0.08321284  0.11750249  1
  Na  Na49  1  0.11048134  0.08363601  0.36788056  1
  Na  Na50  1  0.10967551  0.08362012  0.61822381  1
  Na  Na51  1  0.10931867  0.08250476  0.86878369  1
  Na  Na52  1  0.10992836  0.41571239  0.11781054  1
  Na  Na53  1  0.10993263  0.41701482  0.36829974  1
  Na  Na54  1  0.11003966  0.41617271  0.61958201  1
  Na  Na55  1  0.10988629  0.41624517  0.86752071  1
  Na  Na56  1  0.11007845  0.74947665  0.11774067  1
  Na  Na57  1  0.11022090  0.75042826  0.36803725  1
  Na  Na58  1  0.10943408  0.75049341  0.61869762  1
  Na  Na59  1  0.10945615  0.74953157  0.86848483  1
  Na  Na60  1  0.60974673  0.08371979  0.11926781  1
  Na  Na61  1  0.60935821  0.08275145  0.36944934  1
  Na  Na62  1  0.60898746  0.08344328  0.61879220  1
  Na  Na63  1  0.60913203  0.08368187  0.86905742  1
  Na  Na64  1  0.60944658  0.41731629  0.11914984  1
  Na  Na65  1  0.60974826  0.41759710  0.36850258  1
  Na  Na66  1  0.60956596  0.41618014  0.61968221  1
  Na  Na67  1  0.60961880  0.41631606  0.86683646  1
  Na  Na68  1  0.60920408  0.75054217  0.12025735  1
  Na  Na69  1  0.60915196  0.75032638  0.36871557  1
  Na  Na70  1  0.60915754  0.74937912  0.61940219  1
  Na  Na71  1  0.60910617  0.74993619  0.86858477  1
  Na  Na72  1  0.38955882  0.25130368  0.13282559  1
  Na  Na73  1  0.38998014  0.24997244  0.38197913  1
  Na  Na74  1  0.39055033  0.25090398  0.63143562  1
  Na  Na75  1  0.38979543  0.25089316  0.88087564  1
  Na  Na76  1  0.39036446  0.58496456  0.13196099  1
  Na  Na77  1  0.39054138  0.58443913  0.38021845  1
  Na  Na78  1  0.39070676  0.58214536  0.63146662  1
  Na  Na79  1  0.38996640  0.58306289  0.88045783  1
  Na  Na80  1  0.38959699  0.91724998  0.13414048  1
  Na  Na81  1  0.38990455  0.91770528  0.38284985  1
  Na  Na82  1  0.38958586  0.91690037  0.63095870  1
  Na  Na83  1  0.38964448  0.91695590  0.88114439  1
  Na  Na84  1  0.89033682  0.24950329  0.13023234  1
  Na  Na85  1  0.89099591  0.25018533  0.38102700  1
  Na  Na86  1  0.89093720  0.25041596  0.63233407  1
  Na  Na87  1  0.89064653  0.25023621  0.88104281  1
  Na  Na88  1  0.89090642  0.58129490  0.13026484  1
  Na  Na89  1  0.89099141  0.58313303  0.38083002  1
  Na  Na90  1  0.89120537  0.58289868  0.63195591  1
  Na  Na91  1  0.89088188  0.58248730  0.88095963  1
  Na  Na92  1  0.89019217  0.91559901  0.13013185  1
  Na  Na93  1  0.89077968  0.91597432  0.38087879  1
  Na  Na94  1  0.89080333  0.91699997  0.63195647  1
  Na  Na95  1  0.89003475  0.91609955  0.88181962  1
  Mn  Mn96  1  0.74933850  0.83372768  0.12523591  1
  Mn  Mn97  1  0.50032932  0.33400300  0.25096930  1
  Mn  Mn98  1  0.49975258  0.66690296  0.00047698  1
  Mn  Mn99  1  -0.00006190  -0.00034687  0.75006889  1
  Mn  Mn100  1  0.00014220  0.16663974  -0.00071675  1
  Mn  Mn101  1  0.49998009  0.66624777  0.49967489  1
  Mn  Mn102  1  0.50018836  0.50067594  -0.00043459  1
  Mn  Mn103  1  0.00060959  0.33430429  0.50110309  1
  Mn  Mn104  1  0.24927574  0.66643273  0.87484730  1
  Mn  Mn105  1  0.49990785  0.00069621  0.25129996  1
  Mn  Mn106  1  0.74953599  0.66669365  0.87539426  1
  Mn  Mn107  1  0.49920506  0.16772417  0.00004638  1
  Mn  Mn108  1  0.00021538  0.66574578  -0.00104936  1
  Mn  Mn109  1  0.49908465  0.83351650  0.00058778  1
  Mn  Mn110  1  0.75090580  0.33308530  0.37466218  1
  Mn  Mn111  1  0.00013777  0.66605420  0.50031734  1
  Mn  Mn112  1  0.25004610  0.83382880  0.87547669  1
  Mn  Mn113  1  0.49964569  0.83280690  0.75033887  1
  Mn  Mn114  1  0.74980592  0.33298349  0.62507561  1
  Mn  Mn115  1  0.75055507  0.00049826  0.62499035  1
  Mn  Mn116  1  -0.00034663  0.16722669  0.24887125  1
  Mn  Mn117  1  0.75021066  0.49979767  0.62530684  1
  Mn  Mn118  1  0.50004859  0.33392400  0.00018556  1
  Mn  Mn119  1  -0.00010272  0.83357486  0.49962594  1
  Mn  Mn120  1  0.75037135  0.66623222  0.12497527  1
  Mn  Mn121  1  0.50016607  0.33373558  0.50023455  1
  Mn  Mn122  1  0.75048786  0.16580379  0.37473300  1
  Mn  Mn123  1  0.25048596  0.66747868  0.62413447  1
  Mn  Mn124  1  0.25013926  0.00025791  0.87576013  1
  Mn  Mn125  1  0.00030637  0.49952858  0.24949435  1
  Mn  Mn126  1  0.75007016  0.83374868  0.62567211  1
  Mn  Mn127  1  0.75018936  0.66615238  0.37503431  1
  Mn  Mn128  1  0.00085040  0.83215672  0.24949436  1
  Mn  Mn129  1  0.49973552  0.00060737  0.75012445  1
  Mn  Mn130  1  0.75024575  0.66688760  0.62540564  1
  Mn  Mn131  1  0.25032941  0.49933328  0.37378562  1
  Mn  Mn132  1  0.25038883  0.16695966  0.62498411  1
  Mn  Mn133  1  0.49876361  0.00081552  0.00106193  1
  Mn  Mn134  1  0.74992608  0.49890734  0.12423302  1
  Mn  Mn135  1  0.00040906  -0.00060970  0.24902340  1
  Mn  Mn136  1  0.74950521  0.16632056  0.87503900  1
  Mn  Mn137  1  0.74993238  -0.00094884  0.37546203  1
  Mn  Mn138  1  0.25016534  0.66799381  0.37444012  1
  Mn  Mn139  1  0.74909692  0.33208399  0.12507511  1
  Mn  Mn140  1  0.25030198  0.49893289  0.62391420  1
  Mn  Mn141  1  0.24997216  0.49962769  0.12445164  1
  Mn  Mn142  1  0.00085106  0.16646911  0.49977433  1
  Mn  Mn143  1  0.24891005  0.16755595  0.87548818  1
  Fe  Fe144  1  0.75026399  0.16558101  0.12414107  1
  Fe  Fe145  1  0.74912037  0.83399954  0.87573730  1
  Fe  Fe146  1  0.50016771  0.16691663  0.50074839  1
  Fe  Fe147  1  0.49989322  0.50092669  0.24994850  1
  Fe  Fe148  1  0.24957107  0.00042263  0.62456165  1
  Fe  Fe149  1  0.25026410  0.66718053  0.12448361  1
  Fe  Fe150  1  0.00025931  0.83326912  0.75000364  1
  Fe  Fe151  1  0.00031679  0.49953016  0.75049691  1
  Fe  Fe152  1  -0.00031150  -0.00090366  -0.00128921  1
  Fe  Fe153  1  0.75029010  -0.00068043  0.12479682  1
  Fe  Fe154  1  0.49940761  0.83305987  0.50040866  1
  Fe  Fe155  1  0.00055651  0.33316347  -0.00082209  1
  Fe  Fe156  1  0.50029325  0.50010006  0.50024640  1
  Fe  Fe157  1  0.75022907  0.33259228  0.87500851  1
  Fe  Fe158  1  0.74916171  0.00033388  0.87549358  1
  Fe  Fe159  1  0.49969588  0.49985729  0.74980960  1
  Fe  Fe160  1  0.24936992  0.83428303  0.62478914  1
  Fe  Fe161  1  0.00025085  0.33361383  0.24966157  1
  Fe  Fe162  1  -0.00036813  0.83226524  -0.00073658  1
  Fe  Fe163  1  0.00012716  0.66625455  0.75000504  1
  Fe  Fe164  1  0.00027003  0.33342818  0.75002108  1
  Fe  Fe165  1  0.25016970  0.33325718  0.62488181  1
  Fe  Fe166  1  0.24966779  0.83431335  0.37493537  1
  Fe  Fe167  1  0.75011588  0.16689713  0.62556695  1
  Fe  Fe168  1  0.75046123  0.49962398  0.37509169  1
  Fe  Fe169  1  0.25020484  0.16681680  0.37489643  1
  Fe  Fe170  1  0.24994778  0.33276769  0.37472541  1
  Fe  Fe171  1  -0.00017206  0.16637152  0.75008394  1
  Fe  Fe172  1  0.25021704  0.33340539  0.87515827  1
  Fe  Fe173  1  0.00055105  0.66585236  0.24915759  1
  Fe  Fe174  1  0.00058183  0.49996951  0.50028441  1
  Fe  Fe175  1  0.50032547  0.66746398  0.25100602  1
  Fe  Fe176  1  0.49915014  0.16680642  0.74969705  1
  Fe  Fe177  1  0.25001654  0.16711450  0.12554340  1
  Fe  Fe178  1  0.00075471  0.49920710  -0.00037107  1
  Fe  Fe179  1  0.24986299  0.00032548  0.12628390  1
  Fe  Fe180  1  0.49981856  0.16701421  0.25132935  1
  Fe  Fe181  1  0.49972534  0.33310607  0.74923263  1
  Fe  Fe182  1  0.00025768  0.00027196  0.50011493  1
  Fe  Fe183  1  0.25011290  0.83425914  0.12584981  1
  Fe  Fe184  1  0.49961624  0.00007663  0.50039351  1
  Fe  Fe185  1  0.24991608  0.33311202  0.12508290  1
  Fe  Fe186  1  0.75051504  0.83290963  0.37491932  1
  Fe  Fe187  1  0.49917163  0.66613607  0.74914915  1
  Fe  Fe188  1  0.75038460  0.49940281  0.87495496  1
  Fe  Fe189  1  0.25010558  0.49982980  0.87477564  1
  Fe  Fe190  1  0.25002380  0.00050094  0.37503048  1
  Fe  Fe191  1  0.49984406  0.83402131  0.25126344  1
  P  P192  1  0.04217919  0.25134440  0.10204256  1
  P  P193  1  0.04234236  0.25146765  0.35203484  1
  P  P194  1  0.04298068  0.24996610  0.60410529  1
  P  P195  1  0.04126267  0.24992871  0.85152292  1
  P  P196  1  0.04267961  0.58165256  0.10192710  1
  P  P197  1  0.04314452  0.58422359  0.35210966  1
  P  P198  1  0.04251403  0.58181666  0.60344081  1
  P  P199  1  0.04176675  0.58266797  0.85166323  1
  P  P200  1  0.04111565  0.91567374  0.10058511  1
  P  P201  1  0.04331818  0.91665802  0.35281632  1
  P  P202  1  0.04208867  0.91776745  0.60251833  1
  P  P203  1  0.04197066  0.91503283  0.85297190  1
  P  P204  1  0.54260732  0.25040909  0.10398956  1
  P  P205  1  0.54227191  0.24877920  0.35361694  1
  P  P206  1  0.54188239  0.24918484  0.60332673  1
  P  P207  1  0.54090339  0.24992926  0.85110170  1
  P  P208  1  0.54270047  0.58382312  0.10416048  1
  P  P209  1  0.54139102  0.58340898  0.35212238  1
  P  P210  1  0.54207214  0.58180310  0.60309654  1
  P  P211  1  0.54118255  0.58352498  0.85106353  1
  P  P212  1  0.54178778  0.91700127  0.10454664  1
  P  P213  1  0.54156863  0.91584227  0.35419408  1
  P  P214  1  0.54080533  0.91634041  0.60183378  1
  P  P215  1  0.54233544  0.91696466  0.85343999  1
  P  P216  1  0.45710892  0.08531586  0.14889219  1
  P  P217  1  0.45881580  0.08410619  0.39898893  1
  P  P218  1  0.45766271  0.08464735  0.64665386  1
  P  P219  1  0.45614237  0.08417867  0.89681415  1
  P  P220  1  0.45760768  0.41840626  0.14805228  1
  P  P221  1  0.45813157  0.41867442  0.39734631  1
  P  P222  1  0.45855878  0.41695634  0.64803827  1
  P  P223  1  0.45764361  0.41683929  0.89573241  1
  P  P224  1  0.45846581  0.75072032  0.14962096  1
  P  P225  1  0.45775071  0.75143095  0.39720355  1
  P  P226  1  0.45742827  0.74892034  0.64692769  1
  P  P227  1  0.45635431  0.74952052  0.89676877  1
  P  P228  1  0.95778804  0.08260245  0.14533675  1
  P  P229  1  0.95827911  0.08214177  0.39719042  1
  P  P230  1  0.95790928  0.08430073  0.64740761  1
  P  P231  1  0.95791401  0.08220351  0.89674205  1
  P  P232  1  0.95812762  0.41482208  0.14638050  1
  P  P233  1  0.95832781  0.41789430  0.39756551  1
  P  P234  1  0.95879012  0.41723263  0.64868155  1
  P  P235  1  0.95940217  0.41649293  0.89745390  1
  P  P236  1  0.95810954  0.74789416  0.14661472  1
  P  P237  1  0.95771530  0.74916652  0.39638610  1
  P  P238  1  0.95860352  0.75005396  0.64867557  1
  P  P239  1  0.95795031  0.75039748  0.89623768  1
  P  P240  1  0.20870847  0.08386213  0.22740087  1
  P  P241  1  0.20903075  0.08347402  0.47657947  1
  P  P242  1  0.20742050  0.08248172  0.72709029  1
  P  P243  1  0.20716622  0.08384936  0.97946126  1
  P  P244  1  0.20788203  0.41479943  0.22733669  1
  P  P245  1  0.20811089  0.41501946  0.47697311  1
  P  P246  1  0.20842429  0.41511219  0.72794448  1
  P  P247  1  0.20858653  0.41649765  0.97645940  1
  P  P248  1  0.20878189  0.75085979  0.22657634  1
  P  P249  1  0.20790541  0.75250277  0.47758748  1
  P  P250  1  0.20772991  0.75122878  0.72688393  1
  P  P251  1  0.20734163  0.75019429  0.97902733  1
  P  P252  1  0.70860296  0.08229248  0.22625193  1
  P  P253  1  0.70737334  0.08341686  0.47875616  1
  P  P254  1  0.70743377  0.08453910  0.72778861  1
  P  P255  1  0.70728445  0.08204519  0.97835474  1
  P  P256  1  0.70720362  0.41633248  0.22857128  1
  P  P257  1  0.70794621  0.41735721  0.47733026  1
  P  P258  1  0.70771340  0.41639503  0.72931851  1
  P  P259  1  0.70823820  0.41581821  0.97606393  1
  P  P260  1  0.70747843  0.74969952  0.22874411  1
  P  P261  1  0.70752754  0.75119235  0.47743501  1
  P  P262  1  0.70723458  0.75053000  0.72919488  1
  P  P263  1  0.70717433  0.75141651  0.97770831  1
  P  P264  1  0.29134782  0.25061865  0.02351090  1
  P  P265  1  0.29124953  0.24982142  0.27283199  1
  P  P266  1  0.29235693  0.25142504  0.52196942  1
  P  P267  1  0.29170899  0.25138918  0.77245713  1
  P  P268  1  0.29207410  0.58417908  0.02213101  1
  P  P269  1  0.29240292  0.58410039  0.27075938  1
  P  P270  1  0.29309243  0.58360001  0.52116725  1
  P  P271  1  0.29171010  0.58202094  0.77219044  1
  P  P272  1  0.29145481  0.91728424  0.02464595  1
  P  P273  1  0.29133775  0.91743557  0.27340291  1
  P  P274  1  0.29094332  0.91754063  0.52263667  1
  P  P275  1  0.29221707  0.91712599  0.77119890  1
  P  P276  1  0.79175835  0.24853531  0.02181803  1
  P  P277  1  0.79319833  0.24868133  0.27095240  1
  P  P278  1  0.79301954  0.24864849  0.52287170  1
  P  P279  1  0.79232257  0.25059242  0.77243494  1
  P  P280  1  0.79279733  0.58260492  0.02096127  1
  P  P281  1  0.79275587  0.58141928  0.27248292  1
  P  P282  1  0.79312189  0.58323911  0.52176082  1
  P  P283  1  0.79234092  0.58227461  0.77299953  1
  P  P284  1  0.79175434  0.91760577  0.02160682  1
  P  P285  1  0.79270331  0.91524617  0.27229904  1
  P  P286  1  0.79321401  0.91621458  0.52176585  1
  P  P287  1  0.79122347  0.91737260  0.77418303  1
  O  O288  1  0.03681557  0.25151590  0.18196407  1
  O  O289  1  0.03740398  0.25117990  0.43202430  1
  O  O290  1  0.03756838  0.24950222  0.68398316  1
  O  O291  1  0.03624668  0.25051727  0.93149540  1
  O  O292  1  0.03753664  0.58225879  0.18186070  1
  O  O293  1  0.03812828  0.58374461  0.43207620  1
  O  O294  1  0.03706175  0.58199527  0.68332389  1
  O  O295  1  0.03689616  0.58248353  0.93163061  1
  O  O296  1  0.03651655  0.91567162  0.18059965  1
  O  O297  1  0.03815718  0.91724834  0.43275579  1
  O  O298  1  0.03688223  0.91723740  0.68245289  1
  O  O299  1  0.03647434  0.91521551  0.93283389  1
  O  O300  1  0.53789320  0.25014437  0.18398801  1
  O  O301  1  0.53696708  0.24872068  0.43355903  1
  O  O302  1  0.53614458  0.24934221  0.68315848  1
  O  O303  1  0.53636684  0.25058754  0.93114162  1
  O  O304  1  0.53773139  0.58372641  0.18409218  1
  O  O305  1  0.53670078  0.58316875  0.43211967  1
  O  O306  1  0.53630229  0.58215515  0.68293401  1
  O  O307  1  0.53635973  0.58381745  0.93109796  1
  O  O308  1  0.53680792  0.91666319  0.18456845  1
  O  O309  1  0.53608042  0.91594890  0.43406048  1
  O  O310  1  0.53604701  0.91671253  0.68183496  1
  O  O311  1  0.53703074  0.91718812  0.93340079  1
  O  O312  1  0.46160897  0.08494579  0.06885725  1
  O  O313  1  0.46370354  0.08422106  0.31900935  1
  O  O314  1  0.46349544  0.08442187  0.56680313  1
  O  O315  1  0.46124170  0.08432377  0.81681928  1
  O  O316  1  0.46273224  0.41783789  0.06804540  1
  O  O317  1  0.46353500  0.41868087  0.31742927  1
  O  O318  1  0.46338682  0.41706152  0.56804159  1
  O  O319  1  0.46282428  0.41658695  0.81580236  1
  O  O320  1  0.46291219  0.75049638  0.06957964  1
  O  O321  1  0.46328851  0.75152849  0.31733989  1
  O  O322  1  0.46302954  0.74952381  0.56700515  1
  O  O323  1  0.46128674  0.74894910  0.81675842  1
  O  O324  1  0.96320814  0.08210390  0.06541095  1
  O  O325  1  0.96310898  0.08251807  0.31718103  1
  O  O326  1  0.96328477  0.08366823  0.56746570  1
  O  O327  1  0.96303256  0.08288902  0.81678162  1
  O  O328  1  0.96354573  0.41503461  0.06651525  1
  O  O329  1  0.96335045  0.41715757  0.31761627  1
  O  O330  1  0.96358802  0.41755145  0.56872860  1
  O  O331  1  0.96454364  0.41671218  0.81756656  1
  O  O332  1  0.96319678  0.74854726  0.06664109  1
  O  O333  1  0.96296859  0.74847290  0.31644571  1
  O  O334  1  0.96340672  0.74971345  0.56867121  1
  O  O335  1  0.96340656  0.75036842  0.81638805  1
  O  O336  1  0.21243875  0.08428992  0.05934989  1
  O  O337  1  0.21367061  0.08346911  0.30731069  1
  O  O338  1  0.21374009  0.08336852  0.55653050  1
  O  O339  1  0.21225382  0.08295680  0.80707520  1
  O  O340  1  0.21339297  0.41620647  0.05643441  1
  O  O341  1  0.21304661  0.41470101  0.30726133  1
  O  O342  1  0.21330941  0.41486880  0.55694409  1
  O  O343  1  0.21384839  0.41570643  0.80781727  1
  O  O344  1  0.21290399  0.74994260  0.05891336  1
  O  O345  1  0.21377237  0.75138869  0.30657861  1
  O  O346  1  0.21323022  0.75251962  0.55753217  1
  O  O347  1  0.21249827  0.75082176  0.80689929  1
  O  O348  1  0.71303096  0.08241989  0.05818786  1
  O  O349  1  0.71369672  0.08226720  0.30624155  1
  O  O350  1  0.71239429  0.08419647  0.55870288  1
  O  O351  1  0.71239866  0.08374238  0.80776727  1
  O  O352  1  0.71293002  0.41553759  0.05613246  1
  O  O353  1  0.71267353  0.41693982  0.30850018  1
  O  O354  1  0.71292002  0.41690579  0.55735580  1
  O  O355  1  0.71304332  0.41620198  0.80924011  1
  O  O356  1  0.71223417  0.75099954  0.05769877  1
  O  O357  1  0.71291123  0.75003769  0.30866542  1
  O  O358  1  0.71251727  0.75073192  0.55747100  1
  O  O359  1  0.71216186  0.75094199  0.80918835  1
  O  O360  1  0.28622158  0.24920970  0.19293705  1
  O  O361  1  0.28703895  0.25123224  0.44209347  1
  O  O362  1  0.28683460  0.25135329  0.69251302  1
  O  O363  1  0.28613809  0.25100743  0.94354641  1
  O  O364  1  0.28681655  0.58454459  0.19082776  1
  O  O365  1  0.28795952  0.58368055  0.44119660  1
  O  O366  1  0.28699235  0.58206141  0.69219737  1
  O  O367  1  0.28671929  0.58356294  0.94215393  1
  O  O368  1  0.28618098  0.91733726  0.19351053  1
  O  O369  1  0.28587315  0.91739230  0.44271797  1
  O  O370  1  0.28665957  0.91710805  0.69130267  1
  O  O371  1  0.28697890  0.91730596  0.94462549  1
  O  O372  1  0.78762513  0.24817218  0.19099237  1
  O  O373  1  0.78829323  0.24905952  0.44282747  1
  O  O374  1  0.78725942  0.25011369  0.69249156  1
  O  O375  1  0.78643630  0.24935730  0.94184317  1
  O  O376  1  0.78762398  0.58174396  0.19248511  1
  O  O377  1  0.78799567  0.58276328  0.44177328  1
  O  O378  1  0.78746931  0.58268591  0.69298778  1
  O  O379  1  0.78736053  0.58222032  0.94102172  1
  O  O380  1  0.78725185  0.91614805  0.19236566  1
  O  O381  1  0.78834273  0.91555201  0.44179412  1
  O  O382  1  0.78661671  0.91739257  0.69413294  1
  O  O383  1  0.78609277  0.91733671  0.94176876  1
  O  O384  1  0.22719177  0.25002046  0.05949272  1
  O  O385  1  0.22721384  0.25018008  0.30907619  1
  O  O386  1  0.22824654  0.25160998  0.55819337  1
  O  O387  1  0.22739994  0.25197559  0.80805763  1
  O  O388  1  0.22789440  0.58440081  0.05792358  1
  O  O389  1  0.22825323  0.58382632  0.30649172  1
  O  O390  1  0.22870173  0.58346525  0.55621288  1
  O  O391  1  0.22738235  0.58175681  0.80758547  1
  O  O392  1  0.22712160  0.91692106  0.06000189  1
  O  O393  1  0.22725325  0.91757106  0.30959883  1
  O  O394  1  0.22691664  0.91788258  0.55907008  1
  O  O395  1  0.22804116  0.91709600  0.80710173  1
  O  O396  1  0.72758180  0.24790192  0.05763939  1
  O  O397  1  0.72894206  0.24934156  0.30648581  1
  O  O398  1  0.72848836  0.24825218  0.55794643  1
  O  O399  1  0.72798224  0.25101650  0.80790836  1
  O  O400  1  0.72847106  0.58296925  0.05633813  1
  O  O401  1  0.72843889  0.58113517  0.30805031  1
  O  O402  1  0.72865870  0.58347104  0.55681596  1
  O  O403  1  0.72798558  0.58194182  0.80825162  1
  O  O404  1  0.72770344  0.91832541  0.05797744  1
  O  O405  1  0.72844545  0.91445772  0.30818816  1
  O  O406  1  0.72871704  0.91677650  0.55667346  1
  O  O407  1  0.72690197  0.91770950  0.80969301  1
  O  O408  1  0.27276490  0.08425408  0.19121771  1
  O  O409  1  0.27318457  0.08333300  0.44072693  1
  O  O410  1  0.27177194  0.08198328  0.69166619  1
  O  O411  1  0.27136335  0.08430494  0.94370544  1
  O  O412  1  0.27215293  0.41520740  0.19173739  1
  O  O413  1  0.27237414  0.41496258  0.44125360  1
  O  O414  1  0.27253760  0.41461846  0.69167003  1
  O  O415  1  0.27277774  0.41660913  0.94059897  1
  O  O416  1  0.27296142  0.75094420  0.19072808  1
  O  O417  1  0.27212276  0.75244779  0.44177422  1
  O  O418  1  0.27208900  0.75170286  0.69162569  1
  O  O419  1  0.27151797  0.74990117  0.94322657  1
  O  O420  1  0.77272092  0.08197286  0.19016839  1
  O  O421  1  0.77180577  0.08265757  0.44369949  1
  O  O422  1  0.77184335  0.08504139  0.69236063  1
  O  O423  1  0.77137624  0.08172225  0.94203632  1
  O  O424  1  0.77146319  0.41565268  0.19309378  1
  O  O425  1  0.77237110  0.41785103  0.44201603  1
  O  O426  1  0.77195560  0.41614813  0.69371896  1
  O  O427  1  0.77264003  0.41582624  0.94070218  1
  O  O428  1  0.77172607  0.74996283  0.19317000  1
  O  O429  1  0.77191189  0.75117008  0.44204859  1
  O  O430  1  0.77172163  0.75031339  0.69420256  1
  O  O431  1  0.77150016  0.75123437  0.94240053  1
  O  O432  1  0.02201795  0.08333759  0.18095108  1
  O  O433  1  0.02269692  0.08190782  0.43253538  1
  O  O434  1  0.02211706  0.08461731  0.68324259  1
  O  O435  1  0.02211118  0.08214026  0.93242865  1
  O  O436  1  0.02229401  0.41491058  0.18254822  1
  O  O437  1  0.02264735  0.41823498  0.43323778  1
  O  O438  1  0.02299968  0.41757669  0.68449451  1
  O  O439  1  0.02345476  0.41641313  0.93385093  1
  O  O440  1  0.02247793  0.74760793  0.18225783  1
  O  O441  1  0.02198198  0.74961589  0.43186362  1
  O  O442  1  0.02283610  0.75055928  0.68433294  1
  O  O443  1  0.02201671  0.75078735  0.93255690  1
  O  O444  1  0.52162012  0.08537211  0.18393384  1
  O  O445  1  0.52288261  0.08409603  0.43493218  1
  O  O446  1  0.52164349  0.08534430  0.68326512  1
  O  O447  1  0.52057154  0.08392746  0.93198864  1
  O  O448  1  0.52193727  0.41859741  0.18356849  1
  O  O449  1  0.52230905  0.41846377  0.43337593  1
  O  O450  1  0.52262482  0.41736761  0.68403977  1
  O  O451  1  0.52194173  0.41687172  0.93135722  1
  O  O452  1  0.52269076  0.75135247  0.18520421  1
  O  O453  1  0.52181516  0.75150581  0.43353262  1
  O  O454  1  0.52154031  0.74823877  0.68309646  1
  O  O455  1  0.52085403  0.75019689  0.93175651  1
  O  O456  1  0.47805154  0.25093611  0.06913642  1
  O  O457  1  0.47800451  0.24915315  0.31780158  1
  O  O458  1  0.47786207  0.24934582  0.56691211  1
  O  O459  1  0.47666513  0.24931103  0.81550693  1
  O  O460  1  0.47830641  0.58355143  0.06877874  1
  O  O461  1  0.47727834  0.58329160  0.31618070  1
  O  O462  1  0.47800143  0.58167031  0.56670765  1
  O  O463  1  0.47698062  0.58346204  0.81519401  1
  O  O464  1  0.47733254  0.91689371  0.06937900  1
  O  O465  1  0.47748058  0.91608995  0.31793725  1
  O  O466  1  0.47664021  0.91593093  0.56604097  1
  O  O467  1  0.47797419  0.91685459  0.81823207  1
  O  O468  1  0.97804254  0.25132360  0.06600387  1
  O  O469  1  0.97800570  0.25166419  0.31650545  1
  O  O470  1  0.97883504  0.24980343  0.56824561  1
  O  O471  1  0.97720378  0.24932773  0.81542164  1
  O  O472  1  0.97845934  0.58106357  0.06611082  1
  O  O473  1  0.97881613  0.58458491  0.31640591  1
  O  O474  1  0.97837916  0.58142707  0.56720943  1
  O  O475  1  0.97763441  0.58220946  0.81568134  1
  O  O476  1  0.97693158  0.91536638  0.06479102  1
  O  O477  1  0.97894263  0.91588622  0.31760073  1
  O  O478  1  0.97785633  0.91816097  0.56671562  1
  O  O479  1  0.97782413  0.91487581  0.81680890  1
  O  O480  1  0.07330853  0.31444898  0.07309409  1
  O  O481  1  0.07304539  0.31499830  0.32363914  1
  O  O482  1  0.07389644  0.31369427  0.57613405  1
  O  O483  1  0.07174613  0.31370984  0.82294675  1
  O  O484  1  0.07375998  0.64506363  0.07365925  1
  O  O485  1  0.07385344  0.64777940  0.32345646  1
  O  O486  1  0.07359947  0.64550893  0.57549176  1
  O  O487  1  0.07173943  0.64691399  0.82335073  1
  O  O488  1  0.07149028  0.97969860  0.07255728  1
  O  O489  1  0.07420629  0.97997325  0.32396064  1
  O  O490  1  0.07272225  0.98151563  0.57420286  1
  O  O491  1  0.07322224  0.97861556  0.82500167  1
  O  O492  1  0.57372678  0.31387609  0.07563627  1
  O  O493  1  0.57351595  0.31247539  0.32614288  1
  O  O494  1  0.57330506  0.31272914  0.57545457  1
  O  O495  1  0.57117342  0.31375704  0.82232910  1
  O  O496  1  0.57351637  0.64741219  0.07561600  1
  O  O497  1  0.57159214  0.64772114  0.32423083  1
  O  O498  1  0.57337260  0.64528766  0.57495829  1
  O  O499  1  0.57189504  0.64719002  0.82279396  1
  O  O500  1  0.57238258  0.98086421  0.07654615  1
  O  O501  1  0.57305220  0.97935408  0.32632882  1
  O  O502  1  0.57108075  0.98037997  0.57354873  1
  O  O503  1  0.57339944  0.98035630  0.82511488  1
  O  O504  1  0.42617624  0.02174669  0.17706407  1
  O  O505  1  0.42837570  0.01999958  0.42707800  1
  O  O506  1  0.42680578  0.02081340  0.67446977  1
  O  O507  1  0.42509056  0.02071477  0.92526147  1
  O  O508  1  0.42659188  0.35487653  0.17625880  1
  O  O509  1  0.42711762  0.35482467  0.42491498  1
  O  O510  1  0.42842696  0.35272447  0.67617270  1
  O  O511  1  0.42644024  0.35360386  0.92456329  1
  O  O512  1  0.42847704  0.68659581  0.17799632  1
  O  O513  1  0.42659521  0.68768707  0.42482794  1
  O  O514  1  0.42647089  0.68525368  0.67487461  1
  O  O515  1  0.42560285  0.68616529  0.92569495  1
  O  O516  1  0.92677303  0.01924564  0.17380535  1
  O  O517  1  0.92768840  0.01853655  0.42572922  1
  O  O518  1  0.92657770  0.02087947  0.67546103  1
  O  O519  1  0.92756598  0.01827443  0.92496997  1
  O  O520  1  0.92733612  0.35143668  0.17533768  1
  O  O521  1  0.92707709  0.35457194  0.42599710  1
  O  O522  1  0.92875889  0.35293483  0.67687325  1
  O  O523  1  0.92833192  0.35283174  0.92551122  1
  O  O524  1  0.92764570  0.68409252  0.17496001  1
  O  O525  1  0.92650608  0.68608612  0.42530074  1
  O  O526  1  0.92842508  0.68602299  0.67711646  1
  O  O527  1  0.92695866  0.68665452  0.92409698  1
  O  O528  1  0.17817799  0.02000708  0.19862731  1
  O  O529  1  0.17772932  0.02025368  0.44807755  1
  O  O530  1  0.17641676  0.01915027  0.69858490  1
  O  O531  1  0.17638138  0.02015137  0.95120672  1
  O  O532  1  0.17723857  0.35139909  0.19834752  1
  O  O533  1  0.17700540  0.35183010  0.44820389  1
  O  O534  1  0.17724947  0.35177409  0.69948230  1
  O  O535  1  0.17758437  0.35304164  0.94796153  1
  O  O536  1  0.17820166  0.68698542  0.19840362  1
  O  O537  1  0.17685058  0.68868604  0.44988360  1
  O  O538  1  0.17696064  0.68744140  0.69893412  1
  O  O539  1  0.17578462  0.68707107  0.95032757  1
  O  O540  1  0.67748056  0.01863431  0.19853721  1
  O  O541  1  0.67619253  0.01983725  0.45080908  1
  O  O542  1  0.67636037  0.02109878  0.69937762  1
  O  O543  1  0.67613682  0.01876565  0.94969613  1
  O  O544  1  0.67581028  0.35278237  0.20085785  1
  O  O545  1  0.67722306  0.35350554  0.44952054  1
  O  O546  1  0.67626305  0.35325984  0.70060131  1
  O  O547  1  0.67743172  0.35211837  0.94790782  1
  O  O548  1  0.67687168  0.68582565  0.20074538  1
  O  O549  1  0.67632994  0.68760099  0.44958677  1
  O  O550  1  0.67640788  0.68687336  0.70093836  1
  O  O551  1  0.67571435  0.68799845  0.94987278  1
  O  O552  1  0.32194880  0.31443397  0.05191837  1
  O  O553  1  0.32263101  0.31332062  0.30076528  1
  O  O554  1  0.32347782  0.31467017  0.55078791  1
  O  O555  1  0.32305956  0.31437180  0.80136748  1
  O  O556  1  0.32282133  0.64783344  0.05059744  1
  O  O557  1  0.32372130  0.64728491  0.29919302  1
  O  O558  1  0.32402673  0.64713741  0.54933512  1
  O  O559  1  0.32257356  0.64582497  0.79986107  1
  O  O560  1  0.32177821  0.98117457  0.05310504  1
  O  O561  1  0.32245585  0.98098828  0.30178108  1
  O  O562  1  0.32209129  0.98108321  0.55093458  1
  O  O563  1  0.32343121  0.98048628  0.79976424  1
  O  O564  1  0.82294975  0.31195524  0.04994299  1
  O  O565  1  0.82450684  0.31214309  0.29897422  1
  O  O566  1  0.82379312  0.31247247  0.55079903  1
  O  O567  1  0.82314981  0.31411994  0.80104945  1
  O  O568  1  0.82384120  0.64627892  0.04887534  1
  O  O569  1  0.82367659  0.64515884  0.30026278  1
  O  O570  1  0.82401138  0.64696845  0.54987134  1
  O  O571  1  0.82334312  0.64590161  0.80083493  1
  O  O572  1  0.82312774  0.98075716  0.05026580  1
  O  O573  1  0.82360569  0.97884810  0.30055180  1
  O  O574  1  0.82422357  0.97978400  0.54998914  1
  O  O575  1  0.82221615  0.98099353  0.80216922  1
  O  O576  1  0.42661548  0.14890014  0.17747700  1
  O  O577  1  0.42749081  0.14736223  0.42724218  1
  O  O578  1  0.42622917  0.14782613  0.67510758  1
  O  O579  1  0.42515393  0.14757986  0.92523021  1
  O  O580  1  0.42683191  0.48202113  0.17604995  1
  O  O581  1  0.42726176  0.48197509  0.42599731  1
  O  O582  1  0.42700046  0.48002473  0.67641296  1
  O  O583  1  0.42661071  0.48032440  0.92404641  1
  O  O584  1  0.42718513  0.81412464  0.17761666  1
  O  O585  1  0.42668965  0.81463982  0.42619415  1
  O  O586  1  0.42641600  0.81246611  0.67492242  1
  O  O587  1  0.42520192  0.81303061  0.92493026  1
  O  O588  1  0.92651897  0.14613313  0.17311815  1
  O  O589  1  0.92732518  0.14579366  0.42509837  1
  O  O590  1  0.92714236  0.14785607  0.67579665  1
  O  O591  1  0.92642723  0.14546086  0.92477029  1
  O  O592  1  0.92683554  0.47830074  0.17449780  1
  O  O593  1  0.92792439  0.48167401  0.42593821  1
  O  O594  1  0.92722226  0.48013811  0.67737698  1
  O  O595  1  0.92864050  0.48005663  0.92615819  1
  O  O596  1  0.92696545  0.81131919  0.17478913  1
  O  O597  1  0.92659874  0.81278832  0.42421382  1
  O  O598  1  0.92735928  0.81358267  0.67642808  1
  O  O599  1  0.92678694  0.81358650  0.92511327  1
  O  O600  1  0.07314049  0.18751158  0.07451945  1
  O  O601  1  0.07313270  0.18768442  0.32418518  1
  O  O602  1  0.07457750  0.18703334  0.57515171  1
  O  O603  1  0.07239636  0.18621101  0.82394499  1
  O  O604  1  0.07345184  0.51799494  0.07366737  1
  O  O605  1  0.07416706  0.52072395  0.32389282  1
  O  O606  1  0.07345215  0.51851970  0.57445611  1
  O  O607  1  0.07334893  0.51953880  0.82352960  1
  O  O608  1  0.07209236  0.85202266  0.07277004  1
  O  O609  1  0.07455729  0.85322201  0.32471586  1
  O  O610  1  0.07320321  0.85429343  0.57450430  1
  O  O611  1  0.07294632  0.85175418  0.82407095  1
  O  O612  1  0.57330910  0.18706449  0.07502354  1
  O  O613  1  0.57288292  0.18531864  0.32479541  1
  O  O614  1  0.57282274  0.18583578  0.57466347  1
  O  O615  1  0.57202571  0.18628249  0.82355433  1
  O  O616  1  0.57398332  0.52070877  0.07513910  1
  O  O617  1  0.57266983  0.52027080  0.32358088  1
  O  O618  1  0.57301089  0.51837697  0.57448773  1
  O  O619  1  0.57197087  0.51968344  0.82343566  1
  O  O620  1  0.57311530  0.85389653  0.07596991  1
  O  O621  1  0.57240325  0.85250156  0.32533517  1
  O  O622  1  0.57202119  0.85278644  0.57417203  1
  O  O623  1  0.57337261  0.85350448  0.82539172  1
  O  O624  1  0.32256636  0.18721443  0.05168671  1
  O  O625  1  0.32174914  0.18622840  0.30208941  1
  O  O626  1  0.32325492  0.18770948  0.55008234  1
  O  O627  1  0.32200380  0.18730572  0.80037411  1
  O  O628  1  0.32337980  0.52073457  0.05003497  1
  O  O629  1  0.32344148  0.52035666  0.29832759  1
  O  O630  1  0.32413594  0.52012288  0.54921943  1
  O  O631  1  0.32246975  0.51858051  0.80086015  1
  O  O632  1  0.32254204  0.85378633  0.05280447  1
  O  O633  1  0.32215580  0.85385837  0.30195759  1
  O  O634  1  0.32154110  0.85384765  0.55129349  1
  O  O635  1  0.32345721  0.85378581  0.79968327  1
  O  O636  1  0.82257367  0.18478329  0.04972193  1
  O  O637  1  0.82424787  0.18532127  0.29930147  1
  O  O638  1  0.82362766  0.18518527  0.55149508  1
  O  O639  1  0.82337071  0.18716940  0.80067561  1
  O  O640  1  0.82391058  0.51927008  0.04930618  1
  O  O641  1  0.82358239  0.51792465  0.30077504  1
  O  O642  1  0.82429627  0.52008939  0.55044011  1
  O  O643  1  0.82308083  0.51864893  0.80120368  1
  O  O644  1  0.82263226  0.85389165  0.04969372  1
  O  O645  1  0.82362649  0.85163301  0.30027542  1
  O  O646  1  0.82425955  0.85306178  0.55068581  1
  O  O647  1  0.82145356  0.85336675  0.80235824  1
  O  O648  1  0.17739412  0.14718785  0.19908896  1
  O  O649  1  0.17869773  0.14746485  0.44816875  1
  O  O650  1  0.17690181  0.14631761  0.69901656  1
  O  O651  1  0.17563892  0.14688321  0.95059823  1
  O  O652  1  0.17667600  0.47841685  0.19958971  1
  O  O653  1  0.17731320  0.47896069  0.44937038  1
  O  O654  1  0.17751193  0.47867377  0.69942362  1
  O  O655  1  0.17810876  0.48040341  0.94820688  1
  O  O656  1  0.17771395  0.81437411  0.19829738  1
  O  O657  1  0.17699381  0.81579903  0.44887694  1
  O  O658  1  0.17689381  0.81470028  0.69847498  1
  O  O659  1  0.17643814  0.81376653  0.95074886  1
  O  O660  1  0.67818775  0.14624877  0.19823875  1
  O  O661  1  0.67651009  0.14661597  0.44973063  1
  O  O662  1  0.67696324  0.14830005  0.69953266  1
  O  O663  1  0.67613535  0.14555558  0.95009312  1
  O  O664  1  0.67622343  0.47955209  0.19975633  1
  O  O665  1  0.67712812  0.48087962  0.44913304  1
  O  O666  1  0.67668969  0.47986199  0.70096813  1
  O  O667  1  0.67772152  0.47974462  0.94816600  1
  O  O668  1  0.67582845  0.81273751  0.20049889  1
  O  O669  1  0.67710009  0.81484597  0.44904392  1
  O  O670  1  0.67610242  0.81379928  0.70066949  1
  O  O671  1  0.67677923  0.81523207  0.94949953  1
