# generated using pymatgen
data_Na2MnFe(PO4)2
_symmetry_space_group_name_H-M   'P 1'
_cell_length_a   22.34648427
_cell_length_b   20.09657542
_cell_length_c   19.44529089
_cell_angle_alpha   89.96141635
_cell_angle_beta   89.98491528
_cell_angle_gamma   89.96952634
_symmetry_Int_Tables_number   1
_chemical_formula_structural   Na2MnFe(PO4)2
_chemical_formula_sum   'Na96 Mn48 Fe48 P96 O384'
_cell_volume   8732.63951522
_cell_formula_units_Z   48
loop_
 _symmetry_equiv_pos_site_id
 _symmetry_equiv_pos_as_xyz
  1  'x, y, z'
loop_
 _atom_site_type_symbol
 _atom_site_label
 _atom_site_symmetry_multiplicity
 _atom_site_fract_x
 _atom_site_fract_y
 _atom_site_fract_z
 _atom_site_occupancy
  Na  Na0  1  0.14024259  0.25040313  0.24393428  1
  Na  Na1  1  0.13970583  0.24921693  0.49463950  1
  Na  Na2  1  0.14012474  0.24865729  0.74245378  1
  Na  Na3  1  0.14044475  0.25086495  0.99284672  1
  Na  Na4  1  0.14041265  0.58465993  0.24224801  1
  Na  Na5  1  0.14031272  0.58295264  0.49454573  1
  Na  Na6  1  0.13998005  0.58316869  0.74447962  1
  Na  Na7  1  0.14002603  0.58444486  0.99263878  1
  Na  Na8  1  0.14106903  0.91647624  0.24363089  1
  Na  Na9  1  0.14060997  0.91535781  0.49528647  1
  Na  Na10  1  0.14036253  0.91655582  0.74293428  1
  Na  Na11  1  0.14080982  0.91644324  0.99236093  1
  Na  Na12  1  0.63997935  0.25109615  0.24398557  1
  Na  Na13  1  0.63971374  0.24998168  0.49473132  1
  Na  Na14  1  0.64049669  0.25008380  0.74299897  1
  Na  Na15  1  0.64064450  0.25032884  0.99341695  1
  Na  Na16  1  0.64020950  0.58454105  0.24442883  1
  Na  Na17  1  0.64039913  0.58344974  0.49505863  1
  Na  Na18  1  0.64038181  0.58273433  0.74277745  1
  Na  Na19  1  0.64044841  0.58360956  0.99425524  1
  Na  Na20  1  0.64098860  0.91707434  0.24380387  1
  Na  Na21  1  0.64094400  0.91598223  0.49446791  1
  Na  Na22  1  0.64069786  0.91650786  0.74339337  1
  Na  Na23  1  0.64052620  0.91822654  0.99356066  1
  Na  Na24  1  0.35957933  0.08279930  0.00551054  1
  Na  Na25  1  0.36001034  0.08396910  0.25613440  1
  Na  Na26  1  0.35922814  0.08239646  0.50750497  1
  Na  Na27  1  0.35975615  0.08153199  0.75589445  1
  Na  Na28  1  0.35940620  0.41757246  0.00571325  1
  Na  Na29  1  0.35887232  0.41823729  0.25583028  1
  Na  Na30  1  0.35926945  0.41522752  0.50707546  1
  Na  Na31  1  0.35953575  0.41510626  0.75662893  1
  Na  Na32  1  0.35897986  0.74932449  0.00589965  1
  Na  Na33  1  0.35943552  0.75088989  0.25638450  1
  Na  Na34  1  0.35992441  0.74980803  0.50631304  1
  Na  Na35  1  0.35955244  0.74894181  0.75652467  1
  Na  Na36  1  0.86031445  0.08394855  0.00516577  1
  Na  Na37  1  0.85990376  0.08476382  0.25533883  1
  Na  Na38  1  0.85963995  0.08423913  0.50774784  1
  Na  Na39  1  0.85968498  0.08344121  0.75702226  1
  Na  Na40  1  0.85943094  0.41701328  0.00606240  1
  Na  Na41  1  0.85965465  0.41839032  0.25612172  1
  Na  Na42  1  0.85956814  0.41620718  0.50814417  1
  Na  Na43  1  0.85965523  0.41585810  0.75652685  1
  Na  Na44  1  0.85965036  0.74957796  0.00522365  1
  Na  Na45  1  0.86002583  0.74960284  0.25500475  1
  Na  Na46  1  0.85971202  0.74927564  0.50691657  1
  Na  Na47  1  0.85994270  0.74908666  0.75688857  1
  Na  Na48  1  0.10981554  0.08417364  0.11878038  1
  Na  Na49  1  0.10991814  0.08294672  0.36961332  1
  Na  Na50  1  0.11004739  0.08338025  0.61885243  1
  Na  Na51  1  0.10962514  0.08306091  0.86675877  1
  Na  Na52  1  0.10928530  0.41893851  0.11848838  1
  Na  Na53  1  0.10916180  0.41536262  0.36911039  1
  Na  Na54  1  0.10970073  0.41619154  0.62011838  1
  Na  Na55  1  0.10916881  0.41733407  0.86775727  1
  Na  Na56  1  0.11044385  0.75004842  0.11673892  1
  Na  Na57  1  0.10989961  0.74852137  0.36806077  1
  Na  Na58  1  0.10989639  0.74984649  0.61995584  1
  Na  Na59  1  0.10979036  0.74944739  0.86744308  1
  Na  Na60  1  0.60961598  0.08546793  0.11839804  1
  Na  Na61  1  0.60993709  0.08411314  0.37014126  1
  Na  Na62  1  0.61001250  0.08282546  0.61822171  1
  Na  Na63  1  0.60989681  0.08422962  0.86815549  1
  Na  Na64  1  0.60963964  0.41740153  0.11880079  1
  Na  Na65  1  0.60919139  0.41647813  0.36991843  1
  Na  Na66  1  0.60963963  0.41543974  0.61814761  1
  Na  Na67  1  0.60970383  0.41644955  0.86816604  1
  Na  Na68  1  0.60977380  0.75033467  0.11893465  1
  Na  Na69  1  0.61014318  0.74968507  0.36971145  1
  Na  Na70  1  0.60960750  0.74890997  0.61875053  1
  Na  Na71  1  0.60972608  0.75097835  0.86837049  1
  Na  Na72  1  0.39037937  0.25058318  0.13001280  1
  Na  Na73  1  0.39047589  0.24946719  0.38166917  1
  Na  Na74  1  0.38954357  0.24825845  0.63165787  1
  Na  Na75  1  0.39007191  0.24923906  0.88050882  1
  Na  Na76  1  0.38946290  0.58392168  0.13149956  1
  Na  Na77  1  0.38989435  0.58444315  0.38112274  1
  Na  Na78  1  0.39052109  0.58259876  0.63166619  1
  Na  Na79  1  0.39002064  0.58311438  0.88178108  1
  Na  Na80  1  0.39050307  0.91736891  0.13107193  1
  Na  Na81  1  0.39054380  0.91705939  0.38229342  1
  Na  Na82  1  0.39030266  0.91479363  0.63173256  1
  Na  Na83  1  0.39015801  0.91657509  0.88064617  1
  Na  Na84  1  0.89047745  0.25062527  0.13047054  1
  Na  Na85  1  0.89042800  0.24973131  0.38118861  1
  Na  Na86  1  0.89015581  0.25044203  0.63347629  1
  Na  Na87  1  0.88986515  0.25020685  0.88109492  1
  Na  Na88  1  0.88973664  0.58379468  0.13082704  1
  Na  Na89  1  0.89007902  0.58237974  0.38121441  1
  Na  Na90  1  0.89049618  0.58305197  0.63284244  1
  Na  Na91  1  0.89026715  0.58345189  0.88092167  1
  Na  Na92  1  0.89124478  0.91824433  0.12969636  1
  Na  Na93  1  0.89077847  0.91682322  0.38075323  1
  Na  Na94  1  0.89072092  0.91679796  0.63313981  1
  Na  Na95  1  0.89063596  0.91592299  0.88025351  1
  Mn  Mn96  1  0.75018342  0.33409818  0.37557417  1
  Mn  Mn97  1  0.00016594  0.66598722  0.50001032  1
  Mn  Mn98  1  0.25048220  0.66661136  0.62552531  1
  Mn  Mn99  1  -0.00039968  0.66563790  0.24906755  1
  Mn  Mn100  1  0.50000244  0.16605155  0.75000815  1
  Mn  Mn101  1  0.75041525  0.83273371  0.62448995  1
  Mn  Mn102  1  0.74951554  0.50120661  0.37634331  1
  Mn  Mn103  1  0.75008124  0.33389889  0.12492286  1
  Mn  Mn104  1  0.25057442  0.49901899  0.62490270  1
  Mn  Mn105  1  0.24987767  -0.00058900  0.87441474  1
  Mn  Mn106  1  0.24977841  0.33328451  0.37504795  1
  Mn  Mn107  1  0.24922677  0.50105335  0.37552167  1
  Mn  Mn108  1  0.49965784  0.49941961  0.74963724  1
  Mn  Mn109  1  -0.00025113  0.33341871  0.24972162  1
  Mn  Mn110  1  0.49994460  0.66694913  0.00021708  1
  Mn  Mn111  1  0.25005156  0.16681382  0.12511644  1
  Mn  Mn112  1  0.49994512  0.83290206  0.75048004  1
  Mn  Mn113  1  0.49952552  0.49974949  0.50015884  1
  Mn  Mn114  1  0.24990614  0.83328829  0.37491679  1
  Mn  Mn115  1  0.00103080  0.16663220  -0.00067646  1
  Mn  Mn116  1  0.75017559  0.49920061  0.87458600  1
  Mn  Mn117  1  -0.00022021  0.83277120  0.50053629  1
  Mn  Mn118  1  0.00065521  0.83357431  -0.00111090  1
  Mn  Mn119  1  0.24950814  -0.00057065  0.12438413  1
  Mn  Mn120  1  0.25025595  0.16556840  0.37512550  1
  Mn  Mn121  1  0.49998284  0.16718387  -0.00100176  1
  Mn  Mn122  1  0.25003054  0.33466850  0.12384907  1
  Mn  Mn123  1  0.75001587  0.00038344  0.87470673  1
  Mn  Mn124  1  0.50023019  -0.00048873  0.49983227  1
  Mn  Mn125  1  0.74987758  0.16753517  0.37587001  1
  Mn  Mn126  1  0.50026677  0.49985875  -0.00019987  1
  Mn  Mn127  1  -0.00082042  0.16740424  0.50072304  1
  Mn  Mn128  1  0.50098945  0.83347346  0.25052892  1
  Mn  Mn129  1  0.75016896  0.00070204  0.37485142  1
  Mn  Mn130  1  0.49937304  0.50060665  0.25017838  1
  Mn  Mn131  1  0.75104648  0.83249925  0.37459282  1
  Mn  Mn132  1  0.49933913  0.33291576  0.25001277  1
  Mn  Mn133  1  0.49982879  0.83463776  -0.00033541  1
  Mn  Mn134  1  0.00064201  0.83350917  0.24858310  1
  Mn  Mn135  1  0.00036948  0.33465542  0.00045041  1
  Mn  Mn136  1  0.50053325  0.00151537  0.25142584  1
  Mn  Mn137  1  0.75074319  0.83340584  0.12489895  1
  Mn  Mn138  1  0.00065082  0.00112298  0.25041028  1
  Mn  Mn139  1  0.00010755  0.00005836  0.50035941  1
  Mn  Mn140  1  0.24970678  0.33286636  0.87504070  1
  Mn  Mn141  1  0.75063483  0.00156080  0.12375558  1
  Mn  Mn142  1  0.00020302  0.49876161  0.50127238  1
  Mn  Mn143  1  0.75001787  0.66670105  0.87487172  1
  Fe  Fe144  1  0.00045772  0.00027799  -0.00100765  1
  Fe  Fe145  1  0.74968184  0.16698140  0.87432328  1
  Fe  Fe146  1  0.00002976  0.49991912  0.24978634  1
  Fe  Fe147  1  0.25060293  0.83318150  0.12467747  1
  Fe  Fe148  1  0.49993036  0.66738204  0.25096388  1
  Fe  Fe149  1  0.24926106  0.50138031  0.12493875  1
  Fe  Fe150  1  0.24990225  0.16604684  0.87400445  1
  Fe  Fe151  1  -0.00021176  0.33378711  0.75080496  1
  Fe  Fe152  1  0.24970560  0.50010218  0.87529435  1
  Fe  Fe153  1  0.50020425  0.16736807  0.24963372  1
  Fe  Fe154  1  0.24968627  0.16533360  0.62444844  1
  Fe  Fe155  1  0.24971536  0.66719461  0.12406438  1
  Fe  Fe156  1  0.50018616  0.00093892  0.00042778  1
  Fe  Fe157  1  -0.00003155  0.83279873  0.75065945  1
  Fe  Fe158  1  0.00035088  -0.00008192  0.74990105  1
  Fe  Fe159  1  0.74958811  0.66699284  0.12494843  1
  Fe  Fe160  1  0.24955156  0.33217330  0.62592700  1
  Fe  Fe161  1  0.75016411  0.66624799  0.62553323  1
  Fe  Fe162  1  0.74967997  0.50058019  0.12559470  1
  Fe  Fe163  1  0.74953886  0.33288861  0.87526508  1
  Fe  Fe164  1  0.24989258  0.66738684  0.37429988  1
  Fe  Fe165  1  -0.00011000  0.50008859  0.75014022  1
  Fe  Fe166  1  0.00005770  0.66637837  0.75029661  1
  Fe  Fe167  1  0.74982692  0.33298437  0.62595262  1
  Fe  Fe168  1  -0.00010226  0.16692679  0.75029373  1
  Fe  Fe169  1  0.74996217  0.49961329  0.62534208  1
  Fe  Fe170  1  0.50051578  -0.00066563  0.74927440  1
  Fe  Fe171  1  0.50042678  0.83262545  0.50080392  1
  Fe  Fe172  1  0.75038261  0.16769271  0.12461801  1
  Fe  Fe173  1  0.74998958  0.16685795  0.62568436  1
  Fe  Fe174  1  0.49971285  0.33268689  0.74936152  1
  Fe  Fe175  1  0.74990817  0.83319636  0.87448249  1
  Fe  Fe176  1  0.49985747  0.66642667  0.74993248  1
  Fe  Fe177  1  -0.00035936  0.66639570  -0.00113360  1
  Fe  Fe178  1  0.75052886  0.66629162  0.37550498  1
  Fe  Fe179  1  0.25010162  0.83272765  0.87453778  1
  Fe  Fe180  1  0.25036629  -0.00124032  0.62554872  1
  Fe  Fe181  1  0.50017451  0.66654615  0.50034393  1
  Fe  Fe182  1  -0.00069010  0.50084887  -0.00115794  1
  Fe  Fe183  1  0.00009305  0.16702458  0.24996957  1
  Fe  Fe184  1  0.49914856  0.33238031  0.49960419  1
  Fe  Fe185  1  0.24981160  0.66637400  0.87528670  1
  Fe  Fe186  1  0.24960529  0.83249532  0.62489103  1
  Fe  Fe187  1  0.75077358  -0.00017106  0.62548224  1
  Fe  Fe188  1  0.49983292  0.33363248  -0.00011346  1
  Fe  Fe189  1  0.49943876  0.16630696  0.50045654  1
  Fe  Fe190  1  0.25026364  -0.00071899  0.37566078  1
  Fe  Fe191  1  -0.00041212  0.33313875  0.50076491  1
  P  P192  1  0.04323118  0.25037734  0.10316546  1
  P  P193  1  0.04225541  0.24898559  0.35283941  1
  P  P194  1  0.04139192  0.25150824  0.60413217  1
  P  P195  1  0.04158146  0.25040987  0.85153366  1
  P  P196  1  0.04102658  0.58329180  0.10081705  1
  P  P197  1  0.04243244  0.58133510  0.35224373  1
  P  P198  1  0.04272724  0.58310812  0.60457018  1
  P  P199  1  0.04084875  0.58332332  0.85207029  1
  P  P200  1  0.04298274  0.91845087  0.10142193  1
  P  P201  1  0.04334475  0.91622674  0.35297585  1
  P  P202  1  0.04222224  0.91647368  0.60454588  1
  P  P203  1  0.04157410  0.91675891  0.85145316  1
  P  P204  1  0.54240647  0.25126786  0.10215317  1
  P  P205  1  0.54191430  0.24868409  0.35338322  1
  P  P206  1  0.54054661  0.24977613  0.60196986  1
  P  P207  1  0.54199154  0.25135111  0.85220733  1
  P  P208  1  0.54262466  0.58374969  0.10371278  1
  P  P209  1  0.54170104  0.58503995  0.35339289  1
  P  P210  1  0.54170051  0.58409887  0.60296161  1
  P  P211  1  0.54239458  0.58413198  0.85203384  1
  P  P212  1  0.54265900  0.91869877  0.10268768  1
  P  P213  1  0.54338164  0.91654993  0.35417267  1
  P  P214  1  0.54234387  0.91512838  0.60302362  1
  P  P215  1  0.54245972  0.91850308  0.85264473  1
  P  P216  1  0.45799891  0.08485732  0.14722687  1
  P  P217  1  0.45763034  0.08501593  0.39767264  1
  P  P218  1  0.45811095  0.08164610  0.64714517  1
  P  P219  1  0.45785216  0.08171698  0.89686793  1
  P  P220  1  0.45687594  0.41668135  0.14651436  1
  P  P221  1  0.45712621  0.41545583  0.39771435  1
  P  P222  1  0.45742882  0.41451299  0.64692352  1
  P  P223  1  0.45776170  0.41506346  0.89681014  1
  P  P224  1  0.45789195  0.74952065  0.14813532  1
  P  P225  1  0.45880799  0.74994146  0.39867263  1
  P  P226  1  0.45788374  0.74836749  0.64717616  1
  P  P227  1  0.45722316  0.75009901  0.89655477  1
  P  P228  1  0.95817293  0.08493476  0.14692885  1
  P  P229  1  0.95697539  0.08395457  0.39703828  1
  P  P230  1  0.95867348  0.08352815  0.64898493  1
  P  P231  1  0.95855390  0.08214701  0.89606671  1
  P  P232  1  0.95768102  0.41876386  0.14701007  1
  P  P233  1  0.95735329  0.41509586  0.39802653  1
  P  P234  1  0.95853595  0.41627721  0.64890736  1
  P  P235  1  0.95781685  0.41802339  0.89660190  1
  P  P236  1  0.95781439  0.74975426  0.14519304  1
  P  P237  1  0.95711124  0.74935158  0.39663038  1
  P  P238  1  0.95861891  0.74958109  0.64899282  1
  P  P239  1  0.95824069  0.74868467  0.89624621  1
  P  P240  1  0.20741637  0.08264007  0.22860318  1
  P  P241  1  0.20802339  0.08103313  0.47870276  1
  P  P242  1  0.20894083  0.08248550  0.72659063  1
  P  P243  1  0.20749737  0.08432228  0.97656691  1
  P  P244  1  0.20732724  0.41880183  0.22698720  1
  P  P245  1  0.20704362  0.41591515  0.47886278  1
  P  P246  1  0.20812918  0.41532204  0.72817068  1
  P  P247  1  0.20739785  0.41860884  0.97749491  1
  P  P248  1  0.20841573  0.75031769  0.22614088  1
  P  P249  1  0.20765633  0.74886210  0.47754215  1
  P  P250  1  0.20814419  0.75091729  0.72836813  1
  P  P251  1  0.20861003  0.74992951  0.97664059  1
  P  P252  1  0.70766470  0.08540118  0.22699137  1
  P  P253  1  0.70775009  0.08352965  0.47972693  1
  P  P254  1  0.70876418  0.08367730  0.72684423  1
  P  P255  1  0.70805244  0.08551565  0.97717910  1
  P  P256  1  0.70741089  0.41857622  0.22781283  1
  P  P257  1  0.70723417  0.41687040  0.47983568  1
  P  P258  1  0.70850283  0.41619167  0.72705290  1
  P  P259  1  0.70766410  0.41559833  0.97766486  1
  P  P260  1  0.70803081  0.74877462  0.22779412  1
  P  P261  1  0.70843564  0.74821481  0.47804140  1
  P  P262  1  0.70791512  0.74899621  0.72755570  1
  P  P263  1  0.70764386  0.75121345  0.97749991  1
  P  P264  1  0.29263732  0.24989224  0.02086088  1
  P  P265  1  0.29288295  0.25027897  0.27188345  1
  P  P266  1  0.29094182  0.24940793  0.52374176  1
  P  P267  1  0.29149635  0.24804546  0.77142690  1
  P  P268  1  0.29103371  0.58348654  0.02246532  1
  P  P269  1  0.29153284  0.58538199  0.27166095  1
  P  P270  1  0.29299625  0.58352225  0.52183281  1
  P  P271  1  0.29142477  0.58281832  0.77378911  1
  P  P272  1  0.29225359  0.91483728  0.02172824  1
  P  P273  1  0.29271903  0.91760718  0.27252045  1
  P  P274  1  0.29164610  0.91596036  0.52356262  1
  P  P275  1  0.29190410  0.91485931  0.77164326  1
  P  P276  1  0.79231897  0.24935379  0.02144754  1
  P  P277  1  0.79268906  0.25071672  0.27170200  1
  P  P278  1  0.79152101  0.25011019  0.52450490  1
  P  P279  1  0.79093391  0.25017227  0.77280688  1
  P  P280  1  0.79100932  0.58324692  0.02342973  1
  P  P281  1  0.79194338  0.58473480  0.27214468  1
  P  P282  1  0.79193093  0.58332087  0.52404314  1
  P  P283  1  0.79248711  0.58286396  0.77109902  1
  P  P284  1  0.79308923  0.91683272  0.02073513  1
  P  P285  1  0.79343693  0.91710600  0.27149864  1
  P  P286  1  0.79309358  0.91774660  0.52286643  1
  P  P287  1  0.79194658  0.91569762  0.77195543  1
  O  O288  1  0.03793532  0.24978686  0.18311027  1
  O  O289  1  0.03688684  0.24972671  0.43282076  1
  O  O290  1  0.03602591  0.25126013  0.68404675  1
  O  O291  1  0.03741322  0.25013045  0.93157619  1
  O  O292  1  0.03626983  0.58274098  0.18082856  1
  O  O293  1  0.03762510  0.58161249  0.43227397  1
  O  O294  1  0.03751512  0.58358279  0.68449511  1
  O  O295  1  0.03568441  0.58315489  0.93198294  1
  O  O296  1  0.03788254  0.91814966  0.18139782  1
  O  O297  1  0.03803161  0.91596873  0.43297371  1
  O  O298  1  0.03667520  0.91643847  0.68446476  1
  O  O299  1  0.03671259  0.91717962  0.93143118  1
  O  O300  1  0.53714462  0.25025690  0.18210398  1
  O  O301  1  0.53610121  0.24882572  0.43328739  1
  O  O302  1  0.53581464  0.25012027  0.68198814  1
  O  O303  1  0.53679608  0.25158976  0.93212866  1
  O  O304  1  0.53745514  0.58408703  0.18367855  1
  O  O305  1  0.53622791  0.58510892  0.43336341  1
  O  O306  1  0.53623747  0.58399053  0.68289531  1
  O  O307  1  0.53741112  0.58363303  0.93204504  1
  O  O308  1  0.53772357  0.91833682  0.18270473  1
  O  O309  1  0.53805030  0.91576864  0.43413009  1
  O  O310  1  0.53685581  0.91574771  0.68296639  1
  O  O311  1  0.53718692  0.91883499  0.93262030  1
  O  O312  1  0.46335915  0.08392796  0.06723311  1
  O  O313  1  0.46292109  0.08558861  0.31770075  1
  O  O314  1  0.46323169  0.08248181  0.56720954  1
  O  O315  1  0.46325399  0.08136587  0.81691504  1
  O  O316  1  0.46222615  0.41648559  0.06652709  1
  O  O317  1  0.46224867  0.41594461  0.31773700  1
  O  O318  1  0.46262060  0.41461813  0.56696225  1
  O  O319  1  0.46310357  0.41493511  0.81680870  1
  O  O320  1  0.46281479  0.75010359  0.06815222  1
  O  O321  1  0.46404310  0.74981937  0.31871072  1
  O  O322  1  0.46340883  0.74862576  0.56728802  1
  O  O323  1  0.46241204  0.74949066  0.81658485  1
  O  O324  1  0.96358236  0.08424427  0.06696835  1
  O  O325  1  0.96217460  0.08458437  0.31707495  1
  O  O326  1  0.96303570  0.08392727  0.56895119  1
  O  O327  1  0.96401538  0.08236189  0.81615445  1
  O  O328  1  0.96284361  0.41915216  0.06704590  1
  O  O329  1  0.96236191  0.41570746  0.31808241  1
  O  O330  1  0.96311836  0.41582955  0.56891780  1
  O  O331  1  0.96326243  0.41748467  0.81671485  1
  O  O332  1  0.96324370  0.74936423  0.06522974  1
  O  O333  1  0.96213815  0.74924352  0.31659712  1
  O  O334  1  0.96316892  0.74975525  0.56894909  1
  O  O335  1  0.96370024  0.74872692  0.81633697  1
  O  O336  1  0.21256545  0.08404551  0.05653481  1
  O  O337  1  0.21275863  0.08186964  0.30858736  1
  O  O338  1  0.21363573  0.08109112  0.55862582  1
  O  O339  1  0.21354466  0.08322843  0.80659361  1
  O  O340  1  0.21263454  0.41909052  0.05743592  1
  O  O341  1  0.21245329  0.41849436  0.30696527  1
  O  O342  1  0.21266892  0.41495490  0.55880559  1
  O  O343  1  0.21334579  0.41594169  0.80810925  1
  O  O344  1  0.21363543  0.74957755  0.05654282  1
  O  O345  1  0.21329505  0.75003480  0.30615087  1
  O  O346  1  0.21286295  0.74929496  0.55748201  1
  O  O347  1  0.21350148  0.75093251  0.80822451  1
  O  O348  1  0.71339538  0.08581931  0.05708396  1
  O  O349  1  0.71276040  0.08492383  0.30703600  1
  O  O350  1  0.71324048  0.08312293  0.55964925  1
  O  O351  1  0.71369539  0.08403328  0.80685980  1
  O  O352  1  0.71275078  0.41628283  0.05758120  1
  O  O353  1  0.71234086  0.41842554  0.30783996  1
  O  O354  1  0.71240363  0.41665306  0.55976221  1
  O  O355  1  0.71332341  0.41539862  0.80704160  1
  O  O356  1  0.71304917  0.75056655  0.05743754  1
  O  O357  1  0.71343898  0.74851684  0.30776669  1
  O  O358  1  0.71376803  0.74811671  0.55800315  1
  O  O359  1  0.71303318  0.74985716  0.80752247  1
  O  O360  1  0.28781266  0.25051010  0.19190118  1
  O  O361  1  0.28652826  0.24928760  0.44372456  1
  O  O362  1  0.28570877  0.24837091  0.69154434  1
  O  O363  1  0.28729728  0.24926882  0.94087423  1
  O  O364  1  0.28606836  0.58525731  0.19173526  1
  O  O365  1  0.28772145  0.58402054  0.44191740  1
  O  O366  1  0.28703941  0.58302308  0.69377831  1
  O  O367  1  0.28582494  0.58311297  0.94254225  1
  O  O368  1  0.28747394  0.91683273  0.19257747  1
  O  O369  1  0.28662626  0.91677818  0.44358091  1
  O  O370  1  0.28648708  0.91508902  0.69177077  1
  O  O371  1  0.28685675  0.91470092  0.94179397  1
  O  O372  1  0.78764901  0.25042740  0.19171208  1
  O  O373  1  0.78708761  0.25055117  0.44447490  1
  O  O374  1  0.78569726  0.24997885  0.69289631  1
  O  O375  1  0.78655406  0.24957483  0.94155272  1
  O  O376  1  0.78632998  0.58440627  0.19226685  1
  O  O377  1  0.78686543  0.58391814  0.44402181  1
  O  O378  1  0.78722248  0.58284692  0.69122031  1
  O  O379  1  0.78619414  0.58304333  0.94341467  1
  O  O380  1  0.78827196  0.91726649  0.19148861  1
  O  O381  1  0.78826103  0.91747202  0.44286485  1
  O  O382  1  0.78661274  0.91639516  0.69200640  1
  O  O383  1  0.78743517  0.91628864  0.94078367  1
  O  O384  1  0.22834945  0.25033506  0.05630693  1
  O  O385  1  0.22844474  0.24971659  0.30693747  1
  O  O386  1  0.22670299  0.24977025  0.55925604  1
  O  O387  1  0.22747797  0.24799454  0.80792484  1
  O  O388  1  0.22695407  0.58387453  0.05884543  1
  O  O389  1  0.22740673  0.58562963  0.30792036  1
  O  O390  1  0.22871964  0.58313322  0.55729289  1
  O  O391  1  0.22708243  0.58264224  0.80915921  1
  O  O392  1  0.22801810  0.91454383  0.05754557  1
  O  O393  1  0.22843779  0.91803183  0.30836195  1
  O  O394  1  0.22754129  0.91587099  0.55977867  1
  O  O395  1  0.22779498  0.91474288  0.80782563  1
  O  O396  1  0.72827708  0.24909488  0.05791329  1
  O  O397  1  0.72830097  0.25095755  0.30699166  1
  O  O398  1  0.72713495  0.24920043  0.55975887  1
  O  O399  1  0.72688898  0.25029341  0.80920478  1
  O  O400  1  0.72690286  0.58312220  0.05936150  1
  O  O401  1  0.72784324  0.58541721  0.30856580  1
  O  O402  1  0.72772051  0.58283029  0.55999729  1
  O  O403  1  0.72826036  0.58295177  0.80673704  1
  O  O404  1  0.72890729  0.91714086  0.05644621  1
  O  O405  1  0.72907519  0.91662789  0.30676115  1
  O  O406  1  0.72866689  0.91755983  0.55804615  1
  O  O407  1  0.72782927  0.91544348  0.80802171  1
  O  O408  1  0.27167977  0.08261578  0.19304698  1
  O  O409  1  0.27212423  0.08083898  0.44232771  1
  O  O410  1  0.27305383  0.08188081  0.69074059  1
  O  O411  1  0.27185782  0.08436539  0.94110508  1
  O  O412  1  0.27161171  0.41916966  0.19132839  1
  O  O413  1  0.27128327  0.41668311  0.44326280  1
  O  O414  1  0.27229775  0.41461417  0.69225632  1
  O  O415  1  0.27168081  0.41795380  0.94182819  1
  O  O416  1  0.27261442  0.75016078  0.19016934  1
  O  O417  1  0.27190284  0.74856892  0.44164734  1
  O  O418  1  0.27225155  0.75130945  0.69215707  1
  O  O419  1  0.27266280  0.75009628  0.94043248  1
  O  O420  1  0.77206879  0.08591624  0.19148227  1
  O  O421  1  0.77190579  0.08374992  0.44379500  1
  O  O422  1  0.77297614  0.08416142  0.69102586  1
  O  O423  1  0.77221545  0.08526813  0.94124782  1
  O  O424  1  0.77174321  0.41860735  0.19230201  1
  O  O425  1  0.77152101  0.41731056  0.44421464  1
  O  O426  1  0.77265309  0.41702578  0.69116887  1
  O  O427  1  0.77194907  0.41491782  0.94193746  1
  O  O428  1  0.77223649  0.74866143  0.19188361  1
  O  O429  1  0.77265858  0.74791218  0.44214040  1
  O  O430  1  0.77223098  0.74860999  0.69200707  1
  O  O431  1  0.77187582  0.75169147  0.94152649  1
  O  O432  1  0.02235279  0.08562694  0.18295423  1
  O  O433  1  0.02133718  0.08396111  0.43234242  1
  O  O434  1  0.02301074  0.08296629  0.68422074  1
  O  O435  1  0.02271103  0.08177638  0.93214092  1
  O  O436  1  0.02189383  0.41826260  0.18284420  1
  O  O437  1  0.02171258  0.41456782  0.43361696  1
  O  O438  1  0.02270456  0.41580859  0.68466258  1
  O  O439  1  0.02193031  0.41873578  0.93272020  1
  O  O440  1  0.02205844  0.74933824  0.18078994  1
  O  O441  1  0.02161612  0.74948118  0.43153398  1
  O  O442  1  0.02284646  0.74905883  0.68455591  1
  O  O443  1  0.02233979  0.74831123  0.93236064  1
  O  O444  1  0.52222554  0.08558718  0.18316731  1
  O  O445  1  0.52187880  0.08474826  0.43336026  1
  O  O446  1  0.52235626  0.08158275  0.68289453  1
  O  O447  1  0.52207493  0.08200516  0.93272417  1
  O  O448  1  0.52113784  0.41684972  0.18199175  1
  O  O449  1  0.52138907  0.41526934  0.43329192  1
  O  O450  1  0.52171692  0.41495951  0.68258528  1
  O  O451  1  0.52197519  0.41497386  0.93272477  1
  O  O452  1  0.52229122  0.74873569  0.18348240  1
  O  O453  1  0.52290137  0.75039936  0.43489870  1
  O  O454  1  0.52198344  0.74800196  0.68343299  1
  O  O455  1  0.52155630  0.75062451  0.93178554  1
  O  O456  1  0.47816584  0.25175054  0.06627816  1
  O  O457  1  0.47783485  0.24814278  0.31699062  1
  O  O458  1  0.47638013  0.24980164  0.56613136  1
  O  O459  1  0.47773398  0.25082053  0.81650570  1
  O  O460  1  0.47823953  0.58336224  0.06847025  1
  O  O461  1  0.47755793  0.58527281  0.31732709  1
  O  O462  1  0.47759656  0.58403557  0.56700779  1
  O  O463  1  0.47798413  0.58431362  0.81673964  1
  O  O464  1  0.47827522  0.91901287  0.06723990  1
  O  O465  1  0.47906250  0.91692584  0.31886639  1
  O  O466  1  0.47821634  0.91463089  0.56699200  1
  O  O467  1  0.47821063  0.91834098  0.81688019  1
  O  O468  1  0.97895419  0.25037096  0.06770732  1
  O  O469  1  0.97806912  0.24857704  0.31681791  1
  O  O470  1  0.97724979  0.25190532  0.56797895  1
  O  O471  1  0.97713737  0.25102163  0.81652608  1
  O  O472  1  0.97677138  0.58378504  0.06500186  1
  O  O473  1  0.97795513  0.58137608  0.31703960  1
  O  O474  1  0.97849007  0.58292190  0.56888431  1
  O  O475  1  0.97689281  0.58392534  0.81573417  1
  O  O476  1  0.97868579  0.91834780  0.06584393  1
  O  O477  1  0.97901012  0.91651748  0.31769066  1
  O  O478  1  0.97805718  0.91659389  0.56866008  1
  O  O479  1  0.97743570  0.91727730  0.81562838  1
  O  O480  1  0.07384482  0.31436279  0.07537099  1
  O  O481  1  0.07336551  0.31243451  0.32450653  1
  O  O482  1  0.07233614  0.31477089  0.57519452  1
  O  O483  1  0.07280848  0.31383689  0.82359500  1
  O  O484  1  0.07195574  0.64703363  0.07275718  1
  O  O485  1  0.07342439  0.64485089  0.32397800  1
  O  O486  1  0.07387185  0.64632740  0.57562252  1
  O  O487  1  0.07249397  0.64658014  0.82402607  1
  O  O488  1  0.07345244  0.98212252  0.07298842  1
  O  O489  1  0.07443476  0.97980807  0.32523064  1
  O  O490  1  0.07341480  0.97988739  0.57619294  1
  O  O491  1  0.07330377  0.97968632  0.82292291  1
  O  O492  1  0.57314315  0.31505497  0.07429460  1
  O  O493  1  0.57274682  0.31259776  0.32551988  1
  O  O494  1  0.57163664  0.31310454  0.57336244  1
  O  O495  1  0.57274761  0.31455755  0.82304721  1
  O  O496  1  0.57372087  0.64702138  0.07512287  1
  O  O497  1  0.57274767  0.64827003  0.32467596  1
  O  O498  1  0.57270962  0.64739997  0.57436722  1
  O  O499  1  0.57309896  0.64776043  0.82387369  1
  O  O500  1  0.57344868  0.98223558  0.07437977  1
  O  O501  1  0.57435625  0.98034196  0.32653364  1
  O  O502  1  0.57346555  0.97860405  0.57497229  1
  O  O503  1  0.57346776  0.98160330  0.82347703  1
  O  O504  1  0.42705789  0.02141716  0.17582669  1
  O  O505  1  0.42671675  0.02101486  0.42500837  1
  O  O506  1  0.42763487  0.01776038  0.67513448  1
  O  O507  1  0.42684399  0.01866776  0.92602390  1
  O  O508  1  0.42565572  0.35337625  0.17480823  1
  O  O509  1  0.42643750  0.35175784  0.42587041  1
  O  O510  1  0.42681349  0.35107410  0.67575401  1
  O  O511  1  0.42667063  0.35189439  0.92552418  1
  O  O512  1  0.42685391  0.68617185  0.17653406  1
  O  O513  1  0.42808188  0.68623663  0.42690578  1
  O  O514  1  0.42675461  0.68507145  0.67592387  1
  O  O515  1  0.42614800  0.68682058  0.92513653  1
  O  O516  1  0.92721580  0.02131784  0.17505209  1
  O  O517  1  0.92628335  0.02014022  0.42506054  1
  O  O518  1  0.92738751  0.02014754  0.67692400  1
  O  O519  1  0.92760095  0.01876532  0.92481451  1
  O  O520  1  0.92643817  0.35501978  0.17440870  1
  O  O521  1  0.92671706  0.35146262  0.42662888  1
  O  O522  1  0.92689785  0.35335631  0.67762342  1
  O  O523  1  0.92711405  0.35431090  0.92501832  1
  O  O524  1  0.92611945  0.68681972  0.17369480  1
  O  O525  1  0.92639227  0.68576726  0.42511181  1
  O  O526  1  0.92739711  0.68612558  0.67690414  1
  O  O527  1  0.92695484  0.68547705  0.92495984  1
  O  O528  1  0.17601619  0.01968119  0.19971849  1
  O  O529  1  0.17697614  0.01774460  0.45014081  1
  O  O530  1  0.17779749  0.01883662  0.69900692  1
  O  O531  1  0.17669594  0.02053535  0.94879171  1
  O  O532  1  0.17651167  0.35506365  0.19916608  1
  O  O533  1  0.17599300  0.35273267  0.45004541  1
  O  O534  1  0.17717323  0.35175379  0.70005763  1
  O  O535  1  0.17605276  0.35496693  0.95011092  1
  O  O536  1  0.17712204  0.68716000  0.19752845  1
  O  O537  1  0.17691666  0.68535824  0.44902789  1
  O  O538  1  0.17724856  0.68708035  0.70068582  1
  O  O539  1  0.17804649  0.68618462  0.94780994  1
  O  O540  1  0.67705423  0.02154580  0.19909426  1
  O  O541  1  0.67654107  0.02034092  0.45093582  1
  O  O542  1  0.67876805  0.01941739  0.69890131  1
  O  O543  1  0.67692686  0.02175001  0.94971387  1
  O  O544  1  0.67638980  0.35499412  0.19997821  1
  O  O545  1  0.67638191  0.35344691  0.45111496  1
  O  O546  1  0.67820064  0.35238671  0.69826770  1
  O  O547  1  0.67681778  0.35210219  0.94927725  1
  O  O548  1  0.67697602  0.68568951  0.19876682  1
  O  O549  1  0.67723704  0.68506772  0.44955557  1
  O  O550  1  0.67730036  0.68525018  0.69940679  1
  O  O551  1  0.67656951  0.68763086  0.94955001  1
  O  O552  1  0.32358306  0.31365337  0.04851128  1
  O  O553  1  0.32350527  0.31396705  0.30003309  1
  O  O554  1  0.32205585  0.31275895  0.55201041  1
  O  O555  1  0.32286664  0.31143533  0.79944354  1
  O  O556  1  0.32220376  0.64706998  0.05045552  1
  O  O557  1  0.32239915  0.64882411  0.30038077  1
  O  O558  1  0.32411878  0.64666429  0.55054587  1
  O  O559  1  0.32166290  0.64668209  0.80235197  1
  O  O560  1  0.32293091  0.97886085  0.04923926  1
  O  O561  1  0.32357155  0.98104318  0.30093928  1
  O  O562  1  0.32291278  0.97908276  0.55232922  1
  O  O563  1  0.32288997  0.97854833  0.79973431  1
  O  O564  1  0.82344597  0.31297701  0.04940135  1
  O  O565  1  0.82355534  0.31441139  0.29975892  1
  O  O566  1  0.82135145  0.31417023  0.55324215  1
  O  O567  1  0.82195998  0.31368211  0.80112276  1
  O  O568  1  0.82149936  0.64727385  0.05107337  1
  O  O569  1  0.82340830  0.64781940  0.30067939  1
  O  O570  1  0.82266417  0.64687702  0.55251951  1
  O  O571  1  0.82370852  0.64609586  0.79970778  1
  O  O572  1  0.82411940  0.98062869  0.04826274  1
  O  O573  1  0.82415360  0.98071814  0.29960383  1
  O  O574  1  0.82343502  0.98134647  0.55172792  1
  O  O575  1  0.82324647  0.97910187  0.79986423  1
  O  O576  1  0.42710049  0.14860012  0.17497379  1
  O  O577  1  0.42655154  0.14800466  0.42694972  1
  O  O578  1  0.42680899  0.14490586  0.67555543  1
  O  O579  1  0.42680557  0.14567182  0.92412622  1
  O  O580  1  0.42576569  0.48020160  0.17466484  1
  O  O581  1  0.42600308  0.47905749  0.42548514  1
  O  O582  1  0.42612358  0.47815023  0.67467516  1
  O  O583  1  0.42696670  0.47912064  0.92421316  1
  O  O584  1  0.42742285  0.81346778  0.17610981  1
  O  O585  1  0.42779073  0.81361917  0.42675610  1
  O  O586  1  0.42686429  0.81202558  0.67520639  1
  O  O587  1  0.42616336  0.81374704  0.92435674  1
  O  O588  1  0.92724855  0.14850766  0.17509605  1
  O  O589  1  0.92554654  0.14696952  0.42585311  1
  O  O590  1  0.92854769  0.14758693  0.67748129  1
  O  O591  1  0.92750908  0.14583914  0.92397949  1
  O  O592  1  0.92713455  0.48213399  0.17617617  1
  O  O593  1  0.92636319  0.47856772  0.42650505  1
  O  O594  1  0.92863319  0.48066260  0.67694371  1
  O  O595  1  0.92640019  0.48129788  0.92494348  1
  O  O596  1  0.92720312  0.81374151  0.17286271  1
  O  O597  1  0.92601710  0.81274286  0.42486880  1
  O  O598  1  0.92837427  0.81357699  0.67740197  1
  O  O599  1  0.92722875  0.81242792  0.92401282  1
  O  O600  1  0.07482878  0.18749365  0.07440285  1
  O  O601  1  0.07309605  0.18533806  0.32477160  1
  O  O602  1  0.07241241  0.18778883  0.57616957  1
  O  O603  1  0.07157813  0.18635219  0.82284113  1
  O  O604  1  0.07169203  0.51979584  0.07202280  1
  O  O605  1  0.07281170  0.51761352  0.32378493  1
  O  O606  1  0.07387583  0.51955121  0.57655564  1
  O  O607  1  0.07121076  0.51942760  0.82333640  1
  O  O608  1  0.07414378  0.85486028  0.07359332  1
  O  O609  1  0.07428773  0.85279747  0.32447783  1
  O  O610  1  0.07343243  0.85305204  0.57628410  1
  O  O611  1  0.07149186  0.85227908  0.82365354  1
  O  O612  1  0.57349238  0.18796314  0.07347584  1
  O  O613  1  0.57328229  0.18562998  0.32455509  1
  O  O614  1  0.57110423  0.18571793  0.57416497  1
  O  O615  1  0.57312063  0.18751197  0.82469875  1
  O  O616  1  0.57370310  0.52027783  0.07538186  1
  O  O617  1  0.57253664  0.52100803  0.32607497  1
  O  O618  1  0.57281086  0.52032230  0.57540017  1
  O  O619  1  0.57335939  0.52047121  0.82404370  1
  O  O620  1  0.57344095  0.85489729  0.07477754  1
  O  O621  1  0.57466457  0.85346345  0.32538038  1
  O  O622  1  0.57328066  0.85146255  0.57508953  1
  O  O623  1  0.57342140  0.85458136  0.82519672  1
  O  O624  1  0.32389198  0.18667944  0.04940125  1
  O  O625  1  0.32412443  0.18694500  0.30014053  1
  O  O626  1  0.32119150  0.18525239  0.55192762  1
  O  O627  1  0.32249527  0.18445160  0.79970358  1
  O  O628  1  0.32184598  0.51993834  0.05127997  1
  O  O629  1  0.32274326  0.52183344  0.29976975  1
  O  O630  1  0.32410574  0.51985467  0.54975494  1
  O  O631  1  0.32246132  0.51919281  0.80175163  1
  O  O632  1  0.32342440  0.85175059  0.05071423  1
  O  O633  1  0.32368902  0.85401204  0.30087191  1
  O  O634  1  0.32207026  0.85173645  0.55111314  1
  O  O635  1  0.32310670  0.85167587  0.80041988  1
  O  O636  1  0.82350314  0.18603328  0.05001007  1
  O  O637  1  0.82377901  0.18750170  0.30045996  1
  O  O638  1  0.82303215  0.18684360  0.55258432  1
  O  O639  1  0.82187025  0.18649518  0.80113337  1
  O  O640  1  0.82194328  0.51963102  0.05163931  1
  O  O641  1  0.82265124  0.52097900  0.30062493  1
  O  O642  1  0.82280454  0.51947983  0.55189398  1
  O  O643  1  0.82358723  0.51945356  0.79964187  1
  O  O644  1  0.82454461  0.85372795  0.04916341  1
  O  O645  1  0.82464675  0.85356357  0.29936856  1
  O  O646  1  0.82437384  0.85414897  0.55063790  1
  O  O647  1  0.82256531  0.85186365  0.79998750  1
  O  O648  1  0.17659073  0.14653782  0.20098822  1
  O  O649  1  0.17699620  0.14489317  0.45095274  1
  O  O650  1  0.17837501  0.14613263  0.69764302  1
  O  O651  1  0.17669536  0.14776542  0.94796709  1
  O  O652  1  0.17642014  0.48233765  0.19866761  1
  O  O653  1  0.17574325  0.47961481  0.45147377  1
  O  O654  1  0.17721040  0.47897770  0.70012697  1
  O  O655  1  0.17679827  0.48200019  0.94832796  1
  O  O656  1  0.17806051  0.81438449  0.19799894  1
  O  O657  1  0.17656366  0.81245765  0.44952836  1
  O  O658  1  0.17698576  0.81404796  0.69927691  1
  O  O659  1  0.17735387  0.81334268  0.94827776  1
  O  O660  1  0.67677952  0.14888350  0.19868031  1
  O  O661  1  0.67652774  0.14711480  0.45168778  1
  O  O662  1  0.67711606  0.14683678  0.69853141  1
  O  O663  1  0.67703402  0.14870664  0.94820107  1
  O  O664  1  0.67680364  0.48220336  0.19932266  1
  O  O665  1  0.67582334  0.48019803  0.45148498  1
  O  O666  1  0.67719758  0.47971152  0.69921093  1
  O  O667  1  0.67671912  0.47918092  0.94932397  1
  O  O668  1  0.67707742  0.81273348  0.20034852  1
  O  O669  1  0.67784091  0.81228132  0.45036403  1
  O  O670  1  0.67665247  0.81231515  0.69915972  1
  O  O671  1  0.67684018  0.81482367  0.94912835  1
