# generated using pymatgen
data_Na2MnFe(PO4)2
_symmetry_space_group_name_H-M   'P 1'
_cell_length_a   22.34667415
_cell_length_b   20.09801725
_cell_length_c   19.44950107
_cell_angle_alpha   89.95522572
_cell_angle_beta   90.00063853
_cell_angle_gamma   89.98747758
_symmetry_Int_Tables_number   1
_chemical_formula_structural   Na2MnFe(PO4)2
_chemical_formula_sum   'Na96 Mn48 Fe48 P96 O384'
_cell_volume   8735.23177783
_cell_formula_units_Z   48
loop_
 _symmetry_equiv_pos_site_id
 _symmetry_equiv_pos_as_xyz
  1  'x, y, z'
loop_
 _atom_site_type_symbol
 _atom_site_label
 _atom_site_symmetry_multiplicity
 _atom_site_fract_x
 _atom_site_fract_y
 _atom_site_fract_z
 _atom_site_occupancy
  Na  Na0  1  0.13959850  0.25031152  0.24334621  1
  Na  Na1  1  0.13956873  0.25080905  0.49379023  1
  Na  Na2  1  0.13893554  0.25035182  0.74382068  1
  Na  Na3  1  0.13951526  0.25022523  0.99254995  1
  Na  Na4  1  0.13980529  0.58387736  0.24433143  1
  Na  Na5  1  0.14003485  0.58356812  0.49422530  1
  Na  Na6  1  0.14029148  0.58306565  0.74437146  1
  Na  Na7  1  0.13988059  0.58374530  0.99251202  1
  Na  Na8  1  0.13945106  0.91764334  0.24311154  1
  Na  Na9  1  0.13926371  0.91630568  0.49272873  1
  Na  Na10  1  0.13931559  0.91561200  0.74374014  1
  Na  Na11  1  0.13966394  0.91680814  0.99320317  1
  Na  Na12  1  0.64117992  0.25002301  0.24390173  1
  Na  Na13  1  0.64110775  0.24853329  0.49335505  1
  Na  Na14  1  0.64062580  0.24953863  0.74414177  1
  Na  Na15  1  0.64109978  0.24896812  0.99353960  1
  Na  Na16  1  0.64064244  0.58303026  0.24258895  1
  Na  Na17  1  0.64125905  0.58286659  0.49368035  1
  Na  Na18  1  0.64141014  0.58461200  0.74482330  1
  Na  Na19  1  0.64078049  0.58310697  0.99361422  1
  Na  Na20  1  0.64125224  0.91744459  0.24398098  1
  Na  Na21  1  0.64080548  0.91769704  0.49429102  1
  Na  Na22  1  0.64115500  0.91749644  0.74349279  1
  Na  Na23  1  0.64152343  0.91665061  0.99252674  1
  Na  Na24  1  0.35930988  0.08335204  0.00502639  1
  Na  Na25  1  0.35936311  0.08384493  0.25523005  1
  Na  Na26  1  0.35910554  0.08349166  0.50553120  1
  Na  Na27  1  0.35875769  0.08313852  0.75506654  1
  Na  Na28  1  0.35960810  0.41640477  0.00566502  1
  Na  Na29  1  0.35960396  0.41659445  0.25669595  1
  Na  Na30  1  0.35933469  0.41699897  0.50458923  1
  Na  Na31  1  0.35966517  0.41600231  0.75600450  1
  Na  Na32  1  0.35986246  0.74965468  0.00481403  1
  Na  Na33  1  0.35943341  0.74866916  0.25584572  1
  Na  Na34  1  0.35954357  0.74903018  0.50572052  1
  Na  Na35  1  0.35992943  0.74996429  0.75555101  1
  Na  Na36  1  0.85994139  0.08301254  0.00669352  1
  Na  Na37  1  0.85982983  0.08385744  0.25700377  1
  Na  Na38  1  0.86013806  0.08276585  0.50759552  1
  Na  Na39  1  0.85943639  0.08354806  0.75749355  1
  Na  Na40  1  0.85962579  0.41539770  0.00717622  1
  Na  Na41  1  0.85976410  0.41614232  0.25639559  1
  Na  Na42  1  0.85935538  0.41501639  0.50625774  1
  Na  Na43  1  0.85948807  0.41569835  0.75802179  1
  Na  Na44  1  0.86040587  0.75028093  0.00773483  1
  Na  Na45  1  0.86032289  0.75091170  0.25686180  1
  Na  Na46  1  0.86005522  0.75203485  0.50775674  1
  Na  Na47  1  0.86021252  0.75154949  0.75873753  1
  Na  Na48  1  0.10922177  0.08323291  0.11798953  1
  Na  Na49  1  0.10901939  0.08399415  0.36839140  1
  Na  Na50  1  0.10841880  0.08313250  0.61800259  1
  Na  Na51  1  0.10865125  0.08339407  0.86912010  1
  Na  Na52  1  0.10885222  0.41633744  0.11808188  1
  Na  Na53  1  0.10894632  0.41780179  0.36833589  1
  Na  Na54  1  0.10927967  0.41557241  0.61964623  1
  Na  Na55  1  0.10925188  0.41583728  0.86782524  1
  Na  Na56  1  0.10890097  0.75093281  0.11902433  1
  Na  Na57  1  0.10865126  0.75128138  0.36860429  1
  Na  Na58  1  0.10939655  0.75135450  0.61917343  1
  Na  Na59  1  0.10943599  0.75069971  0.86859319  1
  Na  Na60  1  0.61087032  0.08355659  0.11845321  1
  Na  Na61  1  0.61059752  0.08326389  0.36844931  1
  Na  Na62  1  0.61048018  0.08341763  0.61837600  1
  Na  Na63  1  0.61039795  0.08321796  0.86739941  1
  Na  Na64  1  0.60997682  0.41746774  0.11939525  1
  Na  Na65  1  0.61003208  0.41626496  0.36816807  1
  Na  Na66  1  0.61002492  0.41645420  0.61940180  1
  Na  Na67  1  0.61016177  0.41689232  0.86978322  1
  Na  Na68  1  0.61031578  0.74852904  0.11775803  1
  Na  Na69  1  0.61013443  0.74873045  0.36929586  1
  Na  Na70  1  0.61054225  0.75177880  0.61925159  1
  Na  Na71  1  0.61087708  0.74936659  0.86854974  1
  Na  Na72  1  0.39017916  0.25018178  0.13087298  1
  Na  Na73  1  0.39026659  0.24954581  0.38052085  1
  Na  Na74  1  0.38999282  0.25033250  0.63052161  1
  Na  Na75  1  0.39008734  0.25147905  0.88068248  1
  Na  Na76  1  0.39066173  0.58210469  0.13005385  1
  Na  Na77  1  0.39011104  0.58228458  0.38059947  1
  Na  Na78  1  0.39092302  0.58359836  0.63012877  1
  Na  Na79  1  0.39075332  0.58283178  0.88084330  1
  Na  Na80  1  0.39080836  0.91610258  0.12960817  1
  Na  Na81  1  0.39071624  0.91562626  0.38093015  1
  Na  Na82  1  0.39007638  0.91627003  0.63016091  1
  Na  Na83  1  0.39034836  0.91484836  0.87998782  1
  Na  Na84  1  0.89016387  0.24833141  0.13154530  1
  Na  Na85  1  0.88999707  0.24937274  0.38208225  1
  Na  Na86  1  0.88994040  0.24876356  0.63220846  1
  Na  Na87  1  0.88983453  0.24896770  0.88262053  1
  Na  Na88  1  0.89032899  0.58416487  0.13231644  1
  Na  Na89  1  0.89036240  0.58520407  0.38087775  1
  Na  Na90  1  0.89077064  0.58396455  0.63296126  1
  Na  Na91  1  0.89068213  0.58443368  0.88319754  1
  Na  Na92  1  0.89053373  0.91676032  0.13158751  1
  Na  Na93  1  0.89050745  0.91847863  0.38202129  1
  Na  Na94  1  0.89008947  0.91702764  0.63302214  1
  Na  Na95  1  0.89017894  0.91625961  0.88333901  1
  Mn  Mn96  1  0.74989800  0.33173592  0.62584174  1
  Mn  Mn97  1  0.25006262  0.00102563  0.37404575  1
  Mn  Mn98  1  0.75058088  0.66684983  0.37531643  1
  Mn  Mn99  1  0.75016126  0.83415567  0.12505392  1
  Mn  Mn100  1  0.75121305  0.49926035  0.37498049  1
  Mn  Mn101  1  0.50123061  0.83197115  0.00011453  1
  Mn  Mn102  1  0.50065052  0.83212307  0.24996137  1
  Mn  Mn103  1  -0.00004280  0.16661049  0.24975995  1
  Mn  Mn104  1  0.24909422  0.16730637  0.87455588  1
  Mn  Mn105  1  0.25025910  0.49914032  0.62436929  1
  Mn  Mn106  1  0.25012785  0.00091460  0.12410552  1
  Mn  Mn107  1  0.75073320  0.33249352  0.12561729  1
  Mn  Mn108  1  0.50026191  0.16718353  -0.00069556  1
  Mn  Mn109  1  -0.00063731  0.50040569  0.50061231  1
  Mn  Mn110  1  0.50071859  -0.00060337  -0.00103554  1
  Mn  Mn111  1  0.25004331  0.83280695  0.37406266  1
  Mn  Mn112  1  0.50110001  0.66712641  0.75017233  1
  Mn  Mn113  1  -0.00095367  0.33282040  0.50011096  1
  Mn  Mn114  1  0.49964218  0.66502424  0.24895339  1
  Mn  Mn115  1  0.74988100  0.83467173  0.37540406  1
  Mn  Mn116  1  0.75141907  0.66806061  0.62534964  1
  Mn  Mn117  1  0.24914297  0.33277433  0.12546850  1
  Mn  Mn118  1  0.24893932  0.16774234  0.62546804  1
  Mn  Mn119  1  -0.00042695  0.50046916  0.24950165  1
  Mn  Mn120  1  0.50090639  0.16600641  0.49988488  1
  Mn  Mn121  1  0.50074459  0.33466255  0.00083858  1
  Mn  Mn122  1  -0.00005094  0.66865284  0.50126466  1
  Mn  Mn123  1  0.75047483  0.49978966  0.62574785  1
  Mn  Mn124  1  0.75083671  0.50013830  0.87576836  1
  Mn  Mn125  1  0.25040255  0.66661105  0.62486008  1
  Mn  Mn126  1  0.24958464  0.66641520  0.12417498  1
  Mn  Mn127  1  0.50100590  0.49978164  0.74994546  1
  Mn  Mn128  1  -0.00048936  0.49997797  0.75103637  1
  Mn  Mn129  1  0.49953617  0.16677740  0.24950790  1
  Mn  Mn130  1  0.24927150  0.33326844  0.37443248  1
  Mn  Mn131  1  -0.00033442  0.49992308  0.00032423  1
  Mn  Mn132  1  0.24994222  0.66686657  0.87397334  1
  Mn  Mn133  1  0.24867922  -0.00091659  0.62496101  1
  Mn  Mn134  1  0.24944950  0.49985340  0.12457689  1
  Mn  Mn135  1  0.24917545  -0.00076472  0.87488190  1
  Mn  Mn136  1  0.50070895  -0.00047184  0.24942309  1
  Mn  Mn137  1  -0.00033280  0.00003170  0.75050851  1
  Mn  Mn138  1  0.49942336  0.16738769  0.74903889  1
  Mn  Mn139  1  0.50027423  0.83303437  0.49928323  1
  Mn  Mn140  1  0.24974823  0.83352738  0.12502861  1
  Mn  Mn141  1  0.50015554  0.33323073  0.49927928  1
  Mn  Mn142  1  0.50001342  0.50018371  0.49969174  1
  Mn  Mn143  1  0.49943489  -0.00057701  0.74934945  1
  Fe  Fe144  1  0.75109070  0.66712578  0.87558983  1
  Fe  Fe145  1  0.75030074  0.49972843  0.12495085  1
  Fe  Fe146  1  0.00016742  0.16686374  0.50012308  1
  Fe  Fe147  1  -0.00002460  0.83316688  0.00103240  1
  Fe  Fe148  1  0.50041937  0.83310084  0.74916004  1
  Fe  Fe149  1  0.50048603  0.33362823  0.24965926  1
  Fe  Fe150  1  0.50005609  0.66580955  -0.00065277  1
  Fe  Fe151  1  0.75035581  0.00109889  0.12472968  1
  Fe  Fe152  1  0.24960357  0.83279608  0.62399598  1
  Fe  Fe153  1  0.75049971  0.83409053  0.87598986  1
  Fe  Fe154  1  0.24904584  0.49998286  0.37540111  1
  Fe  Fe155  1  0.75023797  0.00056798  0.87475270  1
  Fe  Fe156  1  0.24954022  0.33375506  0.62440706  1
  Fe  Fe157  1  0.50053648  0.49987479  0.24972415  1
  Fe  Fe158  1  -0.00088587  0.83469835  0.50011795  1
  Fe  Fe159  1  0.24991393  0.83330332  0.87453894  1
  Fe  Fe160  1  0.24961021  0.16722833  0.37502121  1
  Fe  Fe161  1  -0.00019507  0.83431721  0.25019475  1
  Fe  Fe162  1  0.49985347  0.49969089  -0.00011538  1
  Fe  Fe163  1  0.74984865  0.16590379  0.87539766  1
  Fe  Fe164  1  0.75049806  0.66710825  0.12490178  1
  Fe  Fe165  1  -0.00033208  0.83347270  0.75158849  1
  Fe  Fe166  1  0.49997206  -0.00030647  0.49967031  1
  Fe  Fe167  1  0.75033307  0.16612600  0.12491107  1
  Fe  Fe168  1  0.00013228  0.66744977  0.75111258  1
  Fe  Fe169  1  -0.00048539  0.33306590  0.24973133  1
  Fe  Fe170  1  0.75076894  0.00084174  0.37566711  1
  Fe  Fe171  1  0.24928094  0.16710971  0.12424211  1
  Fe  Fe172  1  0.24999262  0.49925757  0.87402119  1
  Fe  Fe173  1  -0.00072202  0.16631518  0.75061353  1
  Fe  Fe174  1  -0.00016562  0.00034611  0.50049173  1
  Fe  Fe175  1  0.75058718  0.16598008  0.37524472  1
  Fe  Fe176  1  -0.00043647  0.33259893  -0.00059710  1
  Fe  Fe177  1  -0.00035276  0.16640652  0.00034220  1
  Fe  Fe178  1  0.24925600  0.66627961  0.37525447  1
  Fe  Fe179  1  0.75017422  0.00030253  0.62560004  1
  Fe  Fe180  1  0.24990325  0.33318767  0.87481215  1
  Fe  Fe181  1  0.50010990  0.33375434  0.75003124  1
  Fe  Fe182  1  0.74996114  0.33261901  0.37517491  1
  Fe  Fe183  1  -0.00005099  0.66772582  0.25040533  1
  Fe  Fe184  1  0.75024445  0.83441429  0.62657928  1
  Fe  Fe185  1  0.50086136  0.66643441  0.49978930  1
  Fe  Fe186  1  0.75049756  0.16591529  0.62532790  1
  Fe  Fe187  1  -0.00103234  0.33246265  0.75000954  1
  Fe  Fe188  1  0.74981687  0.33267160  0.87593121  1
  Fe  Fe189  1  -0.00002059  -0.00048837  0.00016812  1
  Fe  Fe190  1  -0.00036303  -0.00012663  0.24996937  1
  Fe  Fe191  1  0.00008162  0.66736849  0.00099911  1
  P  P192  1  0.04092337  0.25007574  0.10150910  1
  P  P193  1  0.04161510  0.25091710  0.35238557  1
  P  P194  1  0.04142368  0.24859650  0.60334039  1
  P  P195  1  0.04018992  0.24954064  0.85234099  1
  P  P196  1  0.04190717  0.58492869  0.10287011  1
  P  P197  1  0.04138075  0.58521273  0.35261004  1
  P  P198  1  0.04233646  0.58406419  0.60429805  1
  P  P199  1  0.04187665  0.58513583  0.85341544  1
  P  P200  1  0.04118379  0.91682334  0.10238522  1
  P  P201  1  0.04104443  0.91740872  0.35221002  1
  P  P202  1  0.04082832  0.91679241  0.60212433  1
  P  P203  1  0.04144217  0.91587032  0.85368620  1
  P  P204  1  0.54313225  0.25066260  0.10354698  1
  P  P205  1  0.54249284  0.25081797  0.35178588  1
  P  P206  1  0.54308553  0.25046189  0.60324552  1
  P  P207  1  0.54234867  0.25158247  0.85222930  1
  P  P208  1  0.54178123  0.58238276  0.10126393  1
  P  P209  1  0.54286081  0.58193074  0.35228458  1
  P  P210  1  0.54334573  0.58462549  0.60231786  1
  P  P211  1  0.54342041  0.58306051  0.85395914  1
  P  P212  1  0.54417655  0.91611171  0.10270028  1
  P  P213  1  0.54336537  0.91626903  0.35341161  1
  P  P214  1  0.54226991  0.91752793  0.60227626  1
  P  P215  1  0.54276620  0.91477203  0.85169253  1
  P  P216  1  0.45731436  0.08312527  0.14606540  1
  P  P217  1  0.45789037  0.08187924  0.39721937  1
  P  P218  1  0.45692814  0.08292833  0.64584799  1
  P  P219  1  0.45725819  0.08333813  0.89600318  1
  P  P220  1  0.45834958  0.41728293  0.14826204  1
  P  P221  1  0.45752802  0.41658663  0.39549322  1
  P  P222  1  0.45775447  0.41575191  0.64740352  1
  P  P223  1  0.45791623  0.41759492  0.89724033  1
  P  P224  1  0.45732611  0.74881906  0.14588632  1
  P  P225  1  0.45781807  0.74775634  0.39718529  1
  P  P226  1  0.45824168  0.75090481  0.64682702  1
  P  P227  1  0.45849112  0.74864733  0.89690921  1
  P  P228  1  0.95814588  0.08165587  0.14709744  1
  P  P229  1  0.95869483  0.08355653  0.39867417  1
  P  P230  1  0.95772846  0.08448056  0.64762458  1
  P  P231  1  0.95857236  0.08313743  0.89875602  1
  P  P232  1  0.95775124  0.41488204  0.14692533  1
  P  P233  1  0.95684168  0.41688439  0.39652243  1
  P  P234  1  0.95718655  0.41535410  0.64831970  1
  P  P235  1  0.95760051  0.41517514  0.89744557  1
  P  P236  1  0.95881799  0.75091357  0.14834147  1
  P  P237  1  0.95740240  0.75268935  0.39756939  1
  P  P238  1  0.95863555  0.75110591  0.64954615  1
  P  P239  1  0.95891731  0.75012876  0.89893321  1
  P  P240  1  0.20736966  0.08540292  0.22719790  1
  P  P241  1  0.20704447  0.08477532  0.47713608  1
  P  P242  1  0.20590701  0.08321337  0.72791332  1
  P  P243  1  0.20656317  0.08378436  0.97806700  1
  P  P244  1  0.20644012  0.41713517  0.22847163  1
  P  P245  1  0.20673953  0.41736647  0.47743773  1
  P  P246  1  0.20783880  0.41519562  0.72801176  1
  P  P247  1  0.20805502  0.41641305  0.97603569  1
  P  P248  1  0.20688572  0.74925994  0.22828605  1
  P  P249  1  0.20738305  0.74903603  0.47730650  1
  P  P250  1  0.20785045  0.75128964  0.72735208  1
  P  P251  1  0.20753291  0.75111771  0.97677288  1
  P  P252  1  0.70911345  0.08378812  0.22726516  1
  P  P253  1  0.70912301  0.08326246  0.47755623  1
  P  P254  1  0.70885513  0.08323560  0.72735041  1
  P  P255  1  0.70872507  0.08275161  0.97698511  1
  P  P256  1  0.70843048  0.41718440  0.22765747  1
  P  P257  1  0.70806451  0.41466412  0.47757246  1
  P  P258  1  0.70787070  0.41603708  0.72922999  1
  P  P259  1  0.70868537  0.41551816  0.97834880  1
  P  P260  1  0.70824004  0.74956560  0.22714393  1
  P  P261  1  0.70796858  0.75098760  0.47890384  1
  P  P262  1  0.70892191  0.75187944  0.72904295  1
  P  P263  1  0.70975103  0.74969920  0.97721057  1
  P  P264  1  0.29174308  0.24954323  0.02197708  1
  P  P265  1  0.29190322  0.24848985  0.27196768  1
  P  P266  1  0.29167739  0.25136604  0.52195345  1
  P  P267  1  0.29164353  0.25161676  0.77185491  1
  P  P268  1  0.29222715  0.58263974  0.02048713  1
  P  P269  1  0.29076172  0.58298114  0.27356362  1
  P  P270  1  0.29255079  0.58317162  0.52076432  1
  P  P271  1  0.29247116  0.58187768  0.77207205  1
  P  P272  1  0.29270439  0.91627460  0.02090520  1
  P  P273  1  0.29294350  0.91718283  0.27124504  1
  P  P274  1  0.29161689  0.91546319  0.52194644  1
  P  P275  1  0.29152660  0.91488304  0.77162156  1
  P  P276  1  0.79214596  0.24812298  0.02229116  1
  P  P277  1  0.79173906  0.24935719  0.27362326  1
  P  P278  1  0.79224237  0.24765515  0.52235134  1
  P  P279  1  0.79106970  0.24918208  0.77412236  1
  P  P280  1  0.79173781  0.58348245  0.02350517  1
  P  P281  1  0.79265469  0.58343021  0.27088343  1
  P  P282  1  0.79370701  0.58313818  0.52249835  1
  P  P283  1  0.79324709  0.58505420  0.77352712  1
  P  P284  1  0.79216911  0.91864930  0.02216174  1
  P  P285  1  0.79226277  0.91921285  0.27267607  1
  P  P286  1  0.79158088  0.91729868  0.52427704  1
  P  P287  1  0.79162734  0.91721302  0.77371855  1
  O  O288  1  0.03627780  0.25027264  0.18149731  1
  O  O289  1  0.03649218  0.25023638  0.43228443  1
  O  O290  1  0.03586069  0.24870058  0.68320199  1
  O  O291  1  0.03535076  0.25001978  0.93226291  1
  O  O292  1  0.03658603  0.58472737  0.18279544  1
  O  O293  1  0.03639131  0.58519287  0.43256994  1
  O  O294  1  0.03702412  0.58418184  0.68426169  1
  O  O295  1  0.03646138  0.58514399  0.93336040  1
  O  O296  1  0.03616923  0.91659052  0.18226796  1
  O  O297  1  0.03590713  0.91768122  0.43207918  1
  O  O298  1  0.03629430  0.91683248  0.68205224  1
  O  O299  1  0.03632027  0.91631070  0.93351348  1
  O  O300  1  0.53778258  0.25096877  0.18346821  1
  O  O301  1  0.53776065  0.25030166  0.43178528  1
  O  O302  1  0.53771294  0.25096841  0.68319382  1
  O  O303  1  0.53748910  0.25126254  0.93224329  1
  O  O304  1  0.53669783  0.58191626  0.18123475  1
  O  O305  1  0.53784125  0.58274977  0.43222846  1
  O  O306  1  0.53842928  0.58431280  0.68231151  1
  O  O307  1  0.53788013  0.58298620  0.93383735  1
  O  O308  1  0.53917729  0.91601514  0.18269053  1
  O  O309  1  0.53779129  0.91685400  0.43335105  1
  O  O310  1  0.53682983  0.91669179  0.68217409  1
  O  O311  1  0.53808520  0.91502566  0.93169163  1
  O  O312  1  0.46247221  0.08332943  0.06608423  1
  O  O313  1  0.46290873  0.08227834  0.31723035  1
  O  O314  1  0.46232786  0.08248138  0.56590501  1
  O  O315  1  0.46208656  0.08346911  0.81597059  1
  O  O316  1  0.46341585  0.41795329  0.06826847  1
  O  O317  1  0.46280902  0.41658110  0.31558282  1
  O  O318  1  0.46268985  0.41627797  0.56743382  1
  O  O319  1  0.46317841  0.41669176  0.81734520  1
  O  O320  1  0.46260992  0.74828428  0.06594746  1
  O  O321  1  0.46280691  0.74800668  0.31718140  1
  O  O322  1  0.46332872  0.75018567  0.56689912  1
  O  O323  1  0.46369999  0.74964282  0.81697365  1
  O  O324  1  0.96337406  0.08170639  0.06727653  1
  O  O325  1  0.96346359  0.08287159  0.31872583  1
  O  O326  1  0.96310465  0.08454540  0.56780114  1
  O  O327  1  0.96346035  0.08392857  0.81881179  1
  O  O328  1  0.96330965  0.41470242  0.06697333  1
  O  O329  1  0.96214013  0.41665057  0.31654745  1
  O  O330  1  0.96212360  0.41566408  0.56830263  1
  O  O331  1  0.96265549  0.41525248  0.81748272  1
  O  O332  1  0.96405338  0.75019611  0.06845892  1
  O  O333  1  0.96283137  0.75263881  0.31775690  1
  O  O334  1  0.96327834  0.75168398  0.56959145  1
  O  O335  1  0.96368976  0.75016264  0.81903441  1
  O  O336  1  0.21173879  0.08425874  0.05801686  1
  O  O337  1  0.21278462  0.08551903  0.30715637  1
  O  O338  1  0.21199825  0.08409467  0.55710282  1
  O  O339  1  0.21112529  0.08298116  0.80784511  1
  O  O340  1  0.21255947  0.41626841  0.05610886  1
  O  O341  1  0.21141613  0.41748809  0.30842720  1
  O  O342  1  0.21208306  0.41663856  0.55737443  1
  O  O343  1  0.21336860  0.41548129  0.80791621  1
  O  O344  1  0.21234584  0.75065444  0.05674445  1
  O  O345  1  0.21208387  0.74863460  0.30822325  1
  O  O346  1  0.21274086  0.74972220  0.55726763  1
  O  O347  1  0.21323491  0.75164673  0.80729900  1
  O  O348  1  0.71361777  0.08288805  0.05684300  1
  O  O349  1  0.71434990  0.08400640  0.30712991  1
  O  O350  1  0.71401927  0.08342762  0.55741915  1
  O  O351  1  0.71362069  0.08259230  0.80722150  1
  O  O352  1  0.71438991  0.41620879  0.05822086  1
  O  O353  1  0.71353082  0.41659476  0.30757142  1
  O  O354  1  0.71308281  0.41473427  0.55756235  1
  O  O355  1  0.71334467  0.41579827  0.80915632  1
  O  O356  1  0.71433043  0.74959008  0.05720119  1
  O  O357  1  0.71304732  0.74974703  0.30711414  1
  O  O358  1  0.71333243  0.75152139  0.55885836  1
  O  O359  1  0.71436621  0.75137515  0.80891474  1
  O  O360  1  0.28667912  0.24838649  0.19200949  1
  O  O361  1  0.28625090  0.25050537  0.44201080  1
  O  O362  1  0.28658396  0.25203568  0.69191063  1
  O  O363  1  0.28655974  0.25058612  0.94201932  1
  O  O364  1  0.28580875  0.58303810  0.19352710  1
  O  O365  1  0.28689876  0.58322518  0.44089851  1
  O  O366  1  0.28759889  0.58212033  0.69208647  1
  O  O367  1  0.28706116  0.58210924  0.94055351  1
  O  O368  1  0.28792244  0.91740067  0.19127394  1
  O  O369  1  0.28687101  0.91599113  0.44196373  1
  O  O370  1  0.28610974  0.91461077  0.69167277  1
  O  O371  1  0.28737985  0.91564905  0.94090810  1
  O  O372  1  0.78692825  0.24922768  0.19366634  1
  O  O373  1  0.78695884  0.24787921  0.44250385  1
  O  O374  1  0.78626736  0.24846577  0.69416074  1
  O  O375  1  0.78665388  0.24857698  0.94249296  1
  O  O376  1  0.78704139  0.58350724  0.19095622  1
  O  O377  1  0.78849779  0.58303310  0.44249397  1
  O  O378  1  0.78830397  0.58495025  0.69357713  1
  O  O379  1  0.78698971  0.58408286  0.94348102  1
  O  O380  1  0.78696796  0.91940546  0.19278345  1
  O  O381  1  0.78703980  0.91764261  0.44432307  1
  O  O382  1  0.78664112  0.91650712  0.69384781  1
  O  O383  1  0.78697809  0.91848389  0.94229404  1
  O  O384  1  0.22736988  0.24887716  0.05756478  1
  O  O385  1  0.22757930  0.24843266  0.30762352  1
  O  O386  1  0.22742800  0.25214489  0.55784974  1
  O  O387  1  0.22730146  0.25166914  0.80736546  1
  O  O388  1  0.22782906  0.58295377  0.05573196  1
  O  O389  1  0.22657952  0.58329864  0.30945060  1
  O  O390  1  0.22841045  0.58317263  0.55664518  1
  O  O391  1  0.22812050  0.58205285  0.80736979  1
  O  O392  1  0.22833662  0.91689565  0.05615983  1
  O  O393  1  0.22846027  0.91706168  0.30609485  1
  O  O394  1  0.22716735  0.91486019  0.55717214  1
  O  O395  1  0.22727743  0.91492200  0.80743612  1
  O  O396  1  0.72812760  0.24808746  0.05863134  1
  O  O397  1  0.72762914  0.24900424  0.30967299  1
  O  O398  1  0.72808489  0.24735374  0.55849668  1
  O  O399  1  0.72697885  0.24989184  0.81012979  1
  O  O400  1  0.72759724  0.58320662  0.05937954  1
  O  O401  1  0.72860423  0.58308307  0.30699965  1
  O  O402  1  0.72931036  0.58386631  0.55758080  1
  O  O403  1  0.72891611  0.58489639  0.80891402  1
  O  O404  1  0.72808666  0.91872155  0.05829750  1
  O  O405  1  0.72811630  0.91950529  0.30867951  1
  O  O406  1  0.72739244  0.91669859  0.56009023  1
  O  O407  1  0.72758096  0.91778751  0.80995978  1
  O  O408  1  0.27158146  0.08574605  0.19126953  1
  O  O409  1  0.27144575  0.08534269  0.44171730  1
  O  O410  1  0.27027484  0.08308760  0.69280548  1
  O  O411  1  0.27083956  0.08353141  0.94267427  1
  O  O412  1  0.27085580  0.41658808  0.19336499  1
  O  O413  1  0.27097409  0.41766867  0.44167781  1
  O  O414  1  0.27194965  0.41458993  0.69172558  1
  O  O415  1  0.27238237  0.41635182  0.94065004  1
  O  O416  1  0.27127672  0.74952555  0.19305411  1
  O  O417  1  0.27163874  0.74825422  0.44158657  1
  O  O418  1  0.27205908  0.75158832  0.69145544  1
  O  O419  1  0.27190901  0.75103276  0.94146520  1
  O  O420  1  0.77315069  0.08364605  0.19076267  1
  O  O421  1  0.77329811  0.08348304  0.44137677  1
  O  O422  1  0.77297165  0.08370027  0.69125606  1
  O  O423  1  0.77287284  0.08234518  0.94088343  1
  O  O424  1  0.77263983  0.41753306  0.19186106  1
  O  O425  1  0.77240434  0.41425849  0.44211280  1
  O  O426  1  0.77211866  0.41577802  0.69367419  1
  O  O427  1  0.77271894  0.41494031  0.94209831  1
  O  O428  1  0.77259834  0.74968067  0.19180081  1
  O  O429  1  0.77224041  0.75106405  0.44342914  1
  O  O430  1  0.77308617  0.75248487  0.69293547  1
  O  O431  1  0.77394261  0.74994817  0.94156319  1
  O  O432  1  0.02222040  0.08183960  0.18324974  1
  O  O433  1  0.02277036  0.08417069  0.43476706  1
  O  O434  1  0.02181782  0.08472727  0.68382297  1
  O  O435  1  0.02260653  0.08257974  0.93487097  1
  O  O436  1  0.02183127  0.41505419  0.18307086  1
  O  O437  1  0.02109517  0.41683723  0.43208236  1
  O  O438  1  0.02147644  0.41548209  0.68370542  1
  O  O439  1  0.02185251  0.41532570  0.93310415  1
  O  O440  1  0.02267304  0.75179596  0.18499360  1
  O  O441  1  0.02153052  0.75322800  0.43384546  1
  O  O442  1  0.02285933  0.75089685  0.68532034  1
  O  O443  1  0.02301620  0.74973296  0.93497454  1
  O  O444  1  0.52177774  0.08350017  0.18101703  1
  O  O445  1  0.52231513  0.08127673  0.43257173  1
  O  O446  1  0.52125057  0.08325312  0.68118774  1
  O  O447  1  0.52185486  0.08340699  0.93065645  1
  O  O448  1  0.52258451  0.41727465  0.18417919  1
  O  O449  1  0.52179596  0.41685509  0.43107810  1
  O  O450  1  0.52218437  0.41522153  0.68271868  1
  O  O451  1  0.52221573  0.41858440  0.93293776  1
  O  O452  1  0.52173423  0.74870583  0.18107875  1
  O  O453  1  0.52220785  0.74822695  0.43252920  1
  O  O454  1  0.52259258  0.75149766  0.68240290  1
  O  O455  1  0.52275142  0.74764421  0.93262645  1
  O  O456  1  0.47878753  0.25061405  0.06822909  1
  O  O457  1  0.47806847  0.25134263  0.31667580  1
  O  O458  1  0.47877338  0.24972774  0.56791005  1
  O  O459  1  0.47796545  0.25194510  0.81684955  1
  O  O460  1  0.47760147  0.58250745  0.06521402  1
  O  O461  1  0.47844238  0.58089669  0.31682463  1
  O  O462  1  0.47889486  0.58493439  0.56703345  1
  O  O463  1  0.47926239  0.58316684  0.81808988  1
  O  O464  1  0.47966014  0.91594180  0.06790430  1
  O  O465  1  0.47905416  0.91592373  0.31794892  1
  O  O466  1  0.47810679  0.91788772  0.56625644  1
  O  O467  1  0.47828982  0.91443218  0.81660209  1
  O  O468  1  0.97668420  0.25026834  0.06586572  1
  O  O469  1  0.97737757  0.25113617  0.31658561  1
  O  O470  1  0.97733257  0.24789910  0.56706495  1
  O  O471  1  0.97611964  0.24896931  0.81615770  1
  O  O472  1  0.97764237  0.58474131  0.06714534  1
  O  O473  1  0.97723294  0.58481834  0.31682716  1
  O  O474  1  0.97803633  0.58434429  0.56887588  1
  O  O475  1  0.97770777  0.58520087  0.81752703  1
  O  O476  1  0.97716569  0.91733940  0.06604993  1
  O  O477  1  0.97699483  0.91668305  0.31582238  1
  O  O478  1  0.97658352  0.91660426  0.56636438  1
  O  O479  1  0.97728185  0.91568617  0.81768392  1
  O  O480  1  0.07231273  0.31320340  0.07286634  1
  O  O481  1  0.07221295  0.31462183  0.32402283  1
  O  O482  1  0.07218130  0.31244967  0.57531809  1
  O  O483  1  0.07048327  0.31335282  0.82326845  1
  O  O484  1  0.07281157  0.64835215  0.07442173  1
  O  O485  1  0.07156093  0.64916992  0.32419489  1
  O  O486  1  0.07374991  0.64728802  0.57598967  1
  O  O487  1  0.07297838  0.64833479  0.82463291  1
  O  O488  1  0.07266421  0.98005517  0.07400820  1
  O  O489  1  0.07138553  0.98130353  0.32342096  1
  O  O490  1  0.07103745  0.98081804  0.57346265  1
  O  O491  1  0.07257428  0.97925240  0.82507500  1
  O  O492  1  0.57436211  0.31404869  0.07534350  1
  O  O493  1  0.57328948  0.31433820  0.32336728  1
  O  O494  1  0.57411598  0.31371552  0.57463979  1
  O  O495  1  0.57305300  0.31522371  0.82407873  1
  O  O496  1  0.57239420  0.64632212  0.07331832  1
  O  O497  1  0.57350772  0.64552944  0.32362302  1
  O  O498  1  0.57400950  0.64821254  0.57388775  1
  O  O499  1  0.57477664  0.64635807  0.82556650  1
  O  O500  1  0.57490167  0.97965613  0.07429874  1
  O  O501  1  0.57464719  0.97945881  0.32489670  1
  O  O502  1  0.57300516  0.98129851  0.57424919  1
  O  O503  1  0.57349390  0.97859206  0.82378906  1
  O  O504  1  0.42656174  0.01947102  0.17409074  1
  O  O505  1  0.42687976  0.01846198  0.42553438  1
  O  O506  1  0.42559712  0.01973807  0.67432326  1
  O  O507  1  0.42652081  0.01961307  0.92396627  1
  O  O508  1  0.42793212  0.35312937  0.17599115  1
  O  O509  1  0.42642276  0.35310738  0.42386450  1
  O  O510  1  0.42696448  0.35225102  0.67579253  1
  O  O511  1  0.42715848  0.35409996  0.92593704  1
  O  O512  1  0.42584110  0.68564795  0.17430731  1
  O  O513  1  0.42774925  0.68393287  0.42576032  1
  O  O514  1  0.42721019  0.68748430  0.67527489  1
  O  O515  1  0.42746218  0.68501668  0.92492741  1
  O  O516  1  0.92731433  0.01837210  0.17626507  1
  O  O517  1  0.92829199  0.01985780  0.42768348  1
  O  O518  1  0.92688327  0.02067496  0.67575097  1
  O  O519  1  0.92748669  0.01940313  0.92629891  1
  O  O520  1  0.92683328  0.35154800  0.17569106  1
  O  O521  1  0.92558428  0.35357725  0.42488339  1
  O  O522  1  0.92674675  0.35146587  0.67652787  1
  O  O523  1  0.92665275  0.35182681  0.92600080  1
  O  O524  1  0.92868947  0.68694791  0.17730793  1
  O  O525  1  0.92661286  0.68891985  0.42573191  1
  O  O526  1  0.92791967  0.68728444  0.67769432  1
  O  O527  1  0.92750119  0.68691403  0.92755371  1
  O  O528  1  0.17669856  0.02132976  0.19976599  1
  O  O529  1  0.17641254  0.02102544  0.44895574  1
  O  O530  1  0.17469628  0.01987097  0.69972910  1
  O  O531  1  0.17552945  0.02016787  0.95025201  1
  O  O532  1  0.17541051  0.35356837  0.20033804  1
  O  O533  1  0.17543706  0.35408761  0.44920860  1
  O  O534  1  0.17651548  0.35208667  0.69928786  1
  O  O535  1  0.17725826  0.35272327  0.94789296  1
  O  O536  1  0.17574748  0.68619359  0.19938613  1
  O  O537  1  0.17632734  0.68551339  0.44923458  1
  O  O538  1  0.17725017  0.68709387  0.70023544  1
  O  O539  1  0.17640839  0.68767584  0.94866959  1
  O  O540  1  0.67802401  0.02033497  0.19888047  1
  O  O541  1  0.67867912  0.01942636  0.44899931  1
  O  O542  1  0.67845030  0.01953851  0.69824631  1
  O  O543  1  0.67729838  0.01970751  0.94822453  1
  O  O544  1  0.67731224  0.35368577  0.19968513  1
  O  O545  1  0.67730043  0.35119296  0.44900349  1
  O  O546  1  0.67633724  0.35303303  0.70082925  1
  O  O547  1  0.67768638  0.35187460  0.95051145  1
  O  O548  1  0.67761904  0.68606676  0.19842877  1
  O  O549  1  0.67713713  0.68724766  0.45096893  1
  O  O550  1  0.67795233  0.68831545  0.70073977  1
  O  O551  1  0.67884435  0.68623377  0.94875213  1
  O  O552  1  0.32266711  0.31297506  0.05059634  1
  O  O553  1  0.32271387  0.31243438  0.29942686  1
  O  O554  1  0.32265237  0.31499631  0.54978401  1
  O  O555  1  0.32273060  0.31455970  0.80116497  1
  O  O556  1  0.32315683  0.64627522  0.04844699  1
  O  O557  1  0.32181737  0.64652155  0.30157850  1
  O  O558  1  0.32387419  0.64637471  0.54936309  1
  O  O559  1  0.32372715  0.64548710  0.79958051  1
  O  O560  1  0.32387682  0.97990982  0.04852782  1
  O  O561  1  0.32385120  0.98065618  0.29947996  1
  O  O562  1  0.32221338  0.97920774  0.55009439  1
  O  O563  1  0.32248728  0.97879665  0.79899806  1
  O  O564  1  0.82355732  0.31141947  0.05055401  1
  O  O565  1  0.82186922  0.31346772  0.30187339  1
  O  O566  1  0.82326761  0.31124627  0.55059288  1
  O  O567  1  0.82215889  0.31279513  0.80195285  1
  O  O568  1  0.82253761  0.64702968  0.05213248  1
  O  O569  1  0.82371553  0.64693529  0.29923429  1
  O  O570  1  0.82531193  0.64638310  0.55028602  1
  O  O571  1  0.82378878  0.64861242  0.80213813  1
  O  O572  1  0.82314510  0.98187739  0.05100870  1
  O  O573  1  0.82349172  0.98218284  0.30175435  1
  O  O574  1  0.82183448  0.98115681  0.55297701  1
  O  O575  1  0.82299713  0.98075373  0.80144910  1
  O  O576  1  0.42599946  0.14640501  0.17431163  1
  O  O577  1  0.42728015  0.14576955  0.42503564  1
  O  O578  1  0.42572608  0.14649601  0.67370325  1
  O  O579  1  0.42626335  0.14683882  0.92409564  1
  O  O580  1  0.42724780  0.48058114  0.17681457  1
  O  O581  1  0.42625596  0.47975838  0.42424315  1
  O  O582  1  0.42710477  0.47959265  0.67530832  1
  O  O583  1  0.42685101  0.48104909  0.92538241  1
  O  O584  1  0.42661953  0.81252753  0.17399593  1
  O  O585  1  0.42632985  0.81118205  0.42480629  1
  O  O586  1  0.42757256  0.81458999  0.67515438  1
  O  O587  1  0.42755092  0.81211423  0.92521817  1
  O  O588  1  0.92694879  0.14525684  0.17515082  1
  O  O589  1  0.92763274  0.14721000  0.42640148  1
  O  O590  1  0.92644651  0.14744048  0.67683143  1
  O  O591  1  0.92805366  0.14678179  0.92759768  1
  O  O592  1  0.92666423  0.47878157  0.17406577  1
  O  O593  1  0.92593082  0.48050325  0.42463736  1
  O  O594  1  0.92584895  0.47869752  0.67630793  1
  O  O595  1  0.92664762  0.47894981  0.92531468  1
  O  O596  1  0.92697074  0.81416726  0.17600997  1
  O  O597  1  0.92614883  0.81583293  0.42653661  1
  O  O598  1  0.92786018  0.81459335  0.67838693  1
  O  O599  1  0.92853409  0.81399684  0.92771189  1
  O  O600  1  0.07103747  0.18590613  0.07321952  1
  O  O601  1  0.07274421  0.18751750  0.32405609  1
  O  O602  1  0.07282212  0.18557692  0.57443532  1
  O  O603  1  0.07161915  0.18611876  0.82436060  1
  O  O604  1  0.07296795  0.52125847  0.07488718  1
  O  O605  1  0.07288065  0.52189722  0.32479092  1
  O  O606  1  0.07306782  0.52032791  0.57611848  1
  O  O607  1  0.07281445  0.52122199  0.82596702  1
  O  O608  1  0.07154545  0.85292099  0.07368437  1
  O  O609  1  0.07255862  0.85422247  0.32384355  1
  O  O610  1  0.07203482  0.85362475  0.57347127  1
  O  O611  1  0.07228456  0.85240004  0.82499011  1
  O  O612  1  0.57415647  0.18719614  0.07525072  1
  O  O613  1  0.57329744  0.18704092  0.32398146  1
  O  O614  1  0.57437736  0.18691545  0.57536864  1
  O  O615  1  0.57314835  0.18784179  0.82434723  1
  O  O616  1  0.57277768  0.51893384  0.07296608  1
  O  O617  1  0.57396261  0.51856858  0.32392674  1
  O  O618  1  0.57411100  0.52079924  0.57458253  1
  O  O619  1  0.57464611  0.51974418  0.82548443  1
  O  O620  1  0.57530231  0.85265211  0.07465704  1
  O  O621  1  0.57434442  0.85248760  0.32578482  1
  O  O622  1  0.57360350  0.85421103  0.57419007  1
  O  O623  1  0.57346635  0.85127710  0.82323807  1
  O  O624  1  0.32261984  0.18586377  0.04990776  1
  O  O625  1  0.32299753  0.18543539  0.30106107  1
  O  O626  1  0.32259214  0.18782312  0.55033173  1
  O  O627  1  0.32243363  0.18753469  0.79921958  1
  O  O628  1  0.32329543  0.51943387  0.04941520  1
  O  O629  1  0.32122192  0.51899156  0.30153277  1
  O  O630  1  0.32382577  0.51973914  0.54901445  1
  O  O631  1  0.32287545  0.51815824  0.80055282  1
  O  O632  1  0.32377240  0.85299365  0.04951306  1
  O  O633  1  0.32403853  0.85364607  0.29918785  1
  O  O634  1  0.32255046  0.85187526  0.55006503  1
  O  O635  1  0.32255834  0.85167513  0.80057846  1
  O  O636  1  0.82297260  0.18458287  0.05095617  1
  O  O637  1  0.82317449  0.18607091  0.30183947  1
  O  O638  1  0.82324221  0.18441819  0.55142294  1
  O  O639  1  0.82148127  0.18538380  0.80289098  1
  O  O640  1  0.82255474  0.51949999  0.05109690  1
  O  O641  1  0.82426857  0.52016802  0.29901093  1
  O  O642  1  0.82411861  0.51929703  0.55073893  1
  O  O643  1  0.82442897  0.52142668  0.80123954  1
  O  O644  1  0.82323446  0.85491903  0.05020985  1
  O  O645  1  0.82284113  0.85511178  0.30026011  1
  O  O646  1  0.82277075  0.85395321  0.55280387  1
  O  O647  1  0.82212501  0.85363596  0.80313035  1
  O  O648  1  0.17605848  0.14845463  0.19833349  1
  O  O649  1  0.17618168  0.14836169  0.44907466  1
  O  O650  1  0.17508950  0.14691369  0.70007392  1
  O  O651  1  0.17535234  0.14703945  0.94957896  1
  O  O652  1  0.17540353  0.48037259  0.19972594  1
  O  O653  1  0.17606862  0.48119533  0.44938514  1
  O  O654  1  0.17695139  0.47901144  0.70005268  1
  O  O655  1  0.17743403  0.48019392  0.94775702  1
  O  O656  1  0.17595480  0.81308755  0.20057208  1
  O  O657  1  0.17647971  0.81262111  0.44901799  1
  O  O658  1  0.17650465  0.81422559  0.69828717  1
  O  O659  1  0.17706486  0.81489484  0.94850824  1
  O  O660  1  0.67833999  0.14741818  0.19848878  1
  O  O661  1  0.67781339  0.14641762  0.44861500  1
  O  O662  1  0.67757223  0.14666481  0.69916374  1
  O  O663  1  0.67839226  0.14670591  0.94820602  1
  O  O664  1  0.67768578  0.48075058  0.19901818  1
  O  O665  1  0.67730933  0.47851566  0.44985046  1
  O  O666  1  0.67720871  0.47996935  0.70126272  1
  O  O667  1  0.67756790  0.47902961  0.95028682  1
  O  O668  1  0.67718751  0.81326715  0.19938668  1
  O  O669  1  0.67657233  0.81411270  0.45032794  1
  O  O670  1  0.67775237  0.81525806  0.70048558  1
  O  O671  1  0.67910831  0.81360846  0.94894887  1
