# generated using pymatgen
data_Na2MnFe(PO4)2
_symmetry_space_group_name_H-M   'P 1'
_cell_length_a   22.34338856
_cell_length_b   20.09276088
_cell_length_c   19.44984044
_cell_angle_alpha   90.03048835
_cell_angle_beta   90.00011236
_cell_angle_gamma   90.05666780
_symmetry_Int_Tables_number   1
_chemical_formula_structural   Na2MnFe(PO4)2
_chemical_formula_sum   'Na96 Mn48 Fe48 P96 O384'
_cell_volume   8731.81293056
_cell_formula_units_Z   48
loop_
 _symmetry_equiv_pos_site_id
 _symmetry_equiv_pos_as_xyz
  1  'x, y, z'
loop_
 _atom_site_type_symbol
 _atom_site_label
 _atom_site_symmetry_multiplicity
 _atom_site_fract_x
 _atom_site_fract_y
 _atom_site_fract_z
 _atom_site_occupancy
  Na  Na0  1  0.14060233  0.24915332  0.24349693  1
  Na  Na1  1  0.14027456  0.24884691  0.49309637  1
  Na  Na2  1  0.14089456  0.25106432  0.74293008  1
  Na  Na3  1  0.14069265  0.25028939  0.99345353  1
  Na  Na4  1  0.14057083  0.58403741  0.24352842  1
  Na  Na5  1  0.14029961  0.58218757  0.49506619  1
  Na  Na6  1  0.14018099  0.58332239  0.74438242  1
  Na  Na7  1  0.14072141  0.58396718  0.99264428  1
  Na  Na8  1  0.14067990  0.91719423  0.24320136  1
  Na  Na9  1  0.14093893  0.91710557  0.49341961  1
  Na  Na10  1  0.14055922  0.91711902  0.74416648  1
  Na  Na11  1  0.14060821  0.91722534  0.99406314  1
  Na  Na12  1  0.64033296  0.24869207  0.24261112  1
  Na  Na13  1  0.64041602  0.25022665  0.49405231  1
  Na  Na14  1  0.63991192  0.24914491  0.74476709  1
  Na  Na15  1  0.63969286  0.24957172  0.99317240  1
  Na  Na16  1  0.63986238  0.58238657  0.24425888  1
  Na  Na17  1  0.63997599  0.58368316  0.49336677  1
  Na  Na18  1  0.64014916  0.58338356  0.74443967  1
  Na  Na19  1  0.64029603  0.58338452  0.99357701  1
  Na  Na20  1  0.64032205  0.91653806  0.24284727  1
  Na  Na21  1  0.63981831  0.91631450  0.49476731  1
  Na  Na22  1  0.63968463  0.91598865  0.74364581  1
  Na  Na23  1  0.63968932  0.91715295  0.99344956  1
  Na  Na24  1  0.36021784  0.08372463  0.00752806  1
  Na  Na25  1  0.36039472  0.08345448  0.25598438  1
  Na  Na26  1  0.35966955  0.08340275  0.50567150  1
  Na  Na27  1  0.35995424  0.08377602  0.75707662  1
  Na  Na28  1  0.35963262  0.41711103  0.00726440  1
  Na  Na29  1  0.35955779  0.41812720  0.25602460  1
  Na  Na30  1  0.35974255  0.41648118  0.50656626  1
  Na  Na31  1  0.35930008  0.41774379  0.75751229  1
  Na  Na32  1  0.35912418  0.75076992  0.00622479  1
  Na  Na33  1  0.35928102  0.75066790  0.25593508  1
  Na  Na34  1  0.35941563  0.75017937  0.50652379  1
  Na  Na35  1  0.35934681  0.75007741  0.75740726  1
  Na  Na36  1  0.86010784  0.08350554  0.00695875  1
  Na  Na37  1  0.86005814  0.08288355  0.25530508  1
  Na  Na38  1  0.85985304  0.08267457  0.50603413  1
  Na  Na39  1  0.85942032  0.08242458  0.75625721  1
  Na  Na40  1  0.85938669  0.41669769  0.00465842  1
  Na  Na41  1  0.85948022  0.41627930  0.25575093  1
  Na  Na42  1  0.86024101  0.41721737  0.50637245  1
  Na  Na43  1  0.86002846  0.41650516  0.75643945  1
  Na  Na44  1  0.85950207  0.75063803  0.00599062  1
  Na  Na45  1  0.85942429  0.74926770  0.25575325  1
  Na  Na46  1  0.85918888  0.75060301  0.50605489  1
  Na  Na47  1  0.85950549  0.74910476  0.75634533  1
  Na  Na48  1  0.11032627  0.08386682  0.11884258  1
  Na  Na49  1  0.11052617  0.08304857  0.36821701  1
  Na  Na50  1  0.11044210  0.08410912  0.61728620  1
  Na  Na51  1  0.10969219  0.08451152  0.86938193  1
  Na  Na52  1  0.10981096  0.41742088  0.11766786  1
  Na  Na53  1  0.10957474  0.41542797  0.36941353  1
  Na  Na54  1  0.10964402  0.41617777  0.61933652  1
  Na  Na55  1  0.11023090  0.41744733  0.86763371  1
  Na  Na56  1  0.10978287  0.75108181  0.11839943  1
  Na  Na57  1  0.10988774  0.74936363  0.36885002  1
  Na  Na58  1  0.10962462  0.74814783  0.61976256  1
  Na  Na59  1  0.11018621  0.74908771  0.86851315  1
  Na  Na60  1  0.60966059  0.08328610  0.11752679  1
  Na  Na61  1  0.60963374  0.08325974  0.36792797  1
  Na  Na62  1  0.60940756  0.08178451  0.61980889  1
  Na  Na63  1  0.60911585  0.08234392  0.86931578  1
  Na  Na64  1  0.60893915  0.41619788  0.11806623  1
  Na  Na65  1  0.60915114  0.41704632  0.36899910  1
  Na  Na66  1  0.60940950  0.41645669  0.61976593  1
  Na  Na67  1  0.60975100  0.41546113  0.86932770  1
  Na  Na68  1  0.60938452  0.74994988  0.11812747  1
  Na  Na69  1  0.60920375  0.75086480  0.36887587  1
  Na  Na70  1  0.60918064  0.75042639  0.61899238  1
  Na  Na71  1  0.60927403  0.75171731  0.86872374  1
  Na  Na72  1  0.39052921  0.24981245  0.13150848  1
  Na  Na73  1  0.39044013  0.24967412  0.38064389  1
  Na  Na74  1  0.39012535  0.24863749  0.63199666  1
  Na  Na75  1  0.39060063  0.24983070  0.88265167  1
  Na  Na76  1  0.38948792  0.58329263  0.13107304  1
  Na  Na77  1  0.38978632  0.58387859  0.38128503  1
  Na  Na78  1  0.39025082  0.58327468  0.63180914  1
  Na  Na79  1  0.38989451  0.58342838  0.88316837  1
  Na  Na80  1  0.39029267  0.91839327  0.13108169  1
  Na  Na81  1  0.39038223  0.91792244  0.38050149  1
  Na  Na82  1  0.39009331  0.91732840  0.63192182  1
  Na  Na83  1  0.39026447  0.91757334  0.88166990  1
  Na  Na84  1  0.89030251  0.24911508  0.13000306  1
  Na  Na85  1  0.89126376  0.24997867  0.38079711  1
  Na  Na86  1  0.89079198  0.25063459  0.63068021  1
  Na  Na87  1  0.89069274  0.25008514  0.88096545  1
  Na  Na88  1  0.89004949  0.58501856  0.13052552  1
  Na  Na89  1  0.89031623  0.58199189  0.38126359  1
  Na  Na90  1  0.89065434  0.58151814  0.63151842  1
  Na  Na91  1  0.89018429  0.58299352  0.88080264  1
  Na  Na92  1  0.89055876  0.91790415  0.13131167  1
  Na  Na93  1  0.89015279  0.91632627  0.38112092  1
  Na  Na94  1  0.89011110  0.91580996  0.63157381  1
  Na  Na95  1  0.89040631  0.91648037  0.88155092  1
  Mn  Mn96  1  -0.00014093  0.16741784  0.74934053  1
  Mn  Mn97  1  0.00052622  0.66750865  0.25069562  1
  Mn  Mn98  1  0.24920559  0.00023122  0.87502564  1
  Mn  Mn99  1  0.00066604  0.83219730  0.75119792  1
  Mn  Mn100  1  0.24990183  0.83377488  0.12542681  1
  Mn  Mn101  1  0.49981094  0.33368054  0.25005023  1
  Mn  Mn102  1  0.49943879  0.66645828  0.24954853  1
  Mn  Mn103  1  0.49947088  0.83466029  0.24909833  1
  Mn  Mn104  1  0.74978840  0.66653585  0.37523521  1
  Mn  Mn105  1  0.50000362  0.66743226  0.75070989  1
  Mn  Mn106  1  0.24956659  0.50066369  0.37511660  1
  Mn  Mn107  1  0.00000366  0.33235037  0.24925820  1
  Mn  Mn108  1  0.24993541  0.66593579  0.62664757  1
  Mn  Mn109  1  0.74935750  0.66731441  0.87449480  1
  Mn  Mn110  1  0.49950830  0.66686338  0.50018104  1
  Mn  Mn111  1  0.74982369  0.16585523  0.37479298  1
  Mn  Mn112  1  0.74936874  0.50002293  0.62517423  1
  Mn  Mn113  1  -0.00060874  0.66505780  0.49952069  1
  Mn  Mn114  1  0.24929584  0.83379893  0.62484660  1
  Mn  Mn115  1  0.75057803  0.33364331  0.37405045  1
  Mn  Mn116  1  0.75019351  0.66751872  0.62446556  1
  Mn  Mn117  1  0.74928305  -0.00125665  0.37514413  1
  Mn  Mn118  1  0.74936942  0.50026760  0.12468224  1
  Mn  Mn119  1  0.00022109  0.00037704  0.74995152  1
  Mn  Mn120  1  0.49963258  0.66705120  0.00013989  1
  Mn  Mn121  1  0.00088556  0.00005108  0.49967275  1
  Mn  Mn122  1  0.74976326  0.83305040  0.12504428  1
  Mn  Mn123  1  0.74997574  -0.00097034  0.87536728  1
  Mn  Mn124  1  0.24990922  0.16748296  0.87513365  1
  Mn  Mn125  1  0.74951176  0.33349897  0.62488951  1
  Mn  Mn126  1  0.25038265  0.33326756  0.62501546  1
  Mn  Mn127  1  0.74931581  0.33268461  0.12509033  1
  Mn  Mn128  1  0.49909843  0.33222125  0.75046097  1
  Mn  Mn129  1  0.50027852  0.33360472  0.50046052  1
  Mn  Mn130  1  0.00003384  0.49984120  0.24951723  1
  Mn  Mn131  1  0.25000657  0.83364829  0.37509332  1
  Mn  Mn132  1  0.49972250  0.49972664  0.75075846  1
  Mn  Mn133  1  0.00006971  0.83355801  -0.00020011  1
  Mn  Mn134  1  0.74947257  0.16644521  0.87510450  1
  Mn  Mn135  1  0.50011148  0.16619957  0.50040037  1
  Mn  Mn136  1  0.00020766  0.83256046  0.50058841  1
  Mn  Mn137  1  -0.00025322  0.50097995  -0.00118906  1
  Mn  Mn138  1  0.24994574  0.33247549  0.37530036  1
  Mn  Mn139  1  0.24983421  0.33373556  0.12501759  1
  Mn  Mn140  1  0.00008400  0.33306846  -0.00072290  1
  Mn  Mn141  1  0.49919114  -0.00033885  0.50004896  1
  Mn  Mn142  1  0.75061353  0.16579372  0.62501852  1
  Mn  Mn143  1  0.00027103  0.00051832  0.25026861  1
  Fe  Fe144  1  0.25036253  0.00058698  0.12479501  1
  Fe  Fe145  1  0.74971381  -0.00098262  0.62516843  1
  Fe  Fe146  1  0.49957843  0.50003733  0.24997457  1
  Fe  Fe147  1  0.74952518  0.83344654  0.62514797  1
  Fe  Fe148  1  0.00009121  0.49945146  0.74979938  1
  Fe  Fe149  1  0.25034919  0.16641677  0.62432444  1
  Fe  Fe150  1  0.49951879  0.83358822  0.49996536  1
  Fe  Fe151  1  0.75046248  0.33304990  0.87498442  1
  Fe  Fe152  1  -0.00048935  0.66557893  0.74949048  1
  Fe  Fe153  1  0.75015873  -0.00065083  0.12470083  1
  Fe  Fe154  1  0.25021333  0.50010075  0.62585702  1
  Fe  Fe155  1  0.25035122  0.00076583  0.37442368  1
  Fe  Fe156  1  0.50027876  0.16591965  0.75135719  1
  Fe  Fe157  1  0.50084456  0.00058489  0.24941188  1
  Fe  Fe158  1  0.74981706  0.50025173  0.87507854  1
  Fe  Fe159  1  0.25037143  0.00062776  0.62449673  1
  Fe  Fe160  1  0.24980657  0.66675016  0.87547546  1
  Fe  Fe161  1  0.49991940  0.00023945  -0.00039120  1
  Fe  Fe162  1  0.75001208  0.50007772  0.37461644  1
  Fe  Fe163  1  0.00039365  0.00078833  0.00065975  1
  Fe  Fe164  1  0.24956835  0.50046600  0.12487239  1
  Fe  Fe165  1  0.49957216  -0.00030238  0.75087188  1
  Fe  Fe166  1  0.25056929  0.16605125  0.37446269  1
  Fe  Fe167  1  0.74974461  0.83321659  0.37481476  1
  Fe  Fe168  1  0.49986681  0.33302264  0.00070393  1
  Fe  Fe169  1  -0.00007231  0.83393014  0.24951327  1
  Fe  Fe170  1  0.00051619  0.16656263  0.24975199  1
  Fe  Fe171  1  0.25062279  0.16682726  0.12503518  1
  Fe  Fe172  1  0.00050271  0.49868569  0.50081456  1
  Fe  Fe173  1  0.00005314  0.66691786  -0.00048276  1
  Fe  Fe174  1  0.49932402  0.50004057  0.50034366  1
  Fe  Fe175  1  0.74951354  0.66654244  0.12475162  1
  Fe  Fe176  1  0.74989615  0.83353736  0.87514883  1
  Fe  Fe177  1  0.25051081  0.33399092  0.87489639  1
  Fe  Fe178  1  0.25019752  0.50043492  0.87584534  1
  Fe  Fe179  1  0.00074251  0.16694342  -0.00031952  1
  Fe  Fe180  1  0.75033909  0.16605214  0.12423063  1
  Fe  Fe181  1  -0.00003364  0.16684496  0.49966864  1
  Fe  Fe182  1  0.49911380  0.83391674  0.74992474  1
  Fe  Fe183  1  0.00030070  0.33317564  0.49996350  1
  Fe  Fe184  1  0.50021491  0.49993101  0.00046472  1
  Fe  Fe185  1  0.00063245  0.33310587  0.74930915  1
  Fe  Fe186  1  0.25001640  0.66665945  0.37519905  1
  Fe  Fe187  1  0.24952798  0.66703522  0.12467654  1
  Fe  Fe188  1  0.50047442  0.16695482  0.24954999  1
  Fe  Fe189  1  0.49965548  0.16610161  0.00052795  1
  Fe  Fe190  1  0.25036447  0.83381430  0.87533043  1
  Fe  Fe191  1  0.49954818  0.83417829  -0.00031681  1
  P  P192  1  0.04273692  0.24874561  0.10232861  1
  P  P193  1  0.04255839  0.24847464  0.35282688  1
  P  P194  1  0.04173524  0.25039770  0.60140072  1
  P  P195  1  0.04284757  0.25113836  0.85211495  1
  P  P196  1  0.04241523  0.58520366  0.10180800  1
  P  P197  1  0.04295967  0.58224321  0.35358948  1
  P  P198  1  0.04179784  0.58119755  0.60342417  1
  P  P199  1  0.04125979  0.58351928  0.85138670  1
  P  P200  1  0.04226700  0.91813060  0.10278978  1
  P  P201  1  0.04270074  0.91551162  0.35220140  1
  P  P202  1  0.04348683  0.91624650  0.60343923  1
  P  P203  1  0.04289636  0.91734662  0.85406656  1
  P  P204  1  0.54115060  0.24943302  0.10207821  1
  P  P205  1  0.54259516  0.24920427  0.35212931  1
  P  P206  1  0.54281705  0.24931419  0.60401291  1
  P  P207  1  0.54164579  0.24825629  0.85400627  1
  P  P208  1  0.54191328  0.58204415  0.10280053  1
  P  P209  1  0.54137146  0.58222268  0.35283172  1
  P  P210  1  0.54227650  0.58233426  0.60263270  1
  P  P211  1  0.54235613  0.58332015  0.85420606  1
  P  P212  1  0.54120740  0.91746434  0.10131782  1
  P  P213  1  0.54236940  0.91802730  0.35217703  1
  P  P214  1  0.54128922  0.91528990  0.60319115  1
  P  P215  1  0.54086656  0.91659423  0.85231376  1
  P  P216  1  0.45933862  0.08358511  0.14751769  1
  P  P217  1  0.45771662  0.08350546  0.39585798  1
  P  P218  1  0.45858859  0.08310846  0.64940131  1
  P  P219  1  0.45839799  0.08333868  0.89824977  1
  P  P220  1  0.45776158  0.41788460  0.14689593  1
  P  P221  1  0.45748884  0.41806995  0.39742970  1
  P  P222  1  0.45668963  0.41657083  0.64714981  1
  P  P223  1  0.45865663  0.41633644  0.89928678  1
  P  P224  1  0.45699291  0.75069958  0.14607538  1
  P  P225  1  0.45729634  0.75163666  0.39742933  1
  P  P226  1  0.45718316  0.75133059  0.64761130  1
  P  P227  1  0.45761026  0.75212685  0.89733057  1
  P  P228  1  0.95854220  0.08473175  0.14664075  1
  P  P229  1  0.95828578  0.08462339  0.39711099  1
  P  P230  1  0.95741262  0.08382395  0.64606711  1
  P  P231  1  0.95849327  0.08379171  0.89849673  1
  P  P232  1  0.95703543  0.41651193  0.14624451  1
  P  P233  1  0.95882079  0.41600878  0.39845389  1
  P  P234  1  0.95874634  0.41605564  0.64780518  1
  P  P235  1  0.95784399  0.41666440  0.89533196  1
  P  P236  1  0.95795516  0.75150799  0.14717345  1
  P  P237  1  0.95709357  0.75005565  0.39654400  1
  P  P238  1  0.95756465  0.74816100  0.64790774  1
  P  P239  1  0.95789162  0.74833591  0.89706000  1
  P  P240  1  0.20935108  0.08342056  0.22698569  1
  P  P241  1  0.20891115  0.08336948  0.47682607  1
  P  P242  1  0.20879798  0.08386539  0.72615514  1
  P  P243  1  0.20780569  0.08384708  0.97900797  1
  P  P244  1  0.20748301  0.41815786  0.22723173  1
  P  P245  1  0.20761497  0.41642213  0.47859109  1
  P  P246  1  0.20848411  0.41802572  0.72847502  1
  P  P247  1  0.20870934  0.41707358  0.97688726  1
  P  P248  1  0.20783453  0.74892415  0.22775131  1
  P  P249  1  0.20771894  0.74860606  0.47768134  1
  P  P250  1  0.20745125  0.75034615  0.72950594  1
  P  P251  1  0.20891328  0.75032646  0.97691898  1
  P  P252  1  0.70874479  0.08258304  0.22589466  1
  P  P253  1  0.70697144  0.08218829  0.47864656  1
  P  P254  1  0.70779022  0.08136398  0.72759871  1
  P  P255  1  0.70744387  0.08289700  0.97898691  1
  P  P256  1  0.70671365  0.41682601  0.22819735  1
  P  P257  1  0.70766464  0.41802334  0.47693198  1
  P  P258  1  0.70723268  0.41641789  0.72946968  1
  P  P259  1  0.70862082  0.41634198  0.97642316  1
  P  P260  1  0.70727188  0.74840556  0.22749650  1
  P  P261  1  0.70742158  0.75191488  0.47767345  1
  P  P262  1  0.70754874  0.75139359  0.72766428  1
  P  P263  1  0.70726020  0.75141910  0.97762030  1
  P  P264  1  0.29225921  0.24963948  0.02254392  1
  P  P265  1  0.29215360  0.24862719  0.27191714  1
  P  P266  1  0.29249926  0.24819362  0.52209702  1
  P  P267  1  0.29257832  0.25152638  0.77251947  1
  P  P268  1  0.29079618  0.58369777  0.02284858  1
  P  P269  1  0.29193794  0.58515918  0.27180642  1
  P  P270  1  0.29227103  0.58236366  0.52314125  1
  P  P271  1  0.29158995  0.58307692  0.77422663  1
  P  P272  1  0.29205343  0.91769543  0.02241150  1
  P  P273  1  0.29213894  0.91846189  0.27214213  1
  P  P274  1  0.29215132  0.91838753  0.52206590  1
  P  P275  1  0.29203787  0.91624950  0.77249958  1
  P  P276  1  0.79175448  0.24919313  0.02186812  1
  P  P277  1  0.79284188  0.24874891  0.27095333  1
  P  P278  1  0.79290674  0.25000422  0.52166451  1
  P  P279  1  0.79240053  0.25061765  0.77265164  1
  P  P280  1  0.79175115  0.58454784  0.02179087  1
  P  P281  1  0.79226366  0.58234424  0.27210993  1
  P  P282  1  0.79272713  0.58328581  0.52139649  1
  P  P283  1  0.79202457  0.58237947  0.77264997  1
  P  P284  1  0.79234730  0.91725562  0.02240893  1
  P  P285  1  0.79212939  0.91523823  0.27207185  1
  P  P286  1  0.79160497  0.91609798  0.52329949  1
  P  P287  1  0.79211465  0.91489159  0.77200090  1
  O  O288  1  0.03744134  0.24866295  0.18225339  1
  O  O289  1  0.03706700  0.24878666  0.43268702  1
  O  O290  1  0.03679398  0.25087006  0.68137738  1
  O  O291  1  0.03775874  0.25035060  0.93203939  1
  O  O292  1  0.03763373  0.58487831  0.18177197  1
  O  O293  1  0.03761168  0.58136594  0.43353618  1
  O  O294  1  0.03619363  0.58153676  0.68330894  1
  O  O295  1  0.03622294  0.58437090  0.93133788  1
  O  O296  1  0.03708877  0.91742822  0.18274944  1
  O  O297  1  0.03793615  0.91586954  0.43219767  1
  O  O298  1  0.03847445  0.91630554  0.68344191  1
  O  O299  1  0.03736307  0.91809096  0.93401221  1
  O  O300  1  0.53637663  0.24973100  0.18206538  1
  O  O301  1  0.53779146  0.24942587  0.43211761  1
  O  O302  1  0.53749474  0.24891567  0.68397771  1
  O  O303  1  0.53617703  0.24847852  0.93387422  1
  O  O304  1  0.53652769  0.58193606  0.18275030  1
  O  O305  1  0.53605960  0.58222769  0.43278800  1
  O  O306  1  0.53715678  0.58296318  0.68263204  1
  O  O307  1  0.53702489  0.58300028  0.93414895  1
  O  O308  1  0.53651164  0.91838682  0.18126574  1
  O  O309  1  0.53700728  0.91733530  0.43206845  1
  O  O310  1  0.53596873  0.91527242  0.68304064  1
  O  O311  1  0.53604532  0.91653324  0.93221038  1
  O  O312  1  0.46417662  0.08387359  0.06759639  1
  O  O313  1  0.46331545  0.08364672  0.31600460  1
  O  O314  1  0.46320247  0.08284252  0.56941599  1
  O  O315  1  0.46328116  0.08313033  0.81837807  1
  O  O316  1  0.46333645  0.41755425  0.06703450  1
  O  O317  1  0.46288281  0.41817682  0.31745360  1
  O  O318  1  0.46192714  0.41719100  0.56719762  1
  O  O319  1  0.46293253  0.41587924  0.81927580  1
  O  O320  1  0.46238112  0.75112817  0.06615637  1
  O  O321  1  0.46253424  0.75121480  0.31747176  1
  O  O322  1  0.46220878  0.75107126  0.56761133  1
  O  O323  1  0.46298735  0.75222453  0.81736653  1
  O  O324  1  0.96411092  0.08425305  0.06676843  1
  O  O325  1  0.96357269  0.08461122  0.31714596  1
  O  O326  1  0.96265186  0.08415905  0.56612490  1
  O  O327  1  0.96325085  0.08375508  0.81845542  1
  O  O328  1  0.96201540  0.41662608  0.06627716  1
  O  O329  1  0.96358403  0.41583586  0.31846349  1
  O  O330  1  0.96396467  0.41620329  0.56788655  1
  O  O331  1  0.96343652  0.41655202  0.81546420  1
  O  O332  1  0.96316054  0.75098780  0.06722328  1
  O  O333  1  0.96242944  0.75096548  0.31660175  1
  O  O334  1  0.96265577  0.74830885  0.56795398  1
  O  O335  1  0.96316938  0.74788282  0.81714681  1
  O  O336  1  0.21343898  0.08394129  0.05885358  1
  O  O337  1  0.21447376  0.08343011  0.30691399  1
  O  O338  1  0.21405398  0.08345587  0.55674579  1
  O  O339  1  0.21324203  0.08403426  0.80616722  1
  O  O340  1  0.21350577  0.41738603  0.05689123  1
  O  O341  1  0.21239288  0.41782998  0.30717276  1
  O  O342  1  0.21298003  0.41654265  0.55849569  1
  O  O343  1  0.21406458  0.41764285  0.80835141  1
  O  O344  1  0.21374273  0.74965952  0.05690384  1
  O  O345  1  0.21317588  0.74883871  0.30767712  1
  O  O346  1  0.21280196  0.74904783  0.55765702  1
  O  O347  1  0.21288625  0.75068464  0.80938937  1
  O  O348  1  0.71275296  0.08297897  0.05888239  1
  O  O349  1  0.71319131  0.08237916  0.30594824  1
  O  O350  1  0.71224222  0.08164222  0.55857314  1
  O  O351  1  0.71296770  0.08166132  0.80756103  1
  O  O352  1  0.71332082  0.41636865  0.05643662  1
  O  O353  1  0.71201746  0.41728632  0.30810625  1
  O  O354  1  0.71248876  0.41770411  0.55696339  1
  O  O355  1  0.71288192  0.41633279  0.80935501  1
  O  O356  1  0.71250355  0.75057005  0.05752643  1
  O  O357  1  0.71236727  0.74897046  0.30740985  1
  O  O358  1  0.71275616  0.75215769  0.55763347  1
  O  O359  1  0.71260683  0.75161473  0.80762825  1
  O  O360  1  0.28678113  0.24875908  0.19197085  1
  O  O361  1  0.28732630  0.24790415  0.44213985  1
  O  O362  1  0.28762792  0.25112361  0.69261279  1
  O  O363  1  0.28723299  0.25024317  0.94260438  1
  O  O364  1  0.28636519  0.58506710  0.19194324  1
  O  O365  1  0.28711305  0.58311065  0.44322005  1
  O  O366  1  0.28699419  0.58274951  0.69426551  1
  O  O367  1  0.28586123  0.58324137  0.94291859  1
  O  O368  1  0.28676394  0.91843710  0.19222123  1
  O  O369  1  0.28687135  0.91847111  0.44210264  1
  O  O370  1  0.28703286  0.91673936  0.69256672  1
  O  O371  1  0.28651631  0.91694885  0.94252349  1
  O  O372  1  0.78739035  0.24830013  0.19099302  1
  O  O373  1  0.78790888  0.24997621  0.44168496  1
  O  O374  1  0.78743924  0.25032246  0.69268085  1
  O  O375  1  0.78665971  0.24995219  0.94190377  1
  O  O376  1  0.78679222  0.58313907  0.19217858  1
  O  O377  1  0.78759691  0.58280381  0.44142800  1
  O  O378  1  0.78704171  0.58277400  0.69271364  1
  O  O379  1  0.78629350  0.58397494  0.94186025  1
  O  O380  1  0.78689256  0.91604224  0.19216873  1
  O  O381  1  0.78654896  0.91562842  0.44330696  1
  O  O382  1  0.78663160  0.91523921  0.69213089  1
  O  O383  1  0.78750372  0.91654530  0.94246966  1
  O  O384  1  0.22803398  0.24922183  0.05821586  1
  O  O385  1  0.22801073  0.24819891  0.30789236  1
  O  O386  1  0.22825803  0.24828489  0.55787282  1
  O  O387  1  0.22820513  0.25197889  0.80796450  1
  O  O388  1  0.22674089  0.58395036  0.05903960  1
  O  O389  1  0.22782265  0.58543629  0.30813453  1
  O  O390  1  0.22801705  0.58172523  0.55900415  1
  O  O391  1  0.22732146  0.58262500  0.80986764  1
  O  O392  1  0.22794856  0.91841966  0.05850897  1
  O  O393  1  0.22800719  0.91832528  0.30816984  1
  O  O394  1  0.22791968  0.91870650  0.55790329  1
  O  O395  1  0.22774206  0.91549288  0.80815904  1
  O  O396  1  0.72751595  0.24850668  0.05754425  1
  O  O397  1  0.72849851  0.24950310  0.30629102  1
  O  O398  1  0.72847849  0.24947017  0.55673217  1
  O  O399  1  0.72801471  0.25100104  0.80794910  1
  O  O400  1  0.72751209  0.58487329  0.05766513  1
  O  O401  1  0.72803332  0.58170331  0.30805833  1
  O  O402  1  0.72831735  0.58380494  0.55656735  1
  O  O403  1  0.72768194  0.58225446  0.80804514  1
  O  O404  1  0.72798036  0.91744457  0.05779262  1
  O  O405  1  0.72777082  0.91458932  0.30767057  1
  O  O406  1  0.72738113  0.91664645  0.55928163  1
  O  O407  1  0.72787037  0.91454237  0.80802033  1
  O  O408  1  0.27337663  0.08311152  0.19050787  1
  O  O409  1  0.27296760  0.08328704  0.44039969  1
  O  O410  1  0.27314450  0.08391988  0.69074793  1
  O  O411  1  0.27190473  0.08368718  0.94305229  1
  O  O412  1  0.27185546  0.41829804  0.19191862  1
  O  O413  1  0.27179940  0.41654758  0.44290020  1
  O  O414  1  0.27251901  0.41824744  0.69211760  1
  O  O415  1  0.27295709  0.41726542  0.94108675  1
  O  O416  1  0.27198566  0.74900647  0.19177957  1
  O  O417  1  0.27197981  0.74866059  0.44195964  1
  O  O418  1  0.27158693  0.75052430  0.69361444  1
  O  O419  1  0.27298621  0.75080152  0.94090962  1
  O  O420  1  0.77303334  0.08275273  0.19040597  1
  O  O421  1  0.77132443  0.08226824  0.44330836  1
  O  O422  1  0.77206084  0.08072362  0.69194307  1
  O  O423  1  0.77166983  0.08301199  0.94334722  1
  O  O424  1  0.77106842  0.41662090  0.19298232  1
  O  O425  1  0.77211154  0.41843127  0.44163291  1
  O  O426  1  0.77142769  0.41658464  0.69361537  1
  O  O427  1  0.77280186  0.41644756  0.94067386  1
  O  O428  1  0.77157674  0.74828268  0.19179882  1
  O  O429  1  0.77165070  0.75163049  0.44184450  1
  O  O430  1  0.77186839  0.75153401  0.69212099  1
  O  O431  1  0.77152207  0.75174060  0.94180865  1
  O  O432  1  0.02259100  0.08505226  0.18306463  1
  O  O433  1  0.02256092  0.08476004  0.43283720  1
  O  O434  1  0.02183754  0.08390412  0.68124547  1
  O  O435  1  0.02279483  0.08405159  0.93411750  1
  O  O436  1  0.02154871  0.41635369  0.18107617  1
  O  O437  1  0.02300667  0.41613550  0.43432260  1
  O  O438  1  0.02278444  0.41621345  0.68426484  1
  O  O439  1  0.02198621  0.41685685  0.93128200  1
  O  O440  1  0.02222029  0.75207835  0.18297393  1
  O  O441  1  0.02144635  0.74923319  0.43183518  1
  O  O442  1  0.02193729  0.74779671  0.68333230  1
  O  O443  1  0.02216116  0.74867077  0.93277405  1
  O  O444  1  0.52339531  0.08318392  0.18383287  1
  O  O445  1  0.52181509  0.08299938  0.43185701  1
  O  O446  1  0.52276926  0.08345891  0.68517725  1
  O  O447  1  0.52249714  0.08387504  0.93435195  1
  O  O448  1  0.52182724  0.41797376  0.18319830  1
  O  O449  1  0.52168523  0.41841697  0.43343010  1
  O  O450  1  0.52103554  0.41602015  0.68246441  1
  O  O451  1  0.52298874  0.41677351  0.93454671  1
  O  O452  1  0.52125809  0.75054197  0.18152508  1
  O  O453  1  0.52153201  0.75166517  0.43321772  1
  O  O454  1  0.52153871  0.75150065  0.68309641  1
  O  O455  1  0.52178890  0.75196361  0.93322308  1
  O  O456  1  0.47700479  0.24919061  0.06622404  1
  O  O457  1  0.47821881  0.24897651  0.31678530  1
  O  O458  1  0.47848692  0.24982320  0.56860855  1
  O  O459  1  0.47753253  0.24752463  0.81775971  1
  O  O460  1  0.47767386  0.58208639  0.06703454  1
  O  O461  1  0.47718898  0.58231846  0.31687360  1
  O  O462  1  0.47788564  0.58204701  0.56717821  1
  O  O463  1  0.47801429  0.58374169  0.81889477  1
  O  O464  1  0.47698888  0.91671794  0.06558419  1
  O  O465  1  0.47812413  0.91918861  0.31632165  1
  O  O466  1  0.47716959  0.91503459  0.56692372  1
  O  O467  1  0.47676585  0.91670801  0.81619534  1
  O  O468  1  0.97849015  0.24839874  0.06650399  1
  O  O469  1  0.97842132  0.24785912  0.31652670  1
  O  O470  1  0.97759707  0.25012671  0.56545043  1
  O  O471  1  0.97848745  0.25175845  0.81659481  1
  O  O472  1  0.97792672  0.58522886  0.06667696  1
  O  O473  1  0.97863252  0.58305522  0.31816952  1
  O  O474  1  0.97775561  0.58071583  0.56704448  1
  O  O475  1  0.97712169  0.58298491  0.81537569  1
  O  O476  1  0.97808081  0.91808494  0.06698969  1
  O  O477  1  0.97825908  0.91547610  0.31698361  1
  O  O478  1  0.97899153  0.91664228  0.56856716  1
  O  O479  1  0.97864568  0.91681364  0.81851916  1
  O  O480  1  0.07349295  0.31275688  0.07470112  1
  O  O481  1  0.07335120  0.31232201  0.32467406  1
  O  O482  1  0.07268499  0.31395635  0.57299627  1
  O  O483  1  0.07376462  0.31463995  0.82374917  1
  O  O484  1  0.07298692  0.64883192  0.07323686  1
  O  O485  1  0.07419977  0.64593323  0.32605187  1
  O  O486  1  0.07290414  0.64484322  0.57536711  1
  O  O487  1  0.07217490  0.64695748  0.82268756  1
  O  O488  1  0.07278165  0.98204271  0.07473470  1
  O  O489  1  0.07373714  0.97921971  0.32437087  1
  O  O490  1  0.07473044  0.97954498  0.57506373  1
  O  O491  1  0.07416187  0.98053842  0.82539622  1
  O  O492  1  0.57148318  0.31348972  0.07359636  1
  O  O493  1  0.57350112  0.31295104  0.32432327  1
  O  O494  1  0.57400169  0.31285481  0.57586932  1
  O  O495  1  0.57240167  0.31203934  0.82585164  1
  O  O496  1  0.57298294  0.64586497  0.07524944  1
  O  O497  1  0.57246759  0.64611581  0.32530046  1
  O  O498  1  0.57322656  0.64604425  0.57464254  1
  O  O499  1  0.57352997  0.64693085  0.82628110  1
  O  O500  1  0.57165511  0.98108521  0.07223833  1
  O  O501  1  0.57374194  0.98129681  0.32381253  1
  O  O502  1  0.57231366  0.97905954  0.57535709  1
  O  O503  1  0.57156663  0.98045417  0.82386405  1
  O  O504  1  0.42816226  0.02005779  0.17568876  1
  O  O505  1  0.42614322  0.02031146  0.42430241  1
  O  O506  1  0.42821390  0.01914458  0.67769431  1
  O  O507  1  0.42808369  0.01938533  0.92704903  1
  O  O508  1  0.42647362  0.35430319  0.17495740  1
  O  O509  1  0.42686077  0.35388235  0.42484309  1
  O  O510  1  0.42547103  0.35298811  0.67500189  1
  O  O511  1  0.42840938  0.35240299  0.92790930  1
  O  O512  1  0.42595134  0.68706456  0.17399049  1
  O  O513  1  0.42609148  0.68810740  0.42536340  1
  O  O514  1  0.42635815  0.68747697  0.67568681  1
  O  O515  1  0.42645493  0.68831156  0.92478001  1
  O  O516  1  0.92739335  0.02112678  0.17484253  1
  O  O517  1  0.92738968  0.02058842  0.42452787  1
  O  O518  1  0.92654327  0.02018187  0.67428621  1
  O  O519  1  0.92787715  0.01999619  0.92675050  1
  O  O520  1  0.92605280  0.35297063  0.17439860  1
  O  O521  1  0.92815253  0.35217318  0.42658320  1
  O  O522  1  0.92801331  0.35222114  0.67598549  1
  O  O523  1  0.92653694  0.35338612  0.92380188  1
  O  O524  1  0.92692645  0.68794624  0.17530002  1
  O  O525  1  0.92576752  0.68639030  0.42401336  1
  O  O526  1  0.92657040  0.68458927  0.67600273  1
  O  O527  1  0.92705105  0.68505140  0.92605127  1
  O  O528  1  0.17805141  0.01994636  0.19866168  1
  O  O529  1  0.17782336  0.01980658  0.44836825  1
  O  O530  1  0.17825288  0.01997377  0.69801967  1
  O  O531  1  0.17631663  0.02053939  0.95072361  1
  O  O532  1  0.17642423  0.35443314  0.19942105  1
  O  O533  1  0.17681926  0.35262180  0.45044354  1
  O  O534  1  0.17723793  0.35452244  0.70020448  1
  O  O535  1  0.17838350  0.35299164  0.94868299  1
  O  O536  1  0.17666876  0.68588525  0.19864567  1
  O  O537  1  0.17702822  0.68490645  0.44956094  1
  O  O538  1  0.17654483  0.68649803  0.70152217  1
  O  O539  1  0.17837654  0.68654738  0.94810113  1
  O  O540  1  0.67818966  0.01867716  0.19764919  1
  O  O541  1  0.67565306  0.01901795  0.44990767  1
  O  O542  1  0.67662575  0.01794569  0.69948076  1
  O  O543  1  0.67628403  0.01945629  0.95051137  1
  O  O544  1  0.67567510  0.35311626  0.20017670  1
  O  O545  1  0.67688493  0.35414682  0.44914265  1
  O  O546  1  0.67602865  0.35300713  0.70087561  1
  O  O547  1  0.67787635  0.35249058  0.94849649  1
  O  O548  1  0.67682009  0.68460118  0.19897758  1
  O  O549  1  0.67618147  0.68812277  0.45022200  1
  O  O550  1  0.67681206  0.68733021  0.70000222  1
  O  O551  1  0.67588766  0.68810565  0.94932350  1
  O  O552  1  0.32340484  0.31313492  0.05074829  1
  O  O553  1  0.32283461  0.31270329  0.29964195  1
  O  O554  1  0.32358673  0.31195964  0.54972638  1
  O  O555  1  0.32337154  0.31503655  0.80137153  1
  O  O556  1  0.32204937  0.64731107  0.05085242  1
  O  O557  1  0.32304209  0.64842496  0.30081382  1
  O  O558  1  0.32329850  0.64591010  0.55151952  1
  O  O559  1  0.32156329  0.64741290  0.80251091  1
  O  O560  1  0.32319764  0.98126244  0.05042540  1
  O  O561  1  0.32317078  0.98178607  0.30070292  1
  O  O562  1  0.32329940  0.98160235  0.55097900  1
  O  O563  1  0.32279553  0.98003863  0.80067500  1
  O  O564  1  0.82300141  0.31263988  0.05004407  1
  O  O565  1  0.82427696  0.31232651  0.29870082  1
  O  O566  1  0.82349351  0.31380984  0.54975311  1
  O  O567  1  0.82328039  0.31408233  0.80119269  1
  O  O568  1  0.82233585  0.64830968  0.05023295  1
  O  O569  1  0.82338691  0.64581613  0.30036388  1
  O  O570  1  0.82375431  0.64702545  0.54929253  1
  O  O571  1  0.82306180  0.64607064  0.80049265  1
  O  O572  1  0.82280930  0.98109343  0.05088245  1
  O  O573  1  0.82315753  0.97876776  0.30045953  1
  O  O574  1  0.82253109  0.97986921  0.55133740  1
  O  O575  1  0.82327720  0.97851810  0.80020980  1
  O  O576  1  0.42889963  0.14739912  0.17622783  1
  O  O577  1  0.42678374  0.14694497  0.42453852  1
  O  O578  1  0.42763537  0.14663688  0.67752856  1
  O  O579  1  0.42689191  0.14645181  0.92686782  1
  O  O580  1  0.42682055  0.48128822  0.17553382  1
  O  O581  1  0.42622893  0.48114621  0.42615789  1
  O  O582  1  0.42579720  0.47987002  0.67603303  1
  O  O583  1  0.42762760  0.47996293  0.92719471  1
  O  O584  1  0.42573960  0.81397274  0.17445200  1
  O  O585  1  0.42672297  0.81539791  0.42547282  1
  O  O586  1  0.42617766  0.81457825  0.67632674  1
  O  O587  1  0.42674686  0.81543055  0.92606769  1
  O  O588  1  0.92744683  0.14802014  0.17518091  1
  O  O589  1  0.92718663  0.14776117  0.42590419  1
  O  O590  1  0.92614045  0.14701860  0.67464425  1
  O  O591  1  0.92777836  0.14761952  0.92639015  1
  O  O592  1  0.92616246  0.48003822  0.17453124  1
  O  O593  1  0.92802255  0.47964509  0.42662399  1
  O  O594  1  0.92761224  0.47945110  0.67638198  1
  O  O595  1  0.92656873  0.48007382  0.92356596  1
  O  O596  1  0.92720229  0.81518150  0.17542624  1
  O  O597  1  0.92623469  0.81330789  0.42555988  1
  O  O598  1  0.92688414  0.81190704  0.67594900  1
  O  O599  1  0.92682336  0.81214732  0.92454645  1
  O  O600  1  0.07390514  0.18565076  0.07354182  1
  O  O601  1  0.07383678  0.18535334  0.32401231  1
  O  O602  1  0.07251007  0.18656543  0.57346377  1
  O  O603  1  0.07375326  0.18758509  0.82371251  1
  O  O604  1  0.07331254  0.52159976  0.07362192  1
  O  O605  1  0.07382237  0.51898051  0.32465549  1
  O  O606  1  0.07292587  0.51780683  0.57499859  1
  O  O607  1  0.07218234  0.51963404  0.82384256  1
  O  O608  1  0.07382208  0.85492867  0.07458241  1
  O  O609  1  0.07327268  0.85197991  0.32365704  1
  O  O610  1  0.07417980  0.85250989  0.57547539  1
  O  O611  1  0.07395097  0.85354682  0.82664130  1
  O  O612  1  0.57246874  0.18615819  0.07394319  1
  O  O613  1  0.57334334  0.18575981  0.32338987  1
  O  O614  1  0.57385474  0.18596325  0.57559816  1
  O  O615  1  0.57298634  0.18504234  0.82540013  1
  O  O616  1  0.57293257  0.51880380  0.07398251  1
  O  O617  1  0.57224170  0.51893872  0.32401609  1
  O  O618  1  0.57297284  0.51875141  0.57444223  1
  O  O619  1  0.57339015  0.51998151  0.82580349  1
  O  O620  1  0.57227173  0.85371134  0.07368689  1
  O  O621  1  0.57292133  0.85429242  0.32378126  1
  O  O622  1  0.57218940  0.85203862  0.57403335  1
  O  O623  1  0.57183911  0.85322640  0.82354176  1
  O  O624  1  0.32302640  0.18605097  0.05094761  1
  O  O625  1  0.32345202  0.18550150  0.30034568  1
  O  O626  1  0.32334220  0.18492283  0.55109562  1
  O  O627  1  0.32346247  0.18793288  0.80065530  1
  O  O628  1  0.32130527  0.51997616  0.05173851  1
  O  O629  1  0.32289553  0.52143455  0.29973545  1
  O  O630  1  0.32296324  0.51875210  0.55148444  1
  O  O631  1  0.32319643  0.52014231  0.80285167  1
  O  O632  1  0.32293823  0.85419509  0.05068249  1
  O  O633  1  0.32315844  0.85464389  0.29971039  1
  O  O634  1  0.32278684  0.85441882  0.54966595  1
  O  O635  1  0.32295820  0.85288863  0.80114585  1
  O  O636  1  0.82251517  0.18550307  0.05007473  1
  O  O637  1  0.82368562  0.18542503  0.29957674  1
  O  O638  1  0.82414184  0.18669890  0.54982723  1
  O  O639  1  0.82324982  0.18682596  0.80038465  1
  O  O640  1  0.82302438  0.52110323  0.04965787  1
  O  O641  1  0.82313450  0.51867848  0.30012330  1
  O  O642  1  0.82376827  0.52010121  0.55007537  1
  O  O643  1  0.82266764  0.51883867  0.80107268  1
  O  O644  1  0.82368094  0.85403256  0.05068943  1
  O  O645  1  0.82278261  0.85159748  0.30032834  1
  O  O646  1  0.82225320  0.85249789  0.55179996  1
  O  O647  1  0.82311669  0.85162014  0.80080181  1
  O  O648  1  0.17880280  0.14723241  0.19859688  1
  O  O649  1  0.17814305  0.14696539  0.44826249  1
  O  O650  1  0.17807037  0.14754405  0.69786372  1
  O  O651  1  0.17665265  0.14715179  0.95043435  1
  O  O652  1  0.17681683  0.48161766  0.19852956  1
  O  O653  1  0.17612581  0.47952420  0.45040769  1
  O  O654  1  0.17759178  0.48151177  0.70001715  1
  O  O655  1  0.17743820  0.48038297  0.94858717  1
  O  O656  1  0.17699137  0.81288935  0.20021794  1
  O  O657  1  0.17671686  0.81226717  0.44983435  1
  O  O658  1  0.17585652  0.81323040  0.70065782  1
  O  O659  1  0.17787666  0.81404403  0.94928808  1
  O  O660  1  0.67796907  0.14625821  0.19783125  1
  O  O661  1  0.67607265  0.14584554  0.45060860  1
  O  O662  1  0.67722072  0.14532754  0.70009525  1
  O  O663  1  0.67610135  0.14609208  0.95046846  1
  O  O664  1  0.67545223  0.47986582  0.19944408  1
  O  O665  1  0.67688525  0.48152446  0.44866213  1
  O  O666  1  0.67586427  0.47974127  0.70120937  1
  O  O667  1  0.67798036  0.48022931  0.94859616  1
  O  O668  1  0.67593419  0.81173282  0.19932357  1
  O  O669  1  0.67675959  0.81521357  0.44865903  1
  O  O670  1  0.67643883  0.81441535  0.69868327  1
  O  O671  1  0.67673440  0.81520985  0.94950214  1
