# generated using pymatgen
data_Na2MnFe(PO4)2
_symmetry_space_group_name_H-M   'P 1'
_cell_length_a   22.34464713
_cell_length_b   20.09773536
_cell_length_c   19.44611518
_cell_angle_alpha   90.07937377
_cell_angle_beta   89.97035257
_cell_angle_gamma   89.96932568
_symmetry_Int_Tables_number   1
_chemical_formula_structural   Na2MnFe(PO4)2
_chemical_formula_sum   'Na96 Mn48 Fe48 P96 O384'
_cell_volume   8732.78846600
_cell_formula_units_Z   48
loop_
 _symmetry_equiv_pos_site_id
 _symmetry_equiv_pos_as_xyz
  1  'x, y, z'
loop_
 _atom_site_type_symbol
 _atom_site_label
 _atom_site_symmetry_multiplicity
 _atom_site_fract_x
 _atom_site_fract_y
 _atom_site_fract_z
 _atom_site_occupancy
  Na  Na0  1  0.14002935  0.24930967  0.24534663  1
  Na  Na1  1  0.14046183  0.24899044  0.49350970  1
  Na  Na2  1  0.14027175  0.24905130  0.74412392  1
  Na  Na3  1  0.13985334  0.24938499  0.99353928  1
  Na  Na4  1  0.14042877  0.58289134  0.24395915  1
  Na  Na5  1  0.14073860  0.58174762  0.49479378  1
  Na  Na6  1  0.14040655  0.58175431  0.74339936  1
  Na  Na7  1  0.13997441  0.58298944  0.99360939  1
  Na  Na8  1  0.14043399  0.91620379  0.24463573  1
  Na  Na9  1  0.13988562  0.91812060  0.49451837  1
  Na  Na10  1  0.13988476  0.91611935  0.74315707  1
  Na  Na11  1  0.14039061  0.91706597  0.99398840  1
  Na  Na12  1  0.64094013  0.24986699  0.24461513  1
  Na  Na13  1  0.64091666  0.25038505  0.49326867  1
  Na  Na14  1  0.64048991  0.25111530  0.74246236  1
  Na  Na15  1  0.64044894  0.25072573  0.99372128  1
  Na  Na16  1  0.64069973  0.58414962  0.24380507  1
  Na  Na17  1  0.64065347  0.58453850  0.49299705  1
  Na  Na18  1  0.64088760  0.58399829  0.74095513  1
  Na  Na19  1  0.64066211  0.58458600  0.99284178  1
  Na  Na20  1  0.64042692  0.91581143  0.24394841  1
  Na  Na21  1  0.64042354  0.91573915  0.49263866  1
  Na  Na22  1  0.64092437  0.91524988  0.74212613  1
  Na  Na23  1  0.64055737  0.91670275  0.99536822  1
  Na  Na24  1  0.35954961  0.08363009  0.00553492  1
  Na  Na25  1  0.35974342  0.08337583  0.25803679  1
  Na  Na26  1  0.36041100  0.08395764  0.50623189  1
  Na  Na27  1  0.35969341  0.08331766  0.75503279  1
  Na  Na28  1  0.35966386  0.41656512  0.00454864  1
  Na  Na29  1  0.35927010  0.41599123  0.25611052  1
  Na  Na30  1  0.35935992  0.41660051  0.50719238  1
  Na  Na31  1  0.36001342  0.41566852  0.75579676  1
  Na  Na32  1  0.36007952  0.74961202  0.00541425  1
  Na  Na33  1  0.36020168  0.74973602  0.25712884  1
  Na  Na34  1  0.36027301  0.74976111  0.50715148  1
  Na  Na35  1  0.36022013  0.74900474  0.75476874  1
  Na  Na36  1  0.85919729  0.08424128  0.00702402  1
  Na  Na37  1  0.85940352  0.08345916  0.25794686  1
  Na  Na38  1  0.86001367  0.08262941  0.50803859  1
  Na  Na39  1  0.85967744  0.08299177  0.75726814  1
  Na  Na40  1  0.85906079  0.41781653  0.00619043  1
  Na  Na41  1  0.85881819  0.41737113  0.25637049  1
  Na  Na42  1  0.85896055  0.41767858  0.50613709  1
  Na  Na43  1  0.85940878  0.41718978  0.75507919  1
  Na  Na44  1  0.85924615  0.75126822  0.00711227  1
  Na  Na45  1  0.85929699  0.75061148  0.25690547  1
  Na  Na46  1  0.85880024  0.75056183  0.50668766  1
  Na  Na47  1  0.85968507  0.75046303  0.75590666  1
  Na  Na48  1  0.10965727  0.08379877  0.12053904  1
  Na  Na49  1  0.10993021  0.08254513  0.36931222  1
  Na  Na50  1  0.10956383  0.08289407  0.61916387  1
  Na  Na51  1  0.10894447  0.08305370  0.86852377  1
  Na  Na52  1  0.10901127  0.41639412  0.11829406  1
  Na  Na53  1  0.10972864  0.41562152  0.36966441  1
  Na  Na54  1  0.11007160  0.41521872  0.61807546  1
  Na  Na55  1  0.10936246  0.41574072  0.86861123  1
  Na  Na56  1  0.10948141  0.74954954  0.11899116  1
  Na  Na57  1  0.10955244  0.74989871  0.36964021  1
  Na  Na58  1  0.10916509  0.75038284  0.61870140  1
  Na  Na59  1  0.10924794  0.75008781  0.86939782  1
  Na  Na60  1  0.60990370  0.08213096  0.11996731  1
  Na  Na61  1  0.61024544  0.08165735  0.36930226  1
  Na  Na62  1  0.60979001  0.08222153  0.61752969  1
  Na  Na63  1  0.60950292  0.08308954  0.86831914  1
  Na  Na64  1  0.60983036  0.41652760  0.11900337  1
  Na  Na65  1  0.61024474  0.41768889  0.36814745  1
  Na  Na66  1  0.61038133  0.41720470  0.61738649  1
  Na  Na67  1  0.60991705  0.41734381  0.86664048  1
  Na  Na68  1  0.61065725  0.75045333  0.11930595  1
  Na  Na69  1  0.61010382  0.75102717  0.36818909  1
  Na  Na70  1  0.61024956  0.75076804  0.61733987  1
  Na  Na71  1  0.61052388  0.75013862  0.86710058  1
  Na  Na72  1  0.39023517  0.24887331  0.13099248  1
  Na  Na73  1  0.39027749  0.24925472  0.38250228  1
  Na  Na74  1  0.39051938  0.25046570  0.63119016  1
  Na  Na75  1  0.39017785  0.25059208  0.88058410  1
  Na  Na76  1  0.39028823  0.58417156  0.13129073  1
  Na  Na77  1  0.39062946  0.58472955  0.38147585  1
  Na  Na78  1  0.39092550  0.58362915  0.63226173  1
  Na  Na79  1  0.39092808  0.58342127  0.87871390  1
  Na  Na80  1  0.39073870  0.91573159  0.13240444  1
  Na  Na81  1  0.39075431  0.91668276  0.38211569  1
  Na  Na82  1  0.39065397  0.91616642  0.62986122  1
  Na  Na83  1  0.39073014  0.91562963  0.87925188  1
  Na  Na84  1  0.88980929  0.25056920  0.13129076  1
  Na  Na85  1  0.89037998  0.24968511  0.38241940  1
  Na  Na86  1  0.89026147  0.24950817  0.63141225  1
  Na  Na87  1  0.88959482  0.25066115  0.88138518  1
  Na  Na88  1  0.88998677  0.58494882  0.13137336  1
  Na  Na89  1  0.88954974  0.58354099  0.38170371  1
  Na  Na90  1  0.88961254  0.58367289  0.63079966  1
  Na  Na91  1  0.89036342  0.58381823  0.88083374  1
  Na  Na92  1  0.88977301  0.91752056  0.13285740  1
  Na  Na93  1  0.88982673  0.91729845  0.38238308  1
  Na  Na94  1  0.89000509  0.91810861  0.63273386  1
  Na  Na95  1  0.88987762  0.91675636  0.88149688  1
  Mn  Mn96  1  0.49990678  0.33336845  0.49957495  1
  Mn  Mn97  1  0.00025003  0.83353114  0.00040284  1
  Mn  Mn98  1  0.00065894  0.66737508  0.25065128  1
  Mn  Mn99  1  -0.00068101  0.83438623  0.50035786  1
  Mn  Mn100  1  0.25063489  0.49870177  0.87419231  1
  Mn  Mn101  1  0.25004990  0.16656330  0.62467710  1
  Mn  Mn102  1  0.00077745  0.66722823  0.75031323  1
  Mn  Mn103  1  0.74917389  0.16762272  0.87554001  1
  Mn  Mn104  1  0.50078677  0.16529216  0.25059827  1
  Mn  Mn105  1  0.75028890  0.16642981  0.37552556  1
  Mn  Mn106  1  0.75025023  0.50033729  0.87402380  1
  Mn  Mn107  1  0.50016392  0.16605870  -0.00025020  1
  Mn  Mn108  1  0.49990527  0.33339494  -0.00053429  1
  Mn  Mn109  1  0.24999625  0.00020633  0.12490608  1
  Mn  Mn110  1  0.25063129  0.00025818  0.87473846  1
  Mn  Mn111  1  0.25014378  0.66598080  0.37576894  1
  Mn  Mn112  1  0.75029070  0.66811889  0.87367881  1
  Mn  Mn113  1  0.25066472  0.49892068  0.37513888  1
  Mn  Mn114  1  0.74936174  0.50050251  0.12470553  1
  Mn  Mn115  1  0.75005302  0.16686940  0.62513920  1
  Mn  Mn116  1  0.24925942  0.83366041  0.37588027  1
  Mn  Mn117  1  0.49961751  0.16685306  0.74904766  1
  Mn  Mn118  1  0.49981621  0.50131136  0.49956505  1
  Mn  Mn119  1  0.25008918  0.16677957  0.12547560  1
  Mn  Mn120  1  -0.00075500  0.33214028  0.74967188  1
  Mn  Mn121  1  0.50032844  0.66686584  -0.00078762  1
  Mn  Mn122  1  -0.00030155  0.33286150  0.00002679  1
  Mn  Mn123  1  0.00028787  0.49974378  0.75026647  1
  Mn  Mn124  1  0.50046725  0.50044420  -0.00081042  1
  Mn  Mn125  1  0.25094946  0.83257804  0.12501539  1
  Mn  Mn126  1  -0.00013038  0.50032929  0.24969084  1
  Mn  Mn127  1  0.50027663  0.83271479  -0.00011642  1
  Mn  Mn128  1  0.49998663  0.33306059  0.25011216  1
  Mn  Mn129  1  -0.00084740  0.33248512  0.24964460  1
  Mn  Mn130  1  0.75002362  0.16710126  0.12603050  1
  Mn  Mn131  1  0.24993787  0.83340629  0.62486542  1
  Mn  Mn132  1  0.49966157  0.50127621  0.24946291  1
  Mn  Mn133  1  -0.00007413  0.33235852  0.49999338  1
  Mn  Mn134  1  0.49991413  -0.00088593  -0.00031236  1
  Mn  Mn135  1  0.24909468  0.50000582  0.12512908  1
  Mn  Mn136  1  0.49987072  -0.00110714  0.74848657  1
  Mn  Mn137  1  -0.00029523  0.00107793  0.00099007  1
  Mn  Mn138  1  0.74946975  -0.00072057  0.87604073  1
  Mn  Mn139  1  0.24979840  0.83281111  0.87441692  1
  Mn  Mn140  1  0.24997052  0.66586121  0.87471114  1
  Mn  Mn141  1  -0.00046365  0.00025176  0.25063752  1
  Mn  Mn142  1  0.25009815  0.33283329  0.12501634  1
  Mn  Mn143  1  -0.00081587  0.66637054  0.49990155  1
  Fe  Fe144  1  -0.00058602  0.16664614  0.00014525  1
  Fe  Fe145  1  0.75025031  0.33407131  0.62419185  1
  Fe  Fe146  1  0.74987863  0.50041300  0.62356082  1
  Fe  Fe147  1  0.00014464  0.00024642  0.50099344  1
  Fe  Fe148  1  -0.00050639  0.16635113  0.25089054  1
  Fe  Fe149  1  0.50065986  0.50045409  0.74917802  1
  Fe  Fe150  1  0.25050134  0.33243256  0.62511855  1
  Fe  Fe151  1  0.50087143  0.16629325  0.49999196  1
  Fe  Fe152  1  -0.00039710  0.00052370  0.75056545  1
  Fe  Fe153  1  0.75025284  0.66726584  0.62348464  1
  Fe  Fe154  1  0.24944887  0.66592007  0.62514731  1
  Fe  Fe155  1  -0.00009559  0.16565684  0.50098711  1
  Fe  Fe156  1  0.50072778  0.83295904  0.74884346  1
  Fe  Fe157  1  -0.00016559  0.16605346  0.75046729  1
  Fe  Fe158  1  0.50086485  0.33343019  0.74922546  1
  Fe  Fe159  1  0.75013426  0.66725512  0.12504857  1
  Fe  Fe160  1  0.25047376  0.16677705  0.37594842  1
  Fe  Fe161  1  -0.00033466  0.83376185  0.25042854  1
  Fe  Fe162  1  0.74970157  0.33412017  0.87444783  1
  Fe  Fe163  1  0.75014412  0.66703304  0.37460432  1
  Fe  Fe164  1  0.74996592  -0.00015260  0.12619319  1
  Fe  Fe165  1  0.50004491  0.83306979  0.25067521  1
  Fe  Fe166  1  0.50081885  0.66765408  0.25051473  1
  Fe  Fe167  1  0.50102245  0.66723601  0.74875825  1
  Fe  Fe168  1  0.50045019  0.66776292  0.50024575  1
  Fe  Fe169  1  0.24971849  0.33309478  0.37562523  1
  Fe  Fe170  1  0.24962443  0.16661674  0.87455724  1
  Fe  Fe171  1  0.74955199  0.33378692  0.12537375  1
  Fe  Fe172  1  0.74999219  0.83367841  0.87513136  1
  Fe  Fe173  1  0.75019267  0.33402176  0.37507054  1
  Fe  Fe174  1  0.25051459  0.00019269  0.37513482  1
  Fe  Fe175  1  0.50038977  -0.00082585  0.49951493  1
  Fe  Fe176  1  0.75045796  0.83360903  0.12587967  1
  Fe  Fe177  1  0.25005277  0.49863590  0.62492385  1
  Fe  Fe178  1  0.24955787  0.33263200  0.87464095  1
  Fe  Fe179  1  -0.00074461  0.66712389  -0.00007079  1
  Fe  Fe180  1  0.50029334  0.83313022  0.49916781  1
  Fe  Fe181  1  -0.00073497  0.50025399  -0.00017449  1
  Fe  Fe182  1  0.75032074  0.83338526  0.37482546  1
  Fe  Fe183  1  -0.00009591  0.49956401  0.50006921  1
  Fe  Fe184  1  0.75010961  -0.00067871  0.37606825  1
  Fe  Fe185  1  0.49947708  -0.00090687  0.25060270  1
  Fe  Fe186  1  -0.00046296  0.83394855  0.75040940  1
  Fe  Fe187  1  0.74981763  0.50046278  0.37484346  1
  Fe  Fe188  1  0.24993420  0.66633639  0.12509809  1
  Fe  Fe189  1  0.25008496  0.00036265  0.62480658  1
  Fe  Fe190  1  0.75026149  0.83327579  0.62412964  1
  Fe  Fe191  1  0.74983535  -0.00059843  0.62569449  1
  P  P192  1  0.04183554  0.24809508  0.10301960  1
  P  P193  1  0.04150328  0.24817731  0.35338367  1
  P  P194  1  0.04221078  0.24758481  0.60297524  1
  P  P195  1  0.04160741  0.24824895  0.85282965  1
  P  P196  1  0.04088415  0.58385513  0.10130772  1
  P  P197  1  0.04272534  0.58277982  0.35389671  1
  P  P198  1  0.04193089  0.58221510  0.60235345  1
  P  P199  1  0.04272057  0.58340404  0.85418250  1
  P  P200  1  0.04251566  0.91702002  0.10404814  1
  P  P201  1  0.04194838  0.91588469  0.35317875  1
  P  P202  1  0.04162964  0.91840656  0.60386649  1
  P  P203  1  0.04117286  0.91697195  0.85188405  1
  P  P204  1  0.54294970  0.24949755  0.10309798  1
  P  P205  1  0.54292940  0.24921851  0.35387002  1
  P  P206  1  0.54238238  0.24935822  0.60224921  1
  P  P207  1  0.54253319  0.25101343  0.85157029  1
  P  P208  1  0.54314957  0.58422884  0.10311263  1
  P  P209  1  0.54242405  0.58564738  0.35276522  1
  P  P210  1  0.54228462  0.58542324  0.60266632  1
  P  P211  1  0.54247252  0.58400553  0.85021037  1
  P  P212  1  0.54227101  0.91612345  0.10433453  1
  P  P213  1  0.54141657  0.91628016  0.35247611  1
  P  P214  1  0.54174624  0.91561915  0.60094689  1
  P  P215  1  0.54298681  0.91516631  0.85138341  1
  P  P216  1  0.45742542  0.08134621  0.14817512  1
  P  P217  1  0.45935697  0.08246669  0.39840882  1
  P  P218  1  0.45768506  0.08292200  0.64506126  1
  P  P219  1  0.45706140  0.08268789  0.89613732  1
  P  P220  1  0.45692166  0.41675855  0.14666429  1
  P  P221  1  0.45696618  0.41742825  0.39683237  1
  P  P222  1  0.45938577  0.41683911  0.64798624  1
  P  P223  1  0.45804276  0.41706307  0.89499744  1
  P  P224  1  0.45874615  0.74990347  0.14887203  1
  P  P225  1  0.45873830  0.75013803  0.39781404  1
  P  P226  1  0.45920526  0.75026874  0.64683021  1
  P  P227  1  0.45795578  0.74976154  0.89514502  1
  P  P228  1  0.95700263  0.08521880  0.14810959  1
  P  P229  1  0.95832734  0.08315402  0.39915322  1
  P  P230  1  0.95834066  0.08360379  0.64842656  1
  P  P231  1  0.95725691  0.08458128  0.89734449  1
  P  P232  1  0.95686193  0.41702535  0.14626080  1
  P  P233  1  0.95755492  0.41738401  0.39773398  1
  P  P234  1  0.95760699  0.41645560  0.64623646  1
  P  P235  1  0.95735927  0.41748451  0.89764690  1
  P  P236  1  0.95765915  0.75132500  0.14777962  1
  P  P237  1  0.95671998  0.75076563  0.39688412  1
  P  P238  1  0.95777142  0.75164234  0.64788955  1
  P  P239  1  0.95744869  0.74972046  0.89750538  1
  P  P240  1  0.20784648  0.08334977  0.22965766  1
  P  P241  1  0.20909180  0.08305470  0.47707448  1
  P  P242  1  0.20786069  0.08261940  0.72755766  1
  P  P243  1  0.20728587  0.08458198  0.97708514  1
  P  P244  1  0.20664217  0.41577455  0.22868954  1
  P  P245  1  0.20801870  0.41502249  0.47867382  1
  P  P246  1  0.20848627  0.41518765  0.72662991  1
  P  P247  1  0.20727215  0.41528111  0.97697439  1
  P  P248  1  0.20775338  0.74860629  0.22774473  1
  P  P249  1  0.20718289  0.74942589  0.47928227  1
  P  P250  1  0.20736533  0.74839734  0.72711937  1
  P  P251  1  0.20714382  0.74940210  0.97853271  1
  P  P252  1  0.70810753  0.08177931  0.22881231  1
  P  P253  1  0.70856212  0.08167893  0.47849319  1
  P  P254  1  0.70770330  0.08226249  0.72754036  1
  P  P255  1  0.70694295  0.08337637  0.97919566  1
  P  P256  1  0.70776423  0.41605401  0.22820354  1
  P  P257  1  0.70854967  0.41738644  0.47687751  1
  P  P258  1  0.70886184  0.41720823  0.72559673  1
  P  P259  1  0.70750362  0.41609259  0.97700157  1
  P  P260  1  0.70940587  0.75004201  0.22747008  1
  P  P261  1  0.70930772  0.75010678  0.47649506  1
  P  P262  1  0.70909058  0.75013218  0.72546177  1
  P  P263  1  0.70803609  0.75190088  0.97775251  1
  P  P264  1  0.29254361  0.24972056  0.02087132  1
  P  P265  1  0.29165519  0.25005379  0.27427021  1
  P  P266  1  0.29230711  0.25083999  0.52200668  1
  P  P267  1  0.29134567  0.24980103  0.77277693  1
  P  P268  1  0.29234626  0.58394951  0.02254046  1
  P  P269  1  0.29298169  0.58314373  0.27170466  1
  P  P270  1  0.29190799  0.58246098  0.52409385  1
  P  P271  1  0.29247891  0.58237370  0.77025555  1
  P  P272  1  0.29337837  0.91666107  0.02175113  1
  P  P273  1  0.29251539  0.91724722  0.27317741  1
  P  P274  1  0.29187073  0.91857514  0.52199174  1
  P  P275  1  0.29262011  0.91661261  0.77077230  1
  P  P276  1  0.79169425  0.25198331  0.02262757  1
  P  P277  1  0.79217363  0.25155664  0.27293897  1
  P  P278  1  0.79210803  0.25159956  0.52215478  1
  P  P279  1  0.79164690  0.25181319  0.77206039  1
  P  P280  1  0.79192090  0.58525203  0.02242856  1
  P  P281  1  0.79127594  0.58383323  0.27308361  1
  P  P282  1  0.79100365  0.58385395  0.52181374  1
  P  P283  1  0.79263312  0.58388793  0.77014738  1
  P  P284  1  0.79149230  0.91690838  0.02419531  1
  P  P285  1  0.79121475  0.91700086  0.27344159  1
  P  P286  1  0.79113038  0.91693171  0.52317794  1
  P  P287  1  0.79185889  0.91537447  0.77222588  1
  O  O288  1  0.03632989  0.24823877  0.18299385  1
  O  O289  1  0.03614536  0.24813815  0.43334128  1
  O  O290  1  0.03691515  0.24757706  0.68292798  1
  O  O291  1  0.03640591  0.24851201  0.93277667  1
  O  O292  1  0.03626999  0.58410200  0.18138286  1
  O  O293  1  0.03725634  0.58217527  0.43382214  1
  O  O294  1  0.03742012  0.58260419  0.68239176  1
  O  O295  1  0.03694320  0.58351648  0.93407206  1
  O  O296  1  0.03717189  0.91654114  0.18398915  1
  O  O297  1  0.03671464  0.91670558  0.43312094  1
  O  O298  1  0.03632357  0.91808653  0.68375098  1
  O  O299  1  0.03673189  0.91738326  0.93192174  1
  O  O300  1  0.53793567  0.24946798  0.18312969  1
  O  O301  1  0.53772675  0.24883846  0.43385309  1
  O  O302  1  0.53702125  0.25024061  0.68221699  1
  O  O303  1  0.53754043  0.25077823  0.93158020  1
  O  O304  1  0.53815526  0.58485693  0.18311260  1
  O  O305  1  0.53708889  0.58583394  0.43272732  1
  O  O306  1  0.53710987  0.58523802  0.68257706  1
  O  O307  1  0.53795484  0.58357020  0.93026973  1
  O  O308  1  0.53675864  0.91619336  0.18425726  1
  O  O309  1  0.53648181  0.91606954  0.43243242  1
  O  O310  1  0.53703814  0.91536707  0.68090248  1
  O  O311  1  0.53787165  0.91542845  0.93138287  1
  O  O312  1  0.46220984  0.08174404  0.06814072  1
  O  O313  1  0.46397326  0.08168027  0.31840458  1
  O  O314  1  0.46329739  0.08320755  0.56518083  1
  O  O315  1  0.46208367  0.08278785  0.81612624  1
  O  O316  1  0.46221092  0.41674158  0.06662734  1
  O  O317  1  0.46185788  0.41734612  0.31687905  1
  O  O318  1  0.46365310  0.41709154  0.56794433  1
  O  O319  1  0.46372752  0.41672148  0.81506028  1
  O  O320  1  0.46334512  0.74985374  0.06882126  1
  O  O321  1  0.46400298  0.74995661  0.31790642  1
  O  O322  1  0.46434831  0.75032964  0.56688348  1
  O  O323  1  0.46327681  0.74979927  0.81522527  1
  O  O324  1  0.96202961  0.08510295  0.06814495  1
  O  O325  1  0.96308744  0.08335034  0.31917699  1
  O  O326  1  0.96336512  0.08312949  0.56848868  1
  O  O327  1  0.96270993  0.08396880  0.81745537  1
  O  O328  1  0.96227621  0.41740175  0.06628810  1
  O  O329  1  0.96225996  0.41713479  0.31771516  1
  O  O330  1  0.96307501  0.41669345  0.56629704  1
  O  O331  1  0.96242598  0.41696902  0.81764228  1
  O  O332  1  0.96287377  0.75053350  0.06779975  1
  O  O333  1  0.96205444  0.75122688  0.31694433  1
  O  O334  1  0.96279412  0.75135250  0.56792702  1
  O  O335  1  0.96280653  0.75032280  0.81755640  1
  O  O336  1  0.21206470  0.08433233  0.05713097  1
  O  O337  1  0.21332690  0.08323829  0.30957742  1
  O  O338  1  0.21383276  0.08288248  0.55707278  1
  O  O339  1  0.21323515  0.08352480  0.80744127  1
  O  O340  1  0.21203268  0.41585667  0.05698586  1
  O  O341  1  0.21191578  0.41551374  0.30868368  1
  O  O342  1  0.21362945  0.41532448  0.55856194  1
  O  O343  1  0.21360523  0.41496550  0.80660914  1
  O  O344  1  0.21242958  0.74911593  0.05852046  1
  O  O345  1  0.21269343  0.74899958  0.30778210  1
  O  O346  1  0.21239743  0.74906845  0.55924418  1
  O  O347  1  0.21235850  0.74875091  0.80711594  1
  O  O348  1  0.71239780  0.08333406  0.05915360  1
  O  O349  1  0.71374767  0.08165549  0.30877142  1
  O  O350  1  0.71387458  0.08174729  0.55844427  1
  O  O351  1  0.71249366  0.08258076  0.80756604  1
  O  O352  1  0.71248890  0.41619475  0.05698227  1
  O  O353  1  0.71349331  0.41665975  0.30806499  1
  O  O354  1  0.71400692  0.41726074  0.55677773  1
  O  O355  1  0.71352963  0.41734978  0.80556245  1
  O  O356  1  0.71328720  0.75135578  0.05759463  1
  O  O357  1  0.71440688  0.74989790  0.30731999  1
  O  O358  1  0.71429039  0.75029355  0.55633905  1
  O  O359  1  0.71355944  0.75080118  0.80539619  1
  O  O360  1  0.28718686  0.24949875  0.19423613  1
  O  O361  1  0.28714344  0.25075273  0.44215167  1
  O  O362  1  0.28642549  0.25004439  0.69275206  1
  O  O363  1  0.28720837  0.24949709  0.94093559  1
  O  O364  1  0.28763144  0.58374433  0.19176714  1
  O  O365  1  0.28709480  0.58231506  0.44404259  1
  O  O366  1  0.28684410  0.58237412  0.69038164  1
  O  O367  1  0.28728508  0.58341435  0.94252698  1
  O  O368  1  0.28786999  0.91681503  0.19316167  1
  O  O369  1  0.28628613  0.91874438  0.44205817  1
  O  O370  1  0.28725921  0.91709966  0.69080281  1
  O  O371  1  0.28824409  0.91651773  0.94173860  1
  O  O372  1  0.78670231  0.25131285  0.19299852  1
  O  O373  1  0.78671608  0.25139688  0.44223605  1
  O  O374  1  0.78636723  0.25166916  0.69208601  1
  O  O375  1  0.78626641  0.25179340  0.94264529  1
  O  O376  1  0.78607558  0.58400871  0.19312389  1
  O  O377  1  0.78574851  0.58349267  0.44192590  1
  O  O378  1  0.78738145  0.58375715  0.69023731  1
  O  O379  1  0.78699416  0.58498699  0.94245391  1
  O  O380  1  0.78641479  0.91725400  0.19355829  1
  O  O381  1  0.78635045  0.91699512  0.44327840  1
  O  O382  1  0.78665111  0.91590322  0.69234934  1
  O  O383  1  0.78659915  0.91626028  0.94424870  1
  O  O384  1  0.22822653  0.24972599  0.05650422  1
  O  O385  1  0.22737337  0.25048861  0.30982866  1
  O  O386  1  0.22809402  0.25109624  0.55796053  1
  O  O387  1  0.22718995  0.24980784  0.80886667  1
  O  O388  1  0.22793081  0.58474885  0.05808042  1
  O  O389  1  0.22865456  0.58259216  0.30711190  1
  O  O390  1  0.22759426  0.58199531  0.55965255  1
  O  O391  1  0.22840254  0.58203534  0.80634914  1
  O  O392  1  0.22890687  0.91621301  0.05679139  1
  O  O393  1  0.22801571  0.91782242  0.30824347  1
  O  O394  1  0.22775303  0.91848058  0.55809371  1
  O  O395  1  0.22833188  0.91675497  0.80628424  1
  O  O396  1  0.72757532  0.25179719  0.05877346  1
  O  O397  1  0.72802955  0.25141267  0.30895514  1
  O  O398  1  0.72794352  0.25152202  0.55812316  1
  O  O399  1  0.72742628  0.25221665  0.80798985  1
  O  O400  1  0.72760308  0.58546643  0.05796452  1
  O  O401  1  0.72721405  0.58369617  0.30934933  1
  O  O402  1  0.72710859  0.58481490  0.55846153  1
  O  O403  1  0.72841778  0.58407741  0.80595768  1
  O  O404  1  0.72742376  0.91721839  0.06040800  1
  O  O405  1  0.72714043  0.91723233  0.30970779  1
  O  O406  1  0.72698792  0.91725908  0.55920988  1
  O  O407  1  0.72766058  0.91509739  0.80830729  1
  O  O408  1  0.27203360  0.08324229  0.19376839  1
  O  O409  1  0.27326226  0.08273895  0.44125477  1
  O  O410  1  0.27205214  0.08207065  0.69153627  1
  O  O411  1  0.27175780  0.08493741  0.94192878  1
  O  O412  1  0.27101732  0.41652071  0.19341898  1
  O  O413  1  0.27214731  0.41434523  0.44239317  1
  O  O414  1  0.27268842  0.41562386  0.69056682  1
  O  O415  1  0.27169476  0.41429355  0.94162172  1
  O  O416  1  0.27217533  0.74768973  0.19233176  1
  O  O417  1  0.27151723  0.75004045  0.44397126  1
  O  O418  1  0.27171706  0.74842773  0.69172536  1
  O  O419  1  0.27151968  0.74973508  0.94317283  1
  O  O420  1  0.77220075  0.08198394  0.19262691  1
  O  O421  1  0.77270598  0.08154635  0.44251994  1
  O  O422  1  0.77211719  0.08222558  0.69231299  1
  O  O423  1  0.77117690  0.08361528  0.94354469  1
  O  O424  1  0.77171926  0.41587221  0.19156346  1
  O  O425  1  0.77250769  0.41752748  0.44025187  1
  O  O426  1  0.77301306  0.41687791  0.68967960  1
  O  O427  1  0.77186571  0.41590796  0.94136523  1
  O  O428  1  0.77331882  0.74984687  0.19088218  1
  O  O429  1  0.77328704  0.74970422  0.44015785  1
  O  O430  1  0.77330055  0.74933784  0.68969205  1
  O  O431  1  0.77224390  0.75218653  0.94157033  1
  O  O432  1  0.02133049  0.08495555  0.18368470  1
  O  O433  1  0.02257487  0.08291837  0.43500671  1
  O  O434  1  0.02239234  0.08400490  0.68461005  1
  O  O435  1  0.02144310  0.08507377  0.93344655  1
  O  O436  1  0.02115416  0.41636622  0.18166856  1
  O  O437  1  0.02193307  0.41705585  0.43295535  1
  O  O438  1  0.02181081  0.41572281  0.68181726  1
  O  O439  1  0.02163838  0.41757140  0.93309921  1
  O  O440  1  0.02194450  0.75216290  0.18356149  1
  O  O441  1  0.02100976  0.75042570  0.43220254  1
  O  O442  1  0.02206149  0.75227117  0.68343266  1
  O  O443  1  0.02169564  0.74895791  0.93319778  1
  O  O444  1  0.52190770  0.08084956  0.18329785  1
  O  O445  1  0.52350467  0.08304871  0.43417961  1
  O  O446  1  0.52179649  0.08304638  0.68094677  1
  O  O447  1  0.52153246  0.08256819  0.93113515  1
  O  O448  1  0.52134501  0.41698360  0.18176167  1
  O  O449  1  0.52150021  0.41744048  0.43155511  1
  O  O450  1  0.52372112  0.41636596  0.68316878  1
  O  O451  1  0.52219956  0.41694499  0.93092145  1
  O  O452  1  0.52309860  0.75033941  0.18433654  1
  O  O453  1  0.52292179  0.75023731  0.43394790  1
  O  O454  1  0.52331771  0.75047512  0.68310170  1
  O  O455  1  0.52224617  0.74986487  0.93074772  1
  O  O456  1  0.47849717  0.24952020  0.06808017  1
  O  O457  1  0.47855567  0.24900584  0.31872937  1
  O  O458  1  0.47814540  0.24862252  0.56659567  1
  O  O459  1  0.47813373  0.25151111  0.81630840  1
  O  O460  1  0.47872756  0.58383510  0.06796526  1
  O  O461  1  0.47819423  0.58589027  0.31703789  1
  O  O462  1  0.47807198  0.58569369  0.56679303  1
  O  O463  1  0.47824327  0.58460203  0.81471948  1
  O  O464  1  0.47814300  0.91596759  0.06834080  1
  O  O465  1  0.47732757  0.91609709  0.31634375  1
  O  O466  1  0.47759795  0.91518888  0.56510786  1
  O  O467  1  0.47860761  0.91441881  0.81592076  1
  O  O468  1  0.97761626  0.24836168  0.06710924  1
  O  O469  1  0.97732209  0.24817932  0.31742454  1
  O  O470  1  0.97792767  0.24778071  0.56736905  1
  O  O471  1  0.97732094  0.24806008  0.81714163  1
  O  O472  1  0.97662568  0.58363190  0.06573506  1
  O  O473  1  0.97842010  0.58371429  0.31854006  1
  O  O474  1  0.97745445  0.58216275  0.56736062  1
  O  O475  1  0.97857304  0.58364404  0.81829520  1
  O  O476  1  0.97817979  0.91715638  0.06874916  1
  O  O477  1  0.97766598  0.91534902  0.31743386  1
  O  O478  1  0.97746073  0.91898311  0.56786996  1
  O  O479  1  0.97688082  0.91639863  0.81642813  1
  O  O480  1  0.07298531  0.31175656  0.07528137  1
  O  O481  1  0.07236929  0.31193288  0.32559683  1
  O  O482  1  0.07330362  0.31116666  0.57511945  1
  O  O483  1  0.07239096  0.31204891  0.82491149  1
  O  O484  1  0.07134096  0.64771279  0.07323448  1
  O  O485  1  0.07416567  0.64626223  0.32620923  1
  O  O486  1  0.07289000  0.64583664  0.57457125  1
  O  O487  1  0.07415438  0.64655641  0.82563499  1
  O  O488  1  0.07336695  0.98077816  0.07622147  1
  O  O489  1  0.07287448  0.97941820  0.32504869  1
  O  O490  1  0.07269368  0.98168845  0.57505677  1
  O  O491  1  0.07135467  0.98086698  0.82333865  1
  O  O492  1  0.57394601  0.31289918  0.07493538  1
  O  O493  1  0.57356906  0.31303146  0.32596224  1
  O  O494  1  0.57340190  0.31284420  0.57407697  1
  O  O495  1  0.57347423  0.31435058  0.82296933  1
  O  O496  1  0.57416235  0.64741821  0.07426810  1
  O  O497  1  0.57360024  0.64882127  0.32413494  1
  O  O498  1  0.57331333  0.64868070  0.57389278  1
  O  O499  1  0.57378894  0.64738069  0.82230613  1
  O  O500  1  0.57339658  0.97940845  0.07574686  1
  O  O501  1  0.57223349  0.97989819  0.32420304  1
  O  O502  1  0.57180255  0.97980741  0.57276255  1
  O  O503  1  0.57346327  0.97906323  0.82349197  1
  O  O504  1  0.42658670  0.01800841  0.17680134  1
  O  O505  1  0.42887311  0.01876844  0.42712780  1
  O  O506  1  0.42665500  0.01935739  0.67310691  1
  O  O507  1  0.42609337  0.01917758  0.92408498  1
  O  O508  1  0.42603376  0.35320622  0.17474253  1
  O  O509  1  0.42600885  0.35404648  0.42514641  1
  O  O510  1  0.42823818  0.35334372  0.67592388  1
  O  O511  1  0.42647624  0.35405247  0.92359827  1
  O  O512  1  0.42832094  0.68614158  0.17715202  1
  O  O513  1  0.42773341  0.68683346  0.42669319  1
  O  O514  1  0.42838463  0.68668494  0.67516985  1
  O  O515  1  0.42694150  0.68630071  0.92365585  1
  O  O516  1  0.92598284  0.02157403  0.17609424  1
  O  O517  1  0.92776486  0.01935341  0.42740618  1
  O  O518  1  0.92789443  0.01993673  0.67747702  1
  O  O519  1  0.92637778  0.02096204  0.92573359  1
  O  O520  1  0.92568283  0.35355184  0.17424462  1
  O  O521  1  0.92627241  0.35394738  0.42550426  1
  O  O522  1  0.92628331  0.35296696  0.67408709  1
  O  O523  1  0.92617551  0.35399731  0.92545803  1
  O  O524  1  0.92685722  0.68775426  0.17602078  1
  O  O525  1  0.92567340  0.68714122  0.42469327  1
  O  O526  1  0.92717373  0.68773808  0.67544894  1
  O  O527  1  0.92649408  0.68624732  0.92586895  1
  O  O528  1  0.17653003  0.02008673  0.20102587  1
  O  O529  1  0.17765818  0.01993538  0.44856108  1
  O  O530  1  0.17702202  0.01898787  0.69942012  1
  O  O531  1  0.17651482  0.02073339  0.94923467  1
  O  O532  1  0.17587557  0.35229161  0.20014949  1
  O  O533  1  0.17666848  0.35181586  0.45009109  1
  O  O534  1  0.17773844  0.35151914  0.69831658  1
  O  O535  1  0.17611387  0.35195397  0.94865997  1
  O  O536  1  0.17660412  0.68527274  0.19939673  1
  O  O537  1  0.17625793  0.68602310  0.45080000  1
  O  O538  1  0.17674991  0.68469495  0.69886276  1
  O  O539  1  0.17608658  0.68612209  0.94997956  1
  O  O540  1  0.67722077  0.01842810  0.20016878  1
  O  O541  1  0.67739579  0.01844816  0.44991254  1
  O  O542  1  0.67704150  0.01862626  0.69912640  1
  O  O543  1  0.67584307  0.01992833  0.95097642  1
  O  O544  1  0.67681383  0.35250417  0.19988197  1
  O  O545  1  0.67763372  0.35372405  0.44855151  1
  O  O546  1  0.67755370  0.35387679  0.69731693  1
  O  O547  1  0.67664617  0.35282347  0.94806740  1
  O  O548  1  0.67831097  0.68666081  0.19871640  1
  O  O549  1  0.67784100  0.68686964  0.44808581  1
  O  O550  1  0.67783712  0.68673919  0.69720325  1
  O  O551  1  0.67701255  0.68846994  0.94898403  1
  O  O552  1  0.32362993  0.31317958  0.04936040  1
  O  O553  1  0.32268084  0.31366499  0.30207392  1
  O  O554  1  0.32344284  0.31396513  0.55117718  1
  O  O555  1  0.32225870  0.31332931  0.80108993  1
  O  O556  1  0.32334550  0.64739698  0.05082325  1
  O  O557  1  0.32398559  0.64639527  0.30061555  1
  O  O558  1  0.32214622  0.64658963  0.55202351  1
  O  O559  1  0.32357154  0.64582941  0.79859979  1
  O  O560  1  0.32386566  0.98046488  0.04984363  1
  O  O561  1  0.32342527  0.98066527  0.30168921  1
  O  O562  1  0.32290160  0.98177595  0.55071614  1
  O  O563  1  0.32417696  0.97968386  0.79914888  1
  O  O564  1  0.82251153  0.31544238  0.05113232  1
  O  O565  1  0.82309015  0.31494944  0.30142365  1
  O  O566  1  0.82300760  0.31504494  0.55054467  1
  O  O567  1  0.82279139  0.31510209  0.80054289  1
  O  O568  1  0.82267035  0.64874172  0.05097701  1
  O  O569  1  0.82228305  0.64736501  0.30140692  1
  O  O570  1  0.82280481  0.64705143  0.54986473  1
  O  O571  1  0.82389052  0.64720933  0.79864694  1
  O  O572  1  0.82239115  0.98073346  0.05201213  1
  O  O573  1  0.82263341  0.98012650  0.30232011  1
  O  O574  1  0.82246509  0.98006751  0.55213348  1
  O  O575  1  0.82288844  0.97885417  0.80081926  1
  O  O576  1  0.42671814  0.14515705  0.17636538  1
  O  O577  1  0.42833474  0.14623586  0.42623556  1
  O  O578  1  0.42609615  0.14609238  0.67361312  1
  O  O579  1  0.42631376  0.14632160  0.92448704  1
  O  O580  1  0.42582530  0.48029140  0.17466304  1
  O  O581  1  0.42606209  0.48099803  0.42513088  1
  O  O582  1  0.42926613  0.48094350  0.67638134  1
  O  O583  1  0.42703890  0.48078492  0.92312429  1
  O  O584  1  0.42769773  0.81341249  0.17726012  1
  O  O585  1  0.42772382  0.81380433  0.42608401  1
  O  O586  1  0.42816622  0.81386775  0.67518207  1
  O  O587  1  0.42663623  0.81295006  0.92399155  1
  O  O588  1  0.92621916  0.14855773  0.17703772  1
  O  O589  1  0.92732716  0.14662695  0.42769464  1
  O  O590  1  0.92691423  0.14702351  0.67660709  1
  O  O591  1  0.92608403  0.14797045  0.92577741  1
  O  O592  1  0.92580807  0.48044492  0.17470593  1
  O  O593  1  0.92722833  0.48120894  0.42636968  1
  O  O594  1  0.92653653  0.47984852  0.67458500  1
  O  O595  1  0.92668835  0.48125143  0.92586176  1
  O  O596  1  0.92669571  0.81490837  0.17604373  1
  O  O597  1  0.92543800  0.81392799  0.42558986  1
  O  O598  1  0.92675522  0.81510883  0.67622176  1
  O  O599  1  0.92654003  0.81333939  0.92581345  1
  O  O600  1  0.07267433  0.18469642  0.07435873  1
  O  O601  1  0.07244376  0.18470315  0.32499635  1
  O  O602  1  0.07307589  0.18421246  0.57410565  1
  O  O603  1  0.07268595  0.18500088  0.82413722  1
  O  O604  1  0.07174260  0.52003030  0.07338698  1
  O  O605  1  0.07365117  0.51945567  0.32506479  1
  O  O606  1  0.07239270  0.51840970  0.57392121  1
  O  O607  1  0.07388726  0.51986744  0.82585406  1
  O  O608  1  0.07394857  0.85397443  0.07530583  1
  O  O609  1  0.07284919  0.85227151  0.32493893  1
  O  O610  1  0.07271921  0.85486379  0.57552530  1
  O  O611  1  0.07228843  0.85334802  0.82394095  1
  O  O612  1  0.57377722  0.18575424  0.07508653  1
  O  O613  1  0.57451513  0.18606543  0.32550900  1
  O  O614  1  0.57340699  0.18568845  0.57421976  1
  O  O615  1  0.57335027  0.18717188  0.82374785  1
  O  O616  1  0.57411774  0.52054358  0.07499300  1
  O  O617  1  0.57319520  0.52169838  0.32504942  1
  O  O618  1  0.57326233  0.52170888  0.57449682  1
  O  O619  1  0.57259027  0.51995499  0.82149051  1
  O  O620  1  0.57356093  0.85269854  0.07598463  1
  O  O621  1  0.57241936  0.85268964  0.32388041  1
  O  O622  1  0.57326322  0.85253859  0.57231217  1
  O  O623  1  0.57410289  0.85190459  0.82271294  1
  O  O624  1  0.32377765  0.18652647  0.04971984  1
  O  O625  1  0.32201668  0.18621139  0.30293478  1
  O  O626  1  0.32329290  0.18716806  0.55000934  1
  O  O627  1  0.32198725  0.18586043  0.80056116  1
  O  O628  1  0.32287635  0.52000973  0.05024889  1
  O  O629  1  0.32421195  0.51963714  0.29957763  1
  O  O630  1  0.32308601  0.51899303  0.55209438  1
  O  O631  1  0.32393622  0.51908499  0.79848301  1
  O  O632  1  0.32479392  0.85342449  0.04990718  1
  O  O633  1  0.32311438  0.85347538  0.30132676  1
  O  O634  1  0.32295863  0.85463697  0.54909972  1
  O  O635  1  0.32334493  0.85272828  0.79842416  1
  O  O636  1  0.82291030  0.18835681  0.05041402  1
  O  O637  1  0.82324411  0.18781900  0.30070108  1
  O  O638  1  0.82319742  0.18790930  0.54992594  1
  O  O639  1  0.82231514  0.18790466  0.79988255  1
  O  O640  1  0.82277270  0.52157116  0.05033908  1
  O  O641  1  0.82221004  0.52013002  0.30106313  1
  O  O642  1  0.82119397  0.51988380  0.55046267  1
  O  O643  1  0.82377916  0.52058123  0.79885318  1
  O  O644  1  0.82222483  0.85342124  0.05307889  1
  O  O645  1  0.82157567  0.85297757  0.30178463  1
  O  O646  1  0.82157392  0.85294400  0.55154356  1
  O  O647  1  0.82265206  0.85190213  0.80088047  1
  O  O648  1  0.17669422  0.14682025  0.20145807  1
  O  O649  1  0.17897725  0.14731647  0.44907617  1
  O  O650  1  0.17681639  0.14605638  0.69924640  1
  O  O651  1  0.17651468  0.14790733  0.94833280  1
  O  O652  1  0.17521939  0.47912179  0.20059599  1
  O  O653  1  0.17720791  0.47873941  0.45056742  1
  O  O654  1  0.17743615  0.47881871  0.69862341  1
  O  O655  1  0.17695545  0.47918915  0.94885056  1
  O  O656  1  0.17732157  0.81259566  0.20001048  1
  O  O657  1  0.17586131  0.81297056  0.45148295  1
  O  O658  1  0.17618907  0.81196537  0.69942132  1
  O  O659  1  0.17603065  0.81297716  0.95045514  1
  O  O660  1  0.67689871  0.14556162  0.20155843  1
  O  O661  1  0.67767882  0.14553232  0.45090962  1
  O  O662  1  0.67665020  0.14582418  0.69962530  1
  O  O663  1  0.67570440  0.14673831  0.95092917  1
  O  O664  1  0.67645733  0.47952465  0.20006970  1
  O  O665  1  0.67735807  0.48097081  0.44883564  1
  O  O666  1  0.67859890  0.48116067  0.69698132  1
  O  O667  1  0.67679267  0.47997867  0.94903846  1
  O  O668  1  0.67875565  0.81389926  0.19925869  1
  O  O669  1  0.67889324  0.81396742  0.44775469  1
  O  O670  1  0.67880384  0.81387315  0.69647054  1
  O  O671  1  0.67725144  0.81541316  0.94908552  1
