# generated using pymatgen
data_Na2MnFe(PO4)2
_symmetry_space_group_name_H-M   'P 1'
_cell_length_a   22.34965796
_cell_length_b   20.10118224
_cell_length_c   19.44388566
_cell_angle_alpha   90.00217624
_cell_angle_beta   90.04908541
_cell_angle_gamma   90.06643829
_symmetry_Int_Tables_number   1
_chemical_formula_structural   Na2MnFe(PO4)2
_chemical_formula_sum   'Na96 Mn48 Fe48 P96 O384'
_cell_volume   8735.24497008
_cell_formula_units_Z   48
loop_
 _symmetry_equiv_pos_site_id
 _symmetry_equiv_pos_as_xyz
  1  'x, y, z'
loop_
 _atom_site_type_symbol
 _atom_site_label
 _atom_site_symmetry_multiplicity
 _atom_site_fract_x
 _atom_site_fract_y
 _atom_site_fract_z
 _atom_site_occupancy
  Na  Na0  1  0.14042384  0.24952196  0.24466191  1
  Na  Na1  1  0.14052438  0.24972954  0.49362190  1
  Na  Na2  1  0.14060255  0.24868522  0.74412915  1
  Na  Na3  1  0.14020616  0.24996725  0.99394223  1
  Na  Na4  1  0.14029976  0.58334887  0.24406005  1
  Na  Na5  1  0.14101262  0.58450841  0.49327212  1
  Na  Na6  1  0.14057426  0.58342303  0.74545732  1
  Na  Na7  1  0.14050690  0.58257445  0.99447730  1
  Na  Na8  1  0.14032230  0.91573741  0.24354300  1
  Na  Na9  1  0.14061890  0.91736752  0.49227214  1
  Na  Na10  1  0.14087670  0.91657602  0.74260600  1
  Na  Na11  1  0.14044225  0.91518571  0.99375010  1
  Na  Na12  1  0.63956250  0.24956743  0.24445285  1
  Na  Na13  1  0.63935513  0.24946032  0.49300689  1
  Na  Na14  1  0.63974146  0.25036876  0.74410152  1
  Na  Na15  1  0.63976744  0.25072922  0.99326364  1
  Na  Na16  1  0.63915331  0.58309748  0.24448476  1
  Na  Na17  1  0.63959570  0.58359833  0.49262149  1
  Na  Na18  1  0.63994042  0.58230529  0.74452246  1
  Na  Na19  1  0.63990734  0.58289713  0.99431365  1
  Na  Na20  1  0.64019092  0.91726593  0.24323961  1
  Na  Na21  1  0.64026694  0.91724743  0.49210854  1
  Na  Na22  1  0.63977479  0.91792770  0.74299572  1
  Na  Na23  1  0.63958772  0.91785108  0.99241350  1
  Na  Na24  1  0.36023149  0.08297277  0.00618361  1
  Na  Na25  1  0.35984749  0.08223851  0.25639471  1
  Na  Na26  1  0.36037369  0.08363599  0.50741688  1
  Na  Na27  1  0.36010943  0.08365758  0.75626232  1
  Na  Na28  1  0.36031063  0.41706641  0.00704692  1
  Na  Na29  1  0.35991642  0.41746134  0.25823932  1
  Na  Na30  1  0.35986786  0.41772001  0.50806710  1
  Na  Na31  1  0.36017926  0.41678403  0.75821949  1
  Na  Na32  1  0.36018624  0.75004210  0.00672165  1
  Na  Na33  1  0.35969989  0.74908112  0.25662976  1
  Na  Na34  1  0.35942378  0.75120605  0.50506946  1
  Na  Na35  1  0.36009185  0.75029320  0.75587659  1
  Na  Na36  1  0.85963664  0.08382236  0.00579554  1
  Na  Na37  1  0.85976797  0.08302732  0.25722331  1
  Na  Na38  1  0.86050333  0.08343483  0.50521800  1
  Na  Na39  1  0.86019252  0.08425517  0.75456257  1
  Na  Na40  1  0.86041104  0.41608039  0.00728928  1
  Na  Na41  1  0.85979140  0.41609692  0.25676115  1
  Na  Na42  1  0.85903435  0.41623724  0.50457563  1
  Na  Na43  1  0.85926110  0.41552158  0.75677964  1
  Na  Na44  1  0.85967349  0.75031950  0.00571142  1
  Na  Na45  1  0.85912143  0.75020734  0.25719114  1
  Na  Na46  1  0.85934579  0.75049111  0.50439954  1
  Na  Na47  1  0.85957735  0.74960760  0.75540642  1
  Na  Na48  1  0.10941736  0.08320031  0.11959398  1
  Na  Na49  1  0.11020685  0.08426285  0.36895631  1
  Na  Na50  1  0.11043574  0.08307594  0.61743411  1
  Na  Na51  1  0.11024890  0.08338520  0.86829547  1
  Na  Na52  1  0.10951338  0.41625367  0.12016242  1
  Na  Na53  1  0.10945328  0.41622991  0.36853386  1
  Na  Na54  1  0.10961754  0.41569625  0.61991152  1
  Na  Na55  1  0.10982102  0.41510014  0.86988210  1
  Na  Na56  1  0.11021721  0.74887279  0.11822734  1
  Na  Na57  1  0.11013787  0.75059709  0.36735881  1
  Na  Na58  1  0.11003195  0.75029187  0.61777488  1
  Na  Na59  1  0.10989619  0.74934806  0.86964816  1
  Na  Na60  1  0.60924393  0.08404025  0.11746735  1
  Na  Na61  1  0.60983876  0.08324741  0.36828540  1
  Na  Na62  1  0.60949254  0.08442379  0.61772220  1
  Na  Na63  1  0.60933261  0.08428962  0.86839468  1
  Na  Na64  1  0.60878663  0.41707110  0.11906637  1
  Na  Na65  1  0.60862022  0.41756121  0.36930722  1
  Na  Na66  1  0.60879501  0.41613796  0.61950572  1
  Na  Na67  1  0.60932265  0.41705862  0.86943083  1
  Na  Na68  1  0.60910642  0.75015994  0.11949245  1
  Na  Na69  1  0.60931442  0.74932894  0.36676774  1
  Na  Na70  1  0.60929138  0.75046437  0.61804527  1
  Na  Na71  1  0.60910388  0.75105410  0.86820026  1
  Na  Na72  1  0.39049961  0.25079434  0.13043848  1
  Na  Na73  1  0.39084355  0.24960840  0.38396696  1
  Na  Na74  1  0.39030273  0.24988627  0.63244963  1
  Na  Na75  1  0.39056627  0.25087579  0.88263748  1
  Na  Na76  1  0.39052490  0.58421424  0.13261180  1
  Na  Na77  1  0.38955717  0.58310547  0.38241973  1
  Na  Na78  1  0.39028092  0.58362387  0.63200557  1
  Na  Na79  1  0.39072097  0.58403814  0.88214052  1
  Na  Na80  1  0.39059789  0.91551881  0.13078659  1
  Na  Na81  1  0.39045117  0.91609806  0.38101803  1
  Na  Na82  1  0.39085091  0.91765722  0.63078484  1
  Na  Na83  1  0.39110863  0.91748029  0.88040998  1
  Na  Na84  1  0.89063052  0.24937895  0.13196906  1
  Na  Na85  1  0.89034089  0.24873052  0.38058292  1
  Na  Na86  1  0.88999978  0.24847431  0.63033938  1
  Na  Na87  1  0.89044493  0.24935852  0.88137527  1
  Na  Na88  1  0.89052765  0.58180457  0.13141238  1
  Na  Na89  1  0.88990101  0.58313262  0.38126924  1
  Na  Na90  1  0.89010126  0.58344520  0.62996644  1
  Na  Na91  1  0.89059871  0.58238414  0.88222898  1
  Na  Na92  1  0.89056031  0.91676837  0.13124583  1
  Na  Na93  1  0.89046314  0.91807297  0.38165574  1
  Na  Na94  1  0.89066151  0.91751724  0.62867022  1
  Na  Na95  1  0.89074825  0.91681070  0.87999943  1
  Mn  Mn96  1  0.74974244  0.66646752  0.62426438  1
  Mn  Mn97  1  0.74945814  0.66581134  0.87530660  1
  Mn  Mn98  1  -0.00037380  0.83391571  0.24969124  1
  Mn  Mn99  1  0.24983689  0.83334713  0.62456463  1
  Mn  Mn100  1  0.74992184  0.49979604  0.62464096  1
  Mn  Mn101  1  0.25044492  -0.00017577  0.37478634  1
  Mn  Mn102  1  0.74942928  0.33268318  0.37498736  1
  Mn  Mn103  1  -0.00008087  -0.00061557  -0.00034518  1
  Mn  Mn104  1  0.00047876  0.83389334  0.74911815  1
  Mn  Mn105  1  -0.00006790  0.66610081  0.00039987  1
  Mn  Mn106  1  0.50011929  0.66705582  0.00022968  1
  Mn  Mn107  1  0.49939061  -0.00054924  0.24885031  1
  Mn  Mn108  1  0.74987274  0.83374539  0.87449584  1
  Mn  Mn109  1  0.74924846  0.33236770  0.62509790  1
  Mn  Mn110  1  0.50018558  0.66681056  0.75020094  1
  Mn  Mn111  1  0.24939214  -0.00124636  0.12529159  1
  Mn  Mn112  1  0.25078824  0.50044480  0.87578817  1
  Mn  Mn113  1  -0.00064492  0.33168982  0.74951373  1
  Mn  Mn114  1  0.00077035  0.66713063  0.49973522  1
  Mn  Mn115  1  0.75001835  0.49990466  0.12560366  1
  Mn  Mn116  1  0.00000638  0.66688924  0.75024580  1
  Mn  Mn117  1  0.25067881  0.33300782  0.12629393  1
  Mn  Mn118  1  0.74911356  0.33234690  0.12556353  1
  Mn  Mn119  1  -0.00017559  0.16683176  0.00066074  1
  Mn  Mn120  1  0.25050044  0.16628950  0.12507793  1
  Mn  Mn121  1  0.49940534  0.16687106  0.24992236  1
  Mn  Mn122  1  0.25061480  0.33327530  0.37630950  1
  Mn  Mn123  1  0.00132622  0.00072009  0.74965153  1
  Mn  Mn124  1  0.75019632  0.00130068  0.12455762  1
  Mn  Mn125  1  -0.00024320  0.49910026  0.75033840  1
  Mn  Mn126  1  0.24989351  0.50046653  0.12559178  1
  Mn  Mn127  1  0.75043147  0.33286064  0.87520161  1
  Mn  Mn128  1  0.74988225  0.66672849  0.12526946  1
  Mn  Mn129  1  0.49992998  0.33399961  0.25082448  1
  Mn  Mn130  1  -0.00009474  0.49933196  0.49976632  1
  Mn  Mn131  1  -0.00079796  0.66584379  0.24921220  1
  Mn  Mn132  1  0.25075839  0.00013944  0.87461106  1
  Mn  Mn133  1  0.24986339  0.33320944  0.62577338  1
  Mn  Mn134  1  0.75020595  0.00109999  0.62388143  1
  Mn  Mn135  1  0.75026054  0.00170148  0.87369455  1
  Mn  Mn136  1  0.50008413  0.83390934  0.49943227  1
  Mn  Mn137  1  0.74947805  0.83346621  0.62377869  1
  Mn  Mn138  1  0.49941572  0.66604520  0.49985323  1
  Mn  Mn139  1  0.25056049  0.83211641  0.87391668  1
  Mn  Mn140  1  0.24982258  0.50144127  0.62667666  1
  Mn  Mn141  1  -0.00081459  0.33206254  0.49926787  1
  Mn  Mn142  1  0.74955916  0.83415020  0.12522430  1
  Mn  Mn143  1  0.49994702  0.16716679  0.75014245  1
  Fe  Fe144  1  0.24987986  0.50073728  0.37623202  1
  Fe  Fe145  1  0.25003314  0.83300306  0.37430581  1
  Fe  Fe146  1  0.74964236  0.66670077  0.37478567  1
  Fe  Fe147  1  0.25046524  0.00061336  0.62419797  1
  Fe  Fe148  1  0.00013676  0.83397692  0.49908939  1
  Fe  Fe149  1  0.00048788  0.33297198  0.00109542  1
  Fe  Fe150  1  0.49993588  0.83388360  -0.00065440  1
  Fe  Fe151  1  0.25063844  0.16640328  0.37581448  1
  Fe  Fe152  1  0.25069941  0.16696904  0.62560159  1
  Fe  Fe153  1  0.50048818  0.83333123  0.24961960  1
  Fe  Fe154  1  0.74972811  0.16705250  0.87485491  1
  Fe  Fe155  1  0.49992819  0.16640640  0.50062779  1
  Fe  Fe156  1  0.00045604  0.16628887  0.74977314  1
  Fe  Fe157  1  0.25023961  0.83218622  0.12455555  1
  Fe  Fe158  1  0.00036369  0.83315224  0.00003647  1
  Fe  Fe159  1  0.75042292  0.49952552  0.87515929  1
  Fe  Fe160  1  0.50029705  0.83444173  0.74944351  1
  Fe  Fe161  1  0.00089925  0.16648252  0.49912942  1
  Fe  Fe162  1  0.25030798  0.66676862  0.87546769  1
  Fe  Fe163  1  0.74948155  0.00078052  0.37426607  1
  Fe  Fe164  1  0.50001115  0.16736394  -0.00088468  1
  Fe  Fe165  1  0.00059597  -0.00004326  0.25043253  1
  Fe  Fe166  1  -0.00014152  0.33290512  0.24981310  1
  Fe  Fe167  1  0.49985063  0.33378589  0.75073717  1
  Fe  Fe168  1  0.49942339  0.33381044  0.50112144  1
  Fe  Fe169  1  0.50068732  0.00000375  0.49996498  1
  Fe  Fe170  1  0.25017011  0.33291990  0.87561286  1
  Fe  Fe171  1  0.24986475  0.16630216  0.87487769  1
  Fe  Fe172  1  0.74962068  0.16669544  0.62412962  1
  Fe  Fe173  1  0.25044837  0.66669231  0.12569471  1
  Fe  Fe174  1  0.49963694  0.66618171  0.24986783  1
  Fe  Fe175  1  0.49986344  0.50026030  0.00085804  1
  Fe  Fe176  1  0.74989496  0.16637541  0.37454394  1
  Fe  Fe177  1  0.25020951  0.66740029  0.62418769  1
  Fe  Fe178  1  -0.00004725  0.49913303  0.24995989  1
  Fe  Fe179  1  0.24951982  0.66732965  0.37464800  1
  Fe  Fe180  1  0.74960605  0.83379824  0.37456635  1
  Fe  Fe181  1  0.49941678  0.33430073  0.00051202  1
  Fe  Fe182  1  0.49876071  0.49998575  0.25051250  1
  Fe  Fe183  1  0.49993967  -0.00000775  -0.00046345  1
  Fe  Fe184  1  0.00005307  0.16636012  0.25024892  1
  Fe  Fe185  1  0.74960934  0.16659293  0.12511568  1
  Fe  Fe186  1  0.00063515  0.00074636  0.49950935  1
  Fe  Fe187  1  0.74891020  0.49989551  0.37509592  1
  Fe  Fe188  1  0.00022130  0.49872976  0.00073488  1
  Fe  Fe189  1  0.49978109  0.49967113  0.75094186  1
  Fe  Fe190  1  0.50022697  0.00078829  0.74990778  1
  Fe  Fe191  1  0.49975840  0.49967695  0.50115465  1
  P  P192  1  0.04229968  0.25100390  0.10396145  1
  P  P193  1  0.04138134  0.24969270  0.35156613  1
  P  P194  1  0.04238451  0.24807625  0.60220952  1
  P  P195  1  0.04235338  0.24856514  0.85286770  1
  P  P196  1  0.04203190  0.58086904  0.10308798  1
  P  P197  1  0.04186883  0.58211188  0.35198332  1
  P  P198  1  0.04325781  0.58300720  0.60303139  1
  P  P199  1  0.04237541  0.58247883  0.85415683  1
  P  P200  1  0.04246437  0.91562009  0.10278202  1
  P  P201  1  0.04225308  0.91819319  0.35316724  1
  P  P202  1  0.04209732  0.91703660  0.60053566  1
  P  P203  1  0.04375919  0.91640738  0.85305405  1
  P  P204  1  0.54091585  0.25066278  0.10133608  1
  P  P205  1  0.54192599  0.25004184  0.35439250  1
  P  P206  1  0.54072461  0.25051466  0.60206523  1
  P  P207  1  0.54145669  0.25169992  0.85339055  1
  P  P208  1  0.54170852  0.58251201  0.10356644  1
  P  P209  1  0.54026122  0.58271780  0.35208954  1
  P  P210  1  0.54195160  0.58178110  0.60315986  1
  P  P211  1  0.54182681  0.58209485  0.85322237  1
  P  P212  1  0.54137883  0.91631898  0.10120054  1
  P  P213  1  0.54218008  0.91602177  0.35200297  1
  P  P214  1  0.54259906  0.91829233  0.60266110  1
  P  P215  1  0.54145493  0.91770020  0.85177837  1
  P  P216  1  0.45727022  0.08352036  0.14551135  1
  P  P217  1  0.45881174  0.08280448  0.39865631  1
  P  P218  1  0.45850291  0.08249364  0.64689302  1
  P  P219  1  0.45892378  0.08321948  0.89792125  1
  P  P220  1  0.45731619  0.41796347  0.14764926  1
  P  P221  1  0.45802435  0.41719871  0.39933007  1
  P  P222  1  0.45816788  0.41666145  0.64883673  1
  P  P223  1  0.45863771  0.41753019  0.89843833  1
  P  P224  1  0.45876908  0.75019007  0.14831348  1
  P  P225  1  0.45776891  0.74985968  0.39574309  1
  P  P226  1  0.45812429  0.75153969  0.64752800  1
  P  P227  1  0.45815910  0.75189945  0.89702964  1
  P  P228  1  0.95856089  0.08274881  0.14892538  1
  P  P229  1  0.95946706  0.08357901  0.39725192  1
  P  P230  1  0.95885358  0.08453779  0.64617991  1
  P  P231  1  0.95759169  0.08364821  0.89656419  1
  P  P232  1  0.95837360  0.41595077  0.14803134  1
  P  P233  1  0.95710196  0.41595073  0.39545132  1
  P  P234  1  0.95650762  0.41573248  0.64672214  1
  P  P235  1  0.95868502  0.41527682  0.89893492  1
  P  P236  1  0.95692181  0.75001560  0.14622168  1
  P  P237  1  0.95811987  0.75141313  0.39700268  1
  P  P238  1  0.95757855  0.75066470  0.64574022  1
  P  P239  1  0.95784448  0.75109348  0.89760785  1
  P  P240  1  0.20753744  0.08302063  0.22877815  1
  P  P241  1  0.20879302  0.08441461  0.47834471  1
  P  P242  1  0.20903429  0.08359215  0.72649352  1
  P  P243  1  0.20779943  0.08395955  0.97725938  1
  P  P244  1  0.20800722  0.41709666  0.22968664  1
  P  P245  1  0.20783758  0.41810895  0.47824948  1
  P  P246  1  0.20775657  0.41630137  0.72963324  1
  P  P247  1  0.20837384  0.41559537  0.97797871  1
  P  P248  1  0.20857863  0.74977244  0.22713356  1
  P  P249  1  0.20846176  0.75046399  0.47629464  1
  P  P250  1  0.20786951  0.74821117  0.72725107  1
  P  P251  1  0.20830501  0.74854028  0.97823173  1
  P  P252  1  0.70731008  0.08474539  0.22787728  1
  P  P253  1  0.70858026  0.08399111  0.47634822  1
  P  P254  1  0.70741252  0.08548450  0.72701191  1
  P  P255  1  0.70738887  0.08534074  0.97733411  1
  P  P256  1  0.70677878  0.41658468  0.22895978  1
  P  P257  1  0.70696174  0.41719095  0.47736666  1
  P  P258  1  0.70726596  0.41653920  0.72869729  1
  P  P259  1  0.70800264  0.41733642  0.97755851  1
  P  P260  1  0.70732234  0.75033889  0.22921513  1
  P  P261  1  0.70768654  0.75013261  0.47562649  1
  P  P262  1  0.70673041  0.74983862  0.72755145  1
  P  P263  1  0.70661900  0.75024448  0.97804527  1
  P  P264  1  0.29258957  0.25012951  0.02128512  1
  P  P265  1  0.29318840  0.24851794  0.27378605  1
  P  P266  1  0.29235484  0.24899840  0.52306818  1
  P  P267  1  0.29176926  0.24941703  0.77369228  1
  P  P268  1  0.29248605  0.58497022  0.02302424  1
  P  P269  1  0.29096030  0.58382063  0.27390944  1
  P  P270  1  0.29205203  0.58492072  0.52221968  1
  P  P271  1  0.29288840  0.58536999  0.77288774  1
  P  P272  1  0.29229002  0.91498628  0.02246670  1
  P  P273  1  0.29222807  0.91457144  0.27185719  1
  P  P274  1  0.29222671  0.91772963  0.52193701  1
  P  P275  1  0.29275229  0.91690817  0.77075871  1
  P  P276  1  0.79204241  0.24838391  0.02258640  1
  P  P277  1  0.79183408  0.24821396  0.27214722  1
  P  P278  1  0.79172937  0.24837331  0.52157606  1
  P  P279  1  0.79220190  0.24828047  0.77205892  1
  P  P280  1  0.79286607  0.58281448  0.02171318  1
  P  P281  1  0.79108755  0.58322977  0.27374054  1
  P  P282  1  0.79217686  0.58330652  0.52023951  1
  P  P283  1  0.79252827  0.58181538  0.77268832  1
  P  P284  1  0.79273890  0.91751560  0.02153579  1
  P  P285  1  0.79122914  0.91727888  0.27335871  1
  P  P286  1  0.79200870  0.91708847  0.51984402  1
  P  P287  1  0.79293858  0.91744743  0.77087978  1
  O  O288  1  0.03686543  0.25084705  0.18383882  1
  O  O289  1  0.03661038  0.24898624  0.43154563  1
  O  O290  1  0.03735791  0.24790716  0.68218511  1
  O  O291  1  0.03741938  0.24948114  0.93283913  1
  O  O292  1  0.03658057  0.58059891  0.18304196  1
  O  O293  1  0.03721129  0.58264276  0.43198227  1
  O  O294  1  0.03811882  0.58324100  0.68305138  1
  O  O295  1  0.03701539  0.58203391  0.93415640  1
  O  O296  1  0.03711904  0.91658609  0.18273799  1
  O  O297  1  0.03680961  0.91774784  0.43304381  1
  O  O298  1  0.03792512  0.91736378  0.68059417  1
  O  O299  1  0.03857372  0.91584226  0.93302680  1
  O  O300  1  0.53637967  0.25031276  0.18138464  1
  O  O301  1  0.53671330  0.24988548  0.43426001  1
  O  O302  1  0.53636475  0.25063653  0.68208366  1
  O  O303  1  0.53607073  0.25140800  0.93322963  1
  O  O304  1  0.53603280  0.58261299  0.18343935  1
  O  O305  1  0.53570334  0.58274907  0.43207280  1
  O  O306  1  0.53669824  0.58190666  0.68311477  1
  O  O307  1  0.53646712  0.58227714  0.93318054  1
  O  O308  1  0.53630007  0.91580914  0.18116763  1
  O  O309  1  0.53733483  0.91684974  0.43194333  1
  O  O310  1  0.53718421  0.91808179  0.68254087  1
  O  O311  1  0.53611309  0.91766712  0.93168109  1
  O  O312  1  0.46266311  0.08339364  0.06562195  1
  O  O313  1  0.46314059  0.08327878  0.31859847  1
  O  O314  1  0.46394372  0.08263457  0.56702754  1
  O  O315  1  0.46389711  0.08324177  0.81791107  1
  O  O316  1  0.46259547  0.41786517  0.06777763  1
  O  O317  1  0.46278493  0.41721138  0.31934897  1
  O  O318  1  0.46321786  0.41669414  0.56893155  1
  O  O319  1  0.46357024  0.41732072  0.81852120  1
  O  O320  1  0.46351832  0.74993150  0.06832335  1
  O  O321  1  0.46325455  0.74994642  0.31587052  1
  O  O322  1  0.46316073  0.75098353  0.56753917  1
  O  O323  1  0.46361003  0.75191063  0.81711173  1
  O  O324  1  0.96316021  0.08290568  0.06892282  1
  O  O325  1  0.96425141  0.08304657  0.31734497  1
  O  O326  1  0.96425985  0.08454753  0.56629183  1
  O  O327  1  0.96291387  0.08409479  0.81662120  1
  O  O328  1  0.96382959  0.41606431  0.06809450  1
  O  O329  1  0.96245910  0.41601371  0.31551713  1
  O  O330  1  0.96141876  0.41565848  0.56671450  1
  O  O331  1  0.96320256  0.41521265  0.81888942  1
  O  O332  1  0.96219756  0.75045778  0.06627693  1
  O  O333  1  0.96277246  0.75103445  0.31696522  1
  O  O334  1  0.96294378  0.75112752  0.56574538  1
  O  O335  1  0.96310857  0.75076586  0.81758679  1
  O  O336  1  0.21277847  0.08340614  0.05725053  1
  O  O337  1  0.21299490  0.08333952  0.30874123  1
  O  O338  1  0.21439565  0.08418454  0.55824559  1
  O  O339  1  0.21399354  0.08386993  0.80651318  1
  O  O340  1  0.21329374  0.41588403  0.05803904  1
  O  O341  1  0.21335001  0.41777726  0.30965429  1
  O  O342  1  0.21266192  0.41795316  0.55830692  1
  O  O343  1  0.21329970  0.41559784  0.80957444  1
  O  O344  1  0.21377806  0.74905584  0.05815864  1
  O  O345  1  0.21336220  0.75032928  0.30708422  1
  O  O346  1  0.21319198  0.75002487  0.55627649  1
  O  O347  1  0.21312159  0.74819162  0.80722191  1
  O  O348  1  0.71228509  0.08517885  0.05734739  1
  O  O349  1  0.71248888  0.08433782  0.30783188  1
  O  O350  1  0.71318554  0.08405369  0.55636102  1
  O  O351  1  0.71258411  0.08562183  0.80699912  1
  O  O352  1  0.71258541  0.41684136  0.05759945  1
  O  O353  1  0.71195263  0.41697162  0.30894514  1
  O  O354  1  0.71205424  0.41685718  0.55736653  1
  O  O355  1  0.71290946  0.41687671  0.80866299  1
  O  O356  1  0.71166509  0.75028805  0.05809007  1
  O  O357  1  0.71287970  0.75048728  0.30915423  1
  O  O358  1  0.71255654  0.74995273  0.55569907  1
  O  O359  1  0.71173504  0.74991067  0.80755261  1
  O  O360  1  0.28808296  0.24900195  0.19377036  1
  O  O361  1  0.28728117  0.24892525  0.44311428  1
  O  O362  1  0.28676169  0.24922876  0.69364668  1
  O  O363  1  0.28709362  0.25035853  0.94134609  1
  O  O364  1  0.28636075  0.58418341  0.19388945  1
  O  O365  1  0.28631297  0.58390392  0.44235054  1
  O  O366  1  0.28768142  0.58537036  0.69291500  1
  O  O367  1  0.28731637  0.58487110  0.94306009  1
  O  O368  1  0.28674108  0.91423214  0.19191459  1
  O  O369  1  0.28719680  0.91720525  0.44196396  1
  O  O370  1  0.28714462  0.91769699  0.69083204  1
  O  O371  1  0.28765114  0.91522368  0.94242495  1
  O  O372  1  0.78658055  0.24810530  0.19218724  1
  O  O373  1  0.78647679  0.24837682  0.44161731  1
  O  O374  1  0.78689569  0.24835513  0.69207249  1
  O  O375  1  0.78700252  0.24847729  0.94257054  1
  O  O376  1  0.78629028  0.58342083  0.19369146  1
  O  O377  1  0.78659269  0.58322408  0.44030397  1
  O  O378  1  0.78766802  0.58214526  0.69262225  1
  O  O379  1  0.78781039  0.58202620  0.94171019  1
  O  O380  1  0.78670422  0.91767184  0.19328548  1
  O  O381  1  0.78640653  0.91706658  0.43992484  1
  O  O382  1  0.78764617  0.91747545  0.69085547  1
  O  O383  1  0.78788703  0.91767726  0.94152779  1
  O  O384  1  0.22846363  0.25007793  0.05719381  1
  O  O385  1  0.22880262  0.24836733  0.30909941  1
  O  O386  1  0.22807783  0.24879183  0.55860030  1
  O  O387  1  0.22761633  0.24907515  0.80962691  1
  O  O388  1  0.22821694  0.58530777  0.05867364  1
  O  O389  1  0.22680552  0.58333707  0.30963157  1
  O  O390  1  0.22797233  0.58536189  0.55849300  1
  O  O391  1  0.22865682  0.58496002  0.80864334  1
  O  O392  1  0.22789414  0.91456995  0.05765643  1
  O  O393  1  0.22808779  0.91510701  0.30777756  1
  O  O394  1  0.22800240  0.91793237  0.55758829  1
  O  O395  1  0.22863132  0.91647577  0.80646020  1
  O  O396  1  0.72762025  0.24793656  0.05797688  1
  O  O397  1  0.72757016  0.24816292  0.30773870  1
  O  O398  1  0.72745079  0.24817408  0.55730487  1
  O  O399  1  0.72795310  0.24868718  0.80777169  1
  O  O400  1  0.72843165  0.58309489  0.05671653  1
  O  O401  1  0.72680233  0.58357459  0.30925196  1
  O  O402  1  0.72796056  0.58318239  0.55594163  1
  O  O403  1  0.72808624  0.58130902  0.80785120  1
  O  O404  1  0.72823865  0.91781632  0.05635454  1
  O  O405  1  0.72693494  0.91680677  0.30862434  1
  O  O406  1  0.72792896  0.91751576  0.55582793  1
  O  O407  1  0.72854269  0.91762143  0.80594957  1
  O  O408  1  0.27177426  0.08241850  0.19335104  1
  O  O409  1  0.27286703  0.08459830  0.44209930  1
  O  O410  1  0.27321619  0.08347832  0.69064751  1
  O  O411  1  0.27217288  0.08484362  0.94189184  1
  O  O412  1  0.27225144  0.41724643  0.19421538  1
  O  O413  1  0.27225667  0.41807602  0.44319124  1
  O  O414  1  0.27192419  0.41679508  0.69399532  1
  O  O415  1  0.27265209  0.41564896  0.94259401  1
  O  O416  1  0.27275365  0.74955620  0.19111025  1
  O  O417  1  0.27262303  0.75065959  0.44051942  1
  O  O418  1  0.27212827  0.74880858  0.69152729  1
  O  O419  1  0.27245851  0.74816452  0.94208231  1
  O  O420  1  0.77166279  0.08544387  0.19225925  1
  O  O421  1  0.77277403  0.08421131  0.44067956  1
  O  O422  1  0.77172595  0.08571263  0.69139648  1
  O  O423  1  0.77179715  0.08560471  0.94200561  1
  O  O424  1  0.77112444  0.41596774  0.19378308  1
  O  O425  1  0.77121655  0.41734007  0.44188911  1
  O  O426  1  0.77143942  0.41603642  0.69306808  1
  O  O427  1  0.77242440  0.41736732  0.94245689  1
  O  O428  1  0.77151528  0.75047204  0.19346193  1
  O  O429  1  0.77191689  0.74996353  0.44000383  1
  O  O430  1  0.77119130  0.74998433  0.69261711  1
  O  O431  1  0.77108159  0.74998273  0.94317233  1
  O  O432  1  0.02283959  0.08222972  0.18450730  1
  O  O433  1  0.02352153  0.08405657  0.43349892  1
  O  O434  1  0.02298537  0.08520608  0.68254445  1
  O  O435  1  0.02184675  0.08347873  0.93208863  1
  O  O436  1  0.02237294  0.41584229  0.18460219  1
  O  O437  1  0.02131256  0.41554306  0.43125099  1
  O  O438  1  0.02101369  0.41555352  0.68160728  1
  O  O439  1  0.02292757  0.41491049  0.93466912  1
  O  O440  1  0.02126970  0.74978328  0.18152818  1
  O  O441  1  0.02252975  0.75187905  0.43219987  1
  O  O442  1  0.02195491  0.75013717  0.68107084  1
  O  O443  1  0.02208948  0.75109372  0.93343658  1
  O  O444  1  0.52144882  0.08346699  0.18140317  1
  O  O445  1  0.52309840  0.08253804  0.43418558  1
  O  O446  1  0.52254247  0.08263719  0.68324268  1
  O  O447  1  0.52294940  0.08271823  0.93404815  1
  O  O448  1  0.52147880  0.41869820  0.18378046  1
  O  O449  1  0.52221297  0.41751244  0.43526071  1
  O  O450  1  0.52224521  0.41662101  0.68523876  1
  O  O451  1  0.52261418  0.41776075  0.93495624  1
  O  O452  1  0.52284977  0.75037555  0.18438772  1
  O  O453  1  0.52186482  0.74978873  0.43179943  1
  O  O454  1  0.52233794  0.75153646  0.68321996  1
  O  O455  1  0.52226195  0.75179051  0.93317706  1
  O  O456  1  0.47679285  0.25081284  0.06555392  1
  O  O457  1  0.47772474  0.25027468  0.31855012  1
  O  O458  1  0.47656967  0.25033693  0.56635165  1
  O  O459  1  0.47743738  0.25187082  0.81695936  1
  O  O460  1  0.47768396  0.58241552  0.06710736  1
  O  O461  1  0.47611397  0.58236910  0.31612668  1
  O  O462  1  0.47762660  0.58147027  0.56744719  1
  O  O463  1  0.47768292  0.58228689  0.81720420  1
  O  O464  1  0.47723393  0.91681578  0.06507702  1
  O  O465  1  0.47785626  0.91506314  0.31639590  1
  O  O466  1  0.47839071  0.91866912  0.56656069  1
  O  O467  1  0.47751519  0.91779059  0.81507320  1
  O  O468  1  0.97817432  0.25144218  0.06769528  1
  O  O469  1  0.97726128  0.25040139  0.31560162  1
  O  O470  1  0.97803228  0.24762440  0.56662987  1
  O  O471  1  0.97800346  0.24743811  0.81721449  1
  O  O472  1  0.97791568  0.58121359  0.06714014  1
  O  O473  1  0.97744050  0.58176957  0.31682653  1
  O  O474  1  0.97881572  0.58329876  0.56794096  1
  O  O475  1  0.97814100  0.58290977  0.81849740  1
  O  O476  1  0.97821537  0.91487931  0.06692383  1
  O  O477  1  0.97808309  0.91871674  0.31701464  1
  O  O478  1  0.97779441  0.91658374  0.56515250  1
  O  O479  1  0.97938866  0.91723212  0.81778395  1
  O  O480  1  0.07348260  0.31423095  0.07517958  1
  O  O481  1  0.07277317  0.31319461  0.32389302  1
  O  O482  1  0.07291888  0.31217558  0.57448094  1
  O  O483  1  0.07293946  0.31218201  0.82421966  1
  O  O484  1  0.07340170  0.64458795  0.07583705  1
  O  O485  1  0.07272506  0.64580719  0.32387103  1
  O  O486  1  0.07451099  0.64628060  0.57457176  1
  O  O487  1  0.07358966  0.64607676  0.82638350  1
  O  O488  1  0.07351419  0.97913012  0.07453226  1
  O  O489  1  0.07349491  0.98149978  0.32468038  1
  O  O490  1  0.07229036  0.98107026  0.57212250  1
  O  O491  1  0.07507083  0.97988939  0.82496459  1
  O  O492  1  0.57182948  0.31451941  0.07374031  1
  O  O493  1  0.57313210  0.31349476  0.32600256  1
  O  O494  1  0.57162618  0.31407137  0.57362442  1
  O  O495  1  0.57249155  0.31509822  0.82481879  1
  O  O496  1  0.57302902  0.64607712  0.07562397  1
  O  O497  1  0.57054254  0.64669186  0.32348238  1
  O  O498  1  0.57266589  0.64562930  0.57507013  1
  O  O499  1  0.57300720  0.64578646  0.82547496  1
  O  O500  1  0.57243645  0.98006882  0.07343096  1
  O  O501  1  0.57279179  0.97966893  0.32342543  1
  O  O502  1  0.57371143  0.98157820  0.57382863  1
  O  O503  1  0.57261505  0.98126827  0.82354137  1
  O  O504  1  0.42606577  0.02009565  0.17404449  1
  O  O505  1  0.42782565  0.01906857  0.42631414  1
  O  O506  1  0.42755054  0.01916730  0.67569728  1
  O  O507  1  0.42720006  0.02009752  0.92603860  1
  O  O508  1  0.42674907  0.35407832  0.17591568  1
  O  O509  1  0.42777782  0.35320955  0.42790039  1
  O  O510  1  0.42738352  0.35294416  0.67735067  1
  O  O511  1  0.42806317  0.35369615  0.92702328  1
  O  O512  1  0.42833983  0.68624777  0.17688645  1
  O  O513  1  0.42644879  0.68653525  0.42414607  1
  O  O514  1  0.42690362  0.68800982  0.67540564  1
  O  O515  1  0.42705469  0.68823249  0.92487629  1
  O  O516  1  0.92732704  0.01936314  0.17706322  1
  O  O517  1  0.92898290  0.01991520  0.42638287  1
  O  O518  1  0.92809237  0.02057142  0.67396116  1
  O  O519  1  0.92653138  0.01994153  0.92434548  1
  O  O520  1  0.92718543  0.35239908  0.17613764  1
  O  O521  1  0.92564800  0.35261235  0.42368957  1
  O  O522  1  0.92550284  0.35219430  0.67488995  1
  O  O523  1  0.92761812  0.35180155  0.92722624  1
  O  O524  1  0.92590145  0.68626818  0.17405227  1
  O  O525  1  0.92731703  0.68761993  0.42473632  1
  O  O526  1  0.92627470  0.68723552  0.67386498  1
  O  O527  1  0.92659151  0.68750259  0.92523056  1
  O  O528  1  0.17617554  0.01954415  0.20081609  1
  O  O529  1  0.17751954  0.02094133  0.45020152  1
  O  O530  1  0.17824218  0.01980586  0.69825561  1
  O  O531  1  0.17737171  0.02001678  0.94918002  1
  O  O532  1  0.17730268  0.35312495  0.20205555  1
  O  O533  1  0.17679797  0.35434434  0.45054654  1
  O  O534  1  0.17647963  0.35311724  0.70089199  1
  O  O535  1  0.17768088  0.35202896  0.94946804  1
  O  O536  1  0.17766512  0.68599278  0.19903346  1
  O  O537  1  0.17760781  0.68697648  0.44748563  1
  O  O538  1  0.17726243  0.68480211  0.69834907  1
  O  O539  1  0.17717120  0.68507039  0.94993678  1
  O  O540  1  0.67662994  0.02097542  0.19941063  1
  O  O541  1  0.67831327  0.01997107  0.44777535  1
  O  O542  1  0.67670768  0.02157823  0.69916563  1
  O  O543  1  0.67672056  0.02151238  0.94913464  1
  O  O544  1  0.67554268  0.35302329  0.20094128  1
  O  O545  1  0.67587314  0.35351886  0.44972654  1
  O  O546  1  0.67601709  0.35291770  0.70079185  1
  O  O547  1  0.67693937  0.35371584  0.94958527  1
  O  O548  1  0.67615790  0.68681754  0.20108990  1
  O  O549  1  0.67663641  0.68650380  0.44757832  1
  O  O550  1  0.67587689  0.68615771  0.69946275  1
  O  O551  1  0.67546168  0.68674890  0.95001871  1
  O  O552  1  0.32389022  0.31335618  0.05010535  1
  O  O553  1  0.32426636  0.31211681  0.30182075  1
  O  O554  1  0.32309730  0.31297180  0.55079326  1
  O  O555  1  0.32211638  0.31351469  0.80177034  1
  O  O556  1  0.32377459  0.64804023  0.05187078  1
  O  O557  1  0.32143165  0.64766569  0.30241091  1
  O  O558  1  0.32302771  0.64872330  0.55002017  1
  O  O559  1  0.32365208  0.64873188  0.80171416  1
  O  O560  1  0.32300027  0.97880510  0.05039694  1
  O  O561  1  0.32369152  0.97821724  0.29931693  1
  O  O562  1  0.32293453  0.98136926  0.55043758  1
  O  O563  1  0.32402767  0.98004729  0.79956799  1
  O  O564  1  0.82253246  0.31239424  0.05057637  1
  O  O565  1  0.82278834  0.31200411  0.29987786  1
  O  O566  1  0.82253261  0.31224058  0.54943680  1
  O  O567  1  0.82349891  0.31190375  0.79995539  1
  O  O568  1  0.82377690  0.64654449  0.04964351  1
  O  O569  1  0.82231700  0.64676688  0.30170062  1
  O  O570  1  0.82323241  0.64689361  0.54855934  1
  O  O571  1  0.82326922  0.64566631  0.80053607  1
  O  O572  1  0.82394350  0.98088910  0.04991607  1
  O  O573  1  0.82145493  0.98130535  0.30181592  1
  O  O574  1  0.82362868  0.98033095  0.54808100  1
  O  O575  1  0.82404698  0.98104382  0.79875181  1
  O  O576  1  0.42611108  0.14679778  0.17407928  1
  O  O577  1  0.42857331  0.14655759  0.42753294  1
  O  O578  1  0.42726487  0.14600086  0.67496847  1
  O  O579  1  0.42892698  0.14750391  0.92593556  1
  O  O580  1  0.42589597  0.48098515  0.17645937  1
  O  O581  1  0.42679157  0.48045485  0.42763659  1
  O  O582  1  0.42720638  0.48016145  0.67730725  1
  O  O583  1  0.42739224  0.48088063  0.92679337  1
  O  O584  1  0.42766837  0.81362389  0.17633843  1
  O  O585  1  0.42656880  0.81317903  0.42417473  1
  O  O586  1  0.42758239  0.81530944  0.67546844  1
  O  O587  1  0.42729821  0.81526736  0.92564440  1
  O  O588  1  0.92850756  0.14683940  0.17719958  1
  O  O589  1  0.92825626  0.14703007  0.42533588  1
  O  O590  1  0.92754555  0.14750516  0.67515807  1
  O  O591  1  0.92632406  0.14663721  0.92543115  1
  O  O592  1  0.92749354  0.47955576  0.17644535  1
  O  O593  1  0.92620153  0.47936537  0.42391392  1
  O  O594  1  0.92573507  0.47921169  0.67502110  1
  O  O595  1  0.92847907  0.47927181  0.92711843  1
  O  O596  1  0.92567058  0.81309020  0.17488955  1
  O  O597  1  0.92736859  0.81496778  0.42519538  1
  O  O598  1  0.92667533  0.81411021  0.67409908  1
  O  O599  1  0.92732279  0.81481610  0.92567650  1
  O  O600  1  0.07314162  0.18726859  0.07594290  1
  O  O601  1  0.07163243  0.18586383  0.32286262  1
  O  O602  1  0.07367843  0.18523296  0.57309560  1
  O  O603  1  0.07341335  0.18518746  0.82458729  1
  O  O604  1  0.07282532  0.51752775  0.07430036  1
  O  O605  1  0.07256097  0.51852578  0.32379427  1
  O  O606  1  0.07393347  0.51929336  0.57513892  1
  O  O607  1  0.07340538  0.51908951  0.82588037  1
  O  O608  1  0.07325510  0.85193831  0.07485554  1
  O  O609  1  0.07308727  0.85457509  0.32486859  1
  O  O610  1  0.07314351  0.85357576  0.57241918  1
  O  O611  1  0.07460681  0.85313970  0.82426137  1
  O  O612  1  0.57139752  0.18700045  0.07265105  1
  O  O613  1  0.57295465  0.18678468  0.32557408  1
  O  O614  1  0.57129342  0.18671397  0.57366936  1
  O  O615  1  0.57249945  0.18818030  0.82511391  1
  O  O616  1  0.57272448  0.51920397  0.07489482  1
  O  O617  1  0.57154154  0.51945323  0.32387452  1
  O  O618  1  0.57300151  0.51858689  0.57453488  1
  O  O619  1  0.57262737  0.51872928  0.82467240  1
  O  O620  1  0.57198069  0.85270707  0.07263951  1
  O  O621  1  0.57315916  0.85258085  0.32377428  1
  O  O622  1  0.57349874  0.85468628  0.57439887  1
  O  O623  1  0.57219288  0.85402256  0.82333058  1
  O  O624  1  0.32373569  0.18662675  0.04931450  1
  O  O625  1  0.32380364  0.18487344  0.30199811  1
  O  O626  1  0.32346455  0.18590434  0.55194024  1
  O  O627  1  0.32299943  0.18605573  0.80192266  1
  O  O628  1  0.32302114  0.52101522  0.05087893  1
  O  O629  1  0.32200642  0.52032793  0.30217764  1
  O  O630  1  0.32320889  0.52171388  0.55111121  1
  O  O631  1  0.32398496  0.52169108  0.80070008  1
  O  O632  1  0.32307502  0.85154729  0.05097615  1
  O  O633  1  0.32287550  0.85124836  0.30080021  1
  O  O634  1  0.32346469  0.85431297  0.54999047  1
  O  O635  1  0.32385069  0.85321916  0.79822928  1
  O  O636  1  0.82322932  0.18533052  0.05139117  1
  O  O637  1  0.82281654  0.18503527  0.30098858  1
  O  O638  1  0.82273560  0.18513125  0.55015940  1
  O  O639  1  0.82289912  0.18499247  0.80091028  1
  O  O640  1  0.82398428  0.51970736  0.05065565  1
  O  O641  1  0.82133826  0.51917239  0.30159705  1
  O  O642  1  0.82357423  0.52012204  0.54868241  1
  O  O643  1  0.82328601  0.51832945  0.80123583  1
  O  O644  1  0.82341838  0.85399213  0.04988650  1
  O  O645  1  0.82240454  0.85382467  0.30126773  1
  O  O646  1  0.82290221  0.85353369  0.54810055  1
  O  O647  1  0.82385054  0.85396888  0.79904533  1
  O  O648  1  0.17658465  0.14637817  0.20040139  1
  O  O649  1  0.17786660  0.14782945  0.44970543  1
  O  O650  1  0.17819860  0.14714040  0.69811204  1
  O  O651  1  0.17665656  0.14727011  0.94902724  1
  O  O652  1  0.17648986  0.47994173  0.20076987  1
  O  O653  1  0.17720791  0.48157761  0.44962922  1
  O  O654  1  0.17658402  0.47997601  0.70217804  1
  O  O655  1  0.17732630  0.47925251  0.95035822  1
  O  O656  1  0.17781147  0.81319018  0.19813699  1
  O  O657  1  0.17779200  0.81423744  0.44817952  1
  O  O658  1  0.17662580  0.81184349  0.69950756  1
  O  O659  1  0.17738049  0.81200090  0.94964258  1
  O  O660  1  0.67605946  0.14786091  0.19912750  1
  O  O661  1  0.67726757  0.14722337  0.44807826  1
  O  O662  1  0.67631066  0.14863243  0.69822551  1
  O  O663  1  0.67642835  0.14856296  0.94859111  1
  O  O664  1  0.67586697  0.47990687  0.20044146  1
  O  O665  1  0.67633696  0.48080431  0.44900369  1
  O  O666  1  0.67606244  0.47969891  0.70026727  1
  O  O667  1  0.67754740  0.48098369  0.94914126  1
  O  O668  1  0.67609696  0.81363033  0.20067719  1
  O  O669  1  0.67714592  0.81400938  0.44776009  1
  O  O670  1  0.67571782  0.81320186  0.69919439  1
  O  O671  1  0.67587870  0.81378764  0.94978282  1
