# generated using pymatgen
data_Na2MnFe(PO4)2
_symmetry_space_group_name_H-M   'P 1'
_cell_length_a   22.34721484
_cell_length_b   20.09659198
_cell_length_c   19.44653873
_cell_angle_alpha   90.02448615
_cell_angle_beta   90.01176945
_cell_angle_gamma   89.98646678
_symmetry_Int_Tables_number   1
_chemical_formula_structural   Na2MnFe(PO4)2
_chemical_formula_sum   'Na96 Mn48 Fe48 P96 O384'
_cell_volume   8733.49490528
_cell_formula_units_Z   48
loop_
 _symmetry_equiv_pos_site_id
 _symmetry_equiv_pos_as_xyz
  1  'x, y, z'
loop_
 _atom_site_type_symbol
 _atom_site_label
 _atom_site_symmetry_multiplicity
 _atom_site_fract_x
 _atom_site_fract_y
 _atom_site_fract_z
 _atom_site_occupancy
  Na  Na0  1  0.14084804  0.24995814  0.24480398  1
  Na  Na1  1  0.14003845  0.24901908  0.49445394  1
  Na  Na2  1  0.14014688  0.24852264  0.74232845  1
  Na  Na3  1  0.14112024  0.25040001  0.99215253  1
  Na  Na4  1  0.13981724  0.58207659  0.24270227  1
  Na  Na5  1  0.14012324  0.58398287  0.49443804  1
  Na  Na6  1  0.14063748  0.58127118  0.74376548  1
  Na  Na7  1  0.14037614  0.58156748  0.99351822  1
  Na  Na8  1  0.14041349  0.91728234  0.24456765  1
  Na  Na9  1  0.14104120  0.91753501  0.49441446  1
  Na  Na10  1  0.14071864  0.91587230  0.74352553  1
  Na  Na11  1  0.14042834  0.91670595  0.99204072  1
  Na  Na12  1  0.64039111  0.25075233  0.24263902  1
  Na  Na13  1  0.64022655  0.24876933  0.49410358  1
  Na  Na14  1  0.64010972  0.25026719  0.74427371  1
  Na  Na15  1  0.64036155  0.25039974  0.99484587  1
  Na  Na16  1  0.64015144  0.58346030  0.24359925  1
  Na  Na17  1  0.63955799  0.58439500  0.49317865  1
  Na  Na18  1  0.63966888  0.58406810  0.74345923  1
  Na  Na19  1  0.64029965  0.58426123  0.99498506  1
  Na  Na20  1  0.63998407  0.91657451  0.24313292  1
  Na  Na21  1  0.64060833  0.91591821  0.49262233  1
  Na  Na22  1  0.64009224  0.91760554  0.74408460  1
  Na  Na23  1  0.63977090  0.91722072  0.99376423  1
  Na  Na24  1  0.35959799  0.08355368  0.00597760  1
  Na  Na25  1  0.36010169  0.08352232  0.25686582  1
  Na  Na26  1  0.35954988  0.08364711  0.50601541  1
  Na  Na27  1  0.35904113  0.08229948  0.75743315  1
  Na  Na28  1  0.35957608  0.41609587  0.00611094  1
  Na  Na29  1  0.35950266  0.41622466  0.25572319  1
  Na  Na30  1  0.35946823  0.41621859  0.50708203  1
  Na  Na31  1  0.35941508  0.41429485  0.75683073  1
  Na  Na32  1  0.35983527  0.74996793  0.00661821  1
  Na  Na33  1  0.35967343  0.75091565  0.25601411  1
  Na  Na34  1  0.35980910  0.74997279  0.50672321  1
  Na  Na35  1  0.35980742  0.74851076  0.75735914  1
  Na  Na36  1  0.85980866  0.08393470  0.00509543  1
  Na  Na37  1  0.85947871  0.08343055  0.25588223  1
  Na  Na38  1  0.85953440  0.08346334  0.50560788  1
  Na  Na39  1  0.85986083  0.08455900  0.75523037  1
  Na  Na40  1  0.85970396  0.41770580  0.00767030  1
  Na  Na41  1  0.85977803  0.41805390  0.25581132  1
  Na  Na42  1  0.85953841  0.41667431  0.50672115  1
  Na  Na43  1  0.86005312  0.41738576  0.75636969  1
  Na  Na44  1  0.85981747  0.74993314  0.00688725  1
  Na  Na45  1  0.85965203  0.75002270  0.25724892  1
  Na  Na46  1  0.86020455  0.75036387  0.50579653  1
  Na  Na47  1  0.85961751  0.75129439  0.75531140  1
  Na  Na48  1  0.10989345  0.08263054  0.11829991  1
  Na  Na49  1  0.11041996  0.08395857  0.36952319  1
  Na  Na50  1  0.11036565  0.08410894  0.61769122  1
  Na  Na51  1  0.10998787  0.08356260  0.86620927  1
  Na  Na52  1  0.11051225  0.41706471  0.11807197  1
  Na  Na53  1  0.10923637  0.41681432  0.36930669  1
  Na  Na54  1  0.10939552  0.41601300  0.61938583  1
  Na  Na55  1  0.10986353  0.41611823  0.86794410  1
  Na  Na56  1  0.10936430  0.74852405  0.11869243  1
  Na  Na57  1  0.10967543  0.74905928  0.37003281  1
  Na  Na58  1  0.10981130  0.74984830  0.61939841  1
  Na  Na59  1  0.10964459  0.74947999  0.86860489  1
  Na  Na60  1  0.60938995  0.08390887  0.11863534  1
  Na  Na61  1  0.60954734  0.08201338  0.36726569  1
  Na  Na62  1  0.60961163  0.08277047  0.61930889  1
  Na  Na63  1  0.60971112  0.08321404  0.86885832  1
  Na  Na64  1  0.60978489  0.41824425  0.11863392  1
  Na  Na65  1  0.60920883  0.41677201  0.36884923  1
  Na  Na66  1  0.60882005  0.41682811  0.61899232  1
  Na  Na67  1  0.60959183  0.41731064  0.87015149  1
  Na  Na68  1  0.60931399  0.75148316  0.11882063  1
  Na  Na69  1  0.60962849  0.74902786  0.36779300  1
  Na  Na70  1  0.60935208  0.74819445  0.61792307  1
  Na  Na71  1  0.60924544  0.75089072  0.86935660  1
  Na  Na72  1  0.39011606  0.25099423  0.13137582  1
  Na  Na73  1  0.39041620  0.24932566  0.38139599  1
  Na  Na74  1  0.38978685  0.24864802  0.63264807  1
  Na  Na75  1  0.38981087  0.24988400  0.88166507  1
  Na  Na76  1  0.39022011  0.58432748  0.13121686  1
  Na  Na77  1  0.39041367  0.58256488  0.38083420  1
  Na  Na78  1  0.39035430  0.58225269  0.63168234  1
  Na  Na79  1  0.39056510  0.58328237  0.88202152  1
  Na  Na80  1  0.39036374  0.91794280  0.13068325  1
  Na  Na81  1  0.39041724  0.91623528  0.38104454  1
  Na  Na82  1  0.39045515  0.91583912  0.63226421  1
  Na  Na83  1  0.39024878  0.91612818  0.88239854  1
  Na  Na84  1  0.89037892  0.25076555  0.13151074  1
  Na  Na85  1  0.89054862  0.25042604  0.38075597  1
  Na  Na86  1  0.89074164  0.25062611  0.63126751  1
  Na  Na87  1  0.89068178  0.25126561  0.88075562  1
  Na  Na88  1  0.89024060  0.58327140  0.13237000  1
  Na  Na89  1  0.89042775  0.58407134  0.38093483  1
  Na  Na90  1  0.89035449  0.58457651  0.63125660  1
  Na  Na91  1  0.89056970  0.58391148  0.88131001  1
  Na  Na92  1  0.89086788  0.91555821  0.13093000  1
  Na  Na93  1  0.89029372  0.91653272  0.38216298  1
  Na  Na94  1  0.89072086  0.91726083  0.63000573  1
  Na  Na95  1  0.89064519  0.91716564  0.88033731  1
  Mn  Mn96  1  0.75032205  0.00076134  0.62384764  1
  Mn  Mn97  1  0.75044188  0.16669491  0.87507009  1
  Mn  Mn98  1  0.24993436  0.49892884  0.62542773  1
  Mn  Mn99  1  0.50068644  0.83165935  0.50041955  1
  Mn  Mn100  1  0.75067261  0.00057317  0.12481493  1
  Mn  Mn101  1  0.25022152  0.66667770  0.37455734  1
  Mn  Mn102  1  0.25055553  0.83317240  0.62536513  1
  Mn  Mn103  1  0.00044746  0.16696821  0.24968309  1
  Mn  Mn104  1  0.24978349  0.49952152  0.37534775  1
  Mn  Mn105  1  -0.00029946  0.66730210  0.75060255  1
  Mn  Mn106  1  0.24976807  0.00063524  0.12431365  1
  Mn  Mn107  1  0.49982217  0.50095776  -0.00045572  1
  Mn  Mn108  1  0.74924391  0.50118755  0.37544503  1
  Mn  Mn109  1  0.75072121  0.83350605  0.12497497  1
  Mn  Mn110  1  0.49984242  0.16570914  0.50069212  1
  Mn  Mn111  1  0.00044394  0.33461000  -0.00014690  1
  Mn  Mn112  1  0.49995033  -0.00116058  0.49934338  1
  Mn  Mn113  1  0.75041867  0.16628322  0.37400794  1
  Mn  Mn114  1  0.00123141  0.33429042  0.25017859  1
  Mn  Mn115  1  0.75021944  0.83329446  0.62404236  1
  Mn  Mn116  1  0.74941929  0.83431721  0.87497593  1
  Mn  Mn117  1  0.24940490  0.16726673  0.12479251  1
  Mn  Mn118  1  0.50018476  0.33311939  0.49983348  1
  Mn  Mn119  1  0.75017393  0.50076115  0.87575920  1
  Mn  Mn120  1  0.00074539  0.83194607  0.25086377  1
  Mn  Mn121  1  0.49972940  0.83270401  0.75042658  1
  Mn  Mn122  1  0.00001410  -0.00034372  0.25011860  1
  Mn  Mn123  1  0.49984072  0.16714184  0.00002880  1
  Mn  Mn124  1  0.74968828  0.50127769  0.62541168  1
  Mn  Mn125  1  0.49993410  0.33411131  0.25068066  1
  Mn  Mn126  1  0.75023770  0.66711628  0.87547020  1
  Mn  Mn127  1  0.49977743  0.49984354  0.75048433  1
  Mn  Mn128  1  0.00048436  0.00057271  0.50045445  1
  Mn  Mn129  1  0.50004210  0.16621154  0.75094939  1
  Mn  Mn130  1  0.24928128  0.66583845  0.12473488  1
  Mn  Mn131  1  0.00007225  0.66577601  -0.00054513  1
  Mn  Mn132  1  0.00002697  0.50013249  0.50040388  1
  Mn  Mn133  1  0.24951373  0.33223201  0.37572446  1
  Mn  Mn134  1  0.25019770  0.66518706  0.87562679  1
  Mn  Mn135  1  0.75011620  0.33351970  0.37476331  1
  Mn  Mn136  1  0.00046792  0.16692646  -0.00070035  1
  Mn  Mn137  1  0.24952096  0.83454281  0.37622205  1
  Mn  Mn138  1  0.25000571  0.83374980  0.12507508  1
  Mn  Mn139  1  0.74988019  0.33362566  0.87569722  1
  Mn  Mn140  1  -0.00007011  -0.00102757  -0.00151155  1
  Mn  Mn141  1  0.49975537  0.66716043  0.24998471  1
  Mn  Mn142  1  0.74948964  0.33302648  0.62558302  1
  Mn  Mn143  1  0.00052940  -0.00014262  0.74893230  1
  Fe  Fe144  1  0.74998162  0.00083214  0.87466784  1
  Fe  Fe145  1  0.25058460  0.49843893  0.87458304  1
  Fe  Fe146  1  0.49981084  0.50055136  0.24984133  1
  Fe  Fe147  1  0.00013992  0.83243285  0.00032417  1
  Fe  Fe148  1  0.00004917  0.66598393  0.25005929  1
  Fe  Fe149  1  0.24978777  0.16633572  0.87408669  1
  Fe  Fe150  1  0.50000538  0.66620293  0.75003805  1
  Fe  Fe151  1  0.25046440  0.00085323  0.37527843  1
  Fe  Fe152  1  0.49996338  -0.00068781  0.75048825  1
  Fe  Fe153  1  0.24996514  -0.00022094  0.87448562  1
  Fe  Fe154  1  0.74980463  0.83316502  0.37442559  1
  Fe  Fe155  1  0.24983602  0.83260199  0.87455705  1
  Fe  Fe156  1  0.24954722  0.33207058  0.62564364  1
  Fe  Fe157  1  0.49920502  0.49955090  0.50032528  1
  Fe  Fe158  1  0.49998811  0.33404633  0.00075036  1
  Fe  Fe159  1  -0.00013962  0.50008586  -0.00003218  1
  Fe  Fe160  1  0.00001030  0.83325960  0.74954843  1
  Fe  Fe161  1  0.74978526  0.16651392  0.62466883  1
  Fe  Fe162  1  0.74968246  0.16676784  0.12494785  1
  Fe  Fe163  1  0.25031073  0.49882138  0.12402234  1
  Fe  Fe164  1  0.00079835  0.83300658  0.50014828  1
  Fe  Fe165  1  0.25031920  0.66581560  0.62603791  1
  Fe  Fe166  1  -0.00034026  0.33395442  0.74970998  1
  Fe  Fe167  1  -0.00001214  0.50016877  0.25055422  1
  Fe  Fe168  1  0.74949553  0.00006590  0.37468145  1
  Fe  Fe169  1  0.74996554  0.33379725  0.12508847  1
  Fe  Fe170  1  0.25047279  0.16656798  0.37553512  1
  Fe  Fe171  1  0.49987874  0.83411900  -0.00018432  1
  Fe  Fe172  1  0.74977880  0.66759906  0.62438955  1
  Fe  Fe173  1  0.00036967  0.66646014  0.50060703  1
  Fe  Fe174  1  -0.00051003  0.33370576  0.50013764  1
  Fe  Fe175  1  0.25043990  0.33322581  0.12415221  1
  Fe  Fe176  1  -0.00036029  0.16758495  0.49975711  1
  Fe  Fe177  1  0.75031949  0.66719086  0.37469643  1
  Fe  Fe178  1  0.75007034  0.50095731  0.12602471  1
  Fe  Fe179  1  -0.00003920  0.16749551  0.74878726  1
  Fe  Fe180  1  0.49988371  0.00054894  0.00058256  1
  Fe  Fe181  1  0.25073968  0.00001318  0.62552242  1
  Fe  Fe182  1  0.24984943  0.33242131  0.87484256  1
  Fe  Fe183  1  0.49944538  0.83355073  0.24893101  1
  Fe  Fe184  1  -0.00003493  0.50035282  0.74956362  1
  Fe  Fe185  1  0.74958006  0.66726308  0.12579590  1
  Fe  Fe186  1  0.49996058  0.33301532  0.75019199  1
  Fe  Fe187  1  0.49982064  -0.00035593  0.24931039  1
  Fe  Fe188  1  0.49927365  0.66540859  0.49920688  1
  Fe  Fe189  1  0.50020502  0.16690593  0.24968133  1
  Fe  Fe190  1  0.25012180  0.16597586  0.62534546  1
  Fe  Fe191  1  0.49987094  0.66767414  0.00075763  1
  P  P192  1  0.04339064  0.25061349  0.10254367  1
  P  P193  1  0.04277033  0.25028249  0.35415633  1
  P  P194  1  0.04086724  0.25059760  0.60207483  1
  P  P195  1  0.04140713  0.25055177  0.85068850  1
  P  P196  1  0.04218903  0.58168475  0.10299210  1
  P  P197  1  0.04175649  0.58355532  0.35215409  1
  P  P198  1  0.04215145  0.58424920  0.60320223  1
  P  P199  1  0.04223891  0.58186570  0.85242896  1
  P  P200  1  0.04267944  0.91494178  0.10206233  1
  P  P201  1  0.04275982  0.91614487  0.35407494  1
  P  P202  1  0.04253332  0.91533719  0.60265086  1
  P  P203  1  0.04233481  0.91482930  0.85212462  1
  P  P204  1  0.54161626  0.25138914  0.10314023  1
  P  P205  1  0.54250732  0.24875648  0.35231152  1
  P  P206  1  0.54246364  0.24979250  0.60394183  1
  P  P207  1  0.54200277  0.25168953  0.85337658  1
  P  P208  1  0.54189061  0.58508913  0.10280443  1
  P  P209  1  0.54172654  0.58204642  0.35291145  1
  P  P210  1  0.54102709  0.58284185  0.60168178  1
  P  P211  1  0.54203441  0.58513271  0.85308062  1
  P  P212  1  0.54098551  0.91728661  0.10206636  1
  P  P213  1  0.54128602  0.91566082  0.35078329  1
  P  P214  1  0.54295397  0.91595480  0.60339435  1
  P  P215  1  0.54182474  0.91772345  0.85342070  1
  P  P216  1  0.45866737  0.08364212  0.14812489  1
  P  P217  1  0.45769639  0.08288027  0.39588267  1
  P  P218  1  0.45745540  0.08141446  0.64840418  1
  P  P219  1  0.45798790  0.08194853  0.89764969  1
  P  P220  1  0.45798645  0.41838100  0.14732773  1
  P  P221  1  0.45739253  0.41784653  0.39742553  1
  P  P222  1  0.45737954  0.41537807  0.64772451  1
  P  P223  1  0.45799765  0.41532304  0.89744835  1
  P  P224  1  0.45743015  0.75171098  0.14658274  1
  P  P225  1  0.45757918  0.74853853  0.39710636  1
  P  P226  1  0.45765629  0.74758652  0.64747004  1
  P  P227  1  0.45863635  0.74998056  0.89853006  1
  P  P228  1  0.95738132  0.08300215  0.14635850  1
  P  P229  1  0.95801972  0.08469424  0.39767297  1
  P  P230  1  0.95844292  0.08512859  0.64643074  1
  P  P231  1  0.95790693  0.08394828  0.89523529  1
  P  P232  1  0.95829219  0.41851041  0.14759490  1
  P  P233  1  0.95766567  0.41636036  0.39754796  1
  P  P234  1  0.95844021  0.41701449  0.64793557  1
  P  P235  1  0.95774410  0.41855641  0.89672674  1
  P  P236  1  0.95784811  0.74823040  0.14772779  1
  P  P237  1  0.95909738  0.74910278  0.39858772  1
  P  P238  1  0.95805302  0.75137939  0.64672312  1
  P  P239  1  0.95759695  0.75132566  0.89738638  1
  P  P240  1  0.20740766  0.08362062  0.22871318  1
  P  P241  1  0.20898013  0.08356819  0.47771403  1
  P  P242  1  0.20868701  0.08263727  0.72712508  1
  P  P243  1  0.20847150  0.08366081  0.97548449  1
  P  P244  1  0.20869871  0.41568877  0.22616563  1
  P  P245  1  0.20698723  0.41578386  0.47903159  1
  P  P246  1  0.20798276  0.41397246  0.72842299  1
  P  P247  1  0.20884101  0.41607594  0.97668649  1
  P  P248  1  0.20698759  0.75014972  0.22818780  1
  P  P249  1  0.20781767  0.74973046  0.47923874  1
  P  P250  1  0.20843313  0.74835170  0.72824308  1
  P  P251  1  0.20771535  0.75046147  0.97722370  1
  P  P252  1  0.70760743  0.08412616  0.22745589  1
  P  P253  1  0.70728905  0.08258282  0.47703774  1
  P  P254  1  0.70777105  0.08439572  0.72752373  1
  P  P255  1  0.70768546  0.08281760  0.97776502  1
  P  P256  1  0.70846555  0.41711919  0.22670462  1
  P  P257  1  0.70691489  0.41689223  0.47824157  1
  P  P258  1  0.70665420  0.41726959  0.72850156  1
  P  P259  1  0.70771769  0.41718970  0.97987210  1
  P  P260  1  0.70792975  0.74951124  0.22826859  1
  P  P261  1  0.70850254  0.74992502  0.47617945  1
  P  P262  1  0.70728707  0.74971873  0.72704920  1
  P  P263  1  0.70722667  0.75023725  0.97884857  1
  P  P264  1  0.29214297  0.25106747  0.02144458  1
  P  P265  1  0.29244563  0.24890885  0.27259214  1
  P  P266  1  0.29148775  0.24917127  0.52384171  1
  P  P267  1  0.29098970  0.24918394  0.77267247  1
  P  P268  1  0.29212987  0.58113524  0.02194018  1
  P  P269  1  0.29237632  0.58212675  0.27102829  1
  P  P270  1  0.29212636  0.58398583  0.52312874  1
  P  P271  1  0.29239324  0.58101779  0.77256344  1
  P  P272  1  0.29220898  0.91674834  0.02055377  1
  P  P273  1  0.29235525  0.91818254  0.27298755  1
  P  P274  1  0.29268677  0.91860307  0.52274634  1
  P  P275  1  0.29140628  0.91622222  0.77332335  1
  P  P276  1  0.79165833  0.25009748  0.02377634  1
  P  P277  1  0.79276979  0.25053031  0.27053578  1
  P  P278  1  0.79221967  0.24863554  0.52252134  1
  P  P279  1  0.79270571  0.25015170  0.77162941  1
  P  P280  1  0.79144117  0.58422164  0.02437826  1
  P  P281  1  0.79178899  0.58494755  0.27210768  1
  P  P282  1  0.79201204  0.58559060  0.52211910  1
  P  P283  1  0.79283339  0.58432013  0.77166772  1
  P  P284  1  0.79304526  0.91742225  0.02122465  1
  P  P285  1  0.79167305  0.91688457  0.27351207  1
  P  P286  1  0.79271761  0.91660654  0.52021027  1
  P  P287  1  0.79216042  0.91863087  0.77209903  1
  O  O288  1  0.03864765  0.25064885  0.18253379  1
  O  O289  1  0.03693197  0.25037857  0.43404180  1
  O  O290  1  0.03549012  0.25024961  0.68199405  1
  O  O291  1  0.03723910  0.25069121  0.93071394  1
  O  O292  1  0.03697042  0.58198589  0.18290496  1
  O  O293  1  0.03680174  0.58406132  0.43216483  1
  O  O294  1  0.03671163  0.58366220  0.68308030  1
  O  O295  1  0.03690368  0.58166118  0.93238966  1
  O  O296  1  0.03762715  0.91543461  0.18208785  1
  O  O297  1  0.03743481  0.91601742  0.43401342  1
  O  O298  1  0.03717832  0.91531203  0.68259979  1
  O  O299  1  0.03692732  0.91479956  0.93207162  1
  O  O300  1  0.53632147  0.25050916  0.18306996  1
  O  O301  1  0.53745674  0.24889968  0.43231973  1
  O  O302  1  0.53711482  0.25022130  0.68391901  1
  O  O303  1  0.53673954  0.25190918  0.93336006  1
  O  O304  1  0.53649948  0.58431860  0.18269242  1
  O  O305  1  0.53604712  0.58214184  0.43277695  1
  O  O306  1  0.53612851  0.58330917  0.68170554  1
  O  O307  1  0.53664759  0.58537134  0.93300111  1
  O  O308  1  0.53604629  0.91676654  0.18196520  1
  O  O309  1  0.53692647  0.91559209  0.43081089  1
  O  O310  1  0.53774435  0.91626308  0.68334921  1
  O  O311  1  0.53649897  0.91787715  0.93329487  1
  O  O312  1  0.46362474  0.08311649  0.06812600  1
  O  O313  1  0.46302932  0.08345849  0.31598563  1
  O  O314  1  0.46247018  0.08168352  0.56841537  1
  O  O315  1  0.46332264  0.08182428  0.81774959  1
  O  O316  1  0.46338890  0.41769212  0.06739115  1
  O  O317  1  0.46274052  0.41818688  0.31747016  1
  O  O318  1  0.46251510  0.41597323  0.56775528  1
  O  O319  1  0.46338627  0.41496526  0.81751387  1
  O  O320  1  0.46286119  0.75144817  0.06673164  1
  O  O321  1  0.46252573  0.74937010  0.31717239  1
  O  O322  1  0.46295686  0.74732566  0.56751036  1
  O  O323  1  0.46326050  0.74984210  0.81853313  1
  O  O324  1  0.96252202  0.08275796  0.06634364  1
  O  O325  1  0.96286574  0.08421444  0.31764878  1
  O  O326  1  0.96368424  0.08542433  0.56646934  1
  O  O327  1  0.96340805  0.08448387  0.81527102  1
  O  O328  1  0.96301607  0.41870194  0.06758892  1
  O  O329  1  0.96339685  0.41718418  0.31765587  1
  O  O330  1  0.96335995  0.41619526  0.56795851  1
  O  O331  1  0.96296986  0.41833100  0.81683118  1
  O  O332  1  0.96276704  0.74863058  0.06777284  1
  O  O333  1  0.96410829  0.74853083  0.31860741  1
  O  O334  1  0.96393803  0.75095739  0.56690477  1
  O  O335  1  0.96271392  0.75143674  0.81741453  1
  O  O336  1  0.21273018  0.08375724  0.05552883  1
  O  O337  1  0.21280633  0.08355865  0.30861586  1
  O  O338  1  0.21423978  0.08332580  0.55763642  1
  O  O339  1  0.21369911  0.08300217  0.80701852  1
  O  O340  1  0.21425604  0.41635366  0.05661279  1
  O  O341  1  0.21348654  0.41576689  0.30618907  1
  O  O342  1  0.21210321  0.41551099  0.55897257  1
  O  O343  1  0.21361808  0.41407486  0.80829009  1
  O  O344  1  0.21264639  0.75045507  0.05722551  1
  O  O345  1  0.21216359  0.75025019  0.30818764  1
  O  O346  1  0.21339999  0.74908758  0.55918929  1
  O  O347  1  0.21384423  0.74897453  0.80819844  1
  O  O348  1  0.71290381  0.08366445  0.05772886  1
  O  O349  1  0.71290244  0.08314974  0.30740157  1
  O  O350  1  0.71253088  0.08333843  0.55700830  1
  O  O351  1  0.71307271  0.08353428  0.80748689  1
  O  O352  1  0.71326477  0.41702005  0.05979328  1
  O  O353  1  0.71289093  0.41741183  0.30674959  1
  O  O354  1  0.71194855  0.41694204  0.55819108  1
  O  O355  1  0.71169578  0.41736711  0.80853447  1
  O  O356  1  0.71256103  0.74986264  0.05879978  1
  O  O357  1  0.71337964  0.74996806  0.30817623  1
  O  O358  1  0.71344338  0.74975067  0.55617760  1
  O  O359  1  0.71224457  0.75017135  0.80704063  1
  O  O360  1  0.28726514  0.24962292  0.19266577  1
  O  O361  1  0.28652211  0.24863283  0.44386791  1
  O  O362  1  0.28600894  0.24904737  0.69274907  1
  O  O363  1  0.28669271  0.25088940  0.94159914  1
  O  O364  1  0.28710708  0.58136841  0.19104136  1
  O  O365  1  0.28697217  0.58379261  0.44313295  1
  O  O366  1  0.28693241  0.58202501  0.69263864  1
  O  O367  1  0.28710256  0.58083302  0.94195519  1
  O  O368  1  0.28740811  0.91773137  0.19297912  1
  O  O369  1  0.28712535  0.91881503  0.44282446  1
  O  O370  1  0.28679992  0.91691136  0.69329602  1
  O  O371  1  0.28679506  0.91618229  0.94064483  1
  O  O372  1  0.78725427  0.25062119  0.19064087  1
  O  O373  1  0.78737231  0.24898385  0.44250221  1
  O  O374  1  0.78740049  0.24954505  0.69170287  1
  O  O375  1  0.78659379  0.25023245  0.94374472  1
  O  O376  1  0.78644833  0.58471385  0.19223516  1
  O  O377  1  0.78683237  0.58552497  0.44213997  1
  O  O378  1  0.78776325  0.58479167  0.69169508  1
  O  O379  1  0.78694003  0.58372633  0.94433558  1
  O  O380  1  0.78709378  0.91670402  0.19344396  1
  O  O381  1  0.78720990  0.91653298  0.44032406  1
  O  O382  1  0.78707655  0.91816208  0.69210144  1
  O  O383  1  0.78756449  0.91789824  0.94130318  1
  O  O384  1  0.22799428  0.25175116  0.05757352  1
  O  O385  1  0.22822129  0.24793452  0.30849138  1
  O  O386  1  0.22731501  0.24945305  0.55982700  1
  O  O387  1  0.22689768  0.24951776  0.80883602  1
  O  O388  1  0.22785146  0.58102642  0.05753963  1
  O  O389  1  0.22805358  0.58261893  0.30639577  1
  O  O390  1  0.22786213  0.58390020  0.55871890  1
  O  O391  1  0.22818746  0.58080462  0.80836715  1
  O  O392  1  0.22798442  0.91696340  0.05624817  1
  O  O393  1  0.22803900  0.91879529  0.30848294  1
  O  O394  1  0.22855540  0.91829678  0.55878659  1
  O  O395  1  0.22719604  0.91569492  0.80891613  1
  O  O396  1  0.72745691  0.25001239  0.05962851  1
  O  O397  1  0.72851950  0.25020302  0.30620170  1
  O  O398  1  0.72783521  0.24838411  0.55787156  1
  O  O399  1  0.72839465  0.25016800  0.80698333  1
  O  O400  1  0.72717972  0.58480835  0.05988014  1
  O  O401  1  0.72761082  0.58551235  0.30811343  1
  O  O402  1  0.72770106  0.58560697  0.55776124  1
  O  O403  1  0.72841259  0.58402610  0.80676420  1
  O  O404  1  0.72875928  0.91709234  0.05668751  1
  O  O405  1  0.72730535  0.91688320  0.30890327  1
  O  O406  1  0.72853967  0.91674483  0.55597616  1
  O  O407  1  0.72788069  0.91912883  0.80779352  1
  O  O408  1  0.27162834  0.08391466  0.19293380  1
  O  O409  1  0.27290279  0.08369780  0.44097192  1
  O  O410  1  0.27282781  0.08238895  0.69106205  1
  O  O411  1  0.27282001  0.08370747  0.94035501  1
  O  O412  1  0.27289503  0.41550172  0.19030837  1
  O  O413  1  0.27133467  0.41593369  0.44377015  1
  O  O414  1  0.27199985  0.41392653  0.69205719  1
  O  O415  1  0.27282653  0.41542082  0.94018200  1
  O  O416  1  0.27136648  0.74965042  0.19304026  1
  O  O417  1  0.27195647  0.75024953  0.44346841  1
  O  O418  1  0.27260641  0.74815083  0.69236611  1
  O  O419  1  0.27209325  0.75017411  0.94198072  1
  O  O420  1  0.77190200  0.08525613  0.19183096  1
  O  O421  1  0.77162647  0.08161314  0.44146350  1
  O  O422  1  0.77199411  0.08523311  0.69162953  1
  O  O423  1  0.77195098  0.08203766  0.94199183  1
  O  O424  1  0.77270246  0.41660286  0.19123721  1
  O  O425  1  0.77136258  0.41728901  0.44326411  1
  O  O426  1  0.77112063  0.41730413  0.69358753  1
  O  O427  1  0.77189980  0.41718444  0.94399780  1
  O  O428  1  0.77212767  0.74884330  0.19227921  1
  O  O429  1  0.77269738  0.75032610  0.44027534  1
  O  O430  1  0.77170693  0.74906186  0.69170005  1
  O  O431  1  0.77153697  0.75089465  0.94349214  1
  O  O432  1  0.02183337  0.08291657  0.18140067  1
  O  O433  1  0.02233773  0.08487496  0.43304184  1
  O  O434  1  0.02264202  0.08473654  0.68219087  1
  O  O435  1  0.02217728  0.08337063  0.93075082  1
  O  O436  1  0.02268609  0.41895915  0.18295655  1
  O  O437  1  0.02177160  0.41563665  0.43370195  1
  O  O438  1  0.02252897  0.41749083  0.68398321  1
  O  O439  1  0.02203945  0.41900184  0.93264757  1
  O  O440  1  0.02219764  0.74771397  0.18324613  1
  O  O441  1  0.02316666  0.74886425  0.43481547  1
  O  O442  1  0.02206050  0.75155403  0.68331444  1
  O  O443  1  0.02190135  0.75082447  0.93306061  1
  O  O444  1  0.52275988  0.08398576  0.18411323  1
  O  O445  1  0.52191467  0.08275338  0.43169446  1
  O  O446  1  0.52183630  0.08142967  0.68376667  1
  O  O447  1  0.52215861  0.08218268  0.93358766  1
  O  O448  1  0.52214287  0.41853881  0.18339286  1
  O  O449  1  0.52163904  0.41806163  0.43320824  1
  O  O450  1  0.52163422  0.41532054  0.68348558  1
  O  O451  1  0.52210851  0.41591357  0.93351571  1
  O  O452  1  0.52157475  0.75187071  0.18277652  1
  O  O453  1  0.52193053  0.74764072  0.43267747  1
  O  O454  1  0.52189084  0.74810317  0.68330579  1
  O  O455  1  0.52273265  0.74964800  0.93450517  1
  O  O456  1  0.47748058  0.25154418  0.06716202  1
  O  O457  1  0.47814849  0.24881448  0.31691219  1
  O  O458  1  0.47813987  0.24975300  0.56856473  1
  O  O459  1  0.47777934  0.25109183  0.81752997  1
  O  O460  1  0.47775142  0.58539891  0.06673577  1
  O  O461  1  0.47767025  0.58196622  0.31653954  1
  O  O462  1  0.47685768  0.58274512  0.56563435  1
  O  O463  1  0.47781084  0.58479707  0.81719968  1
  O  O464  1  0.47698493  0.91789054  0.06574346  1
  O  O465  1  0.47700286  0.91552825  0.31525757  1
  O  O466  1  0.47858357  0.91541077  0.56814055  1
  O  O467  1  0.47768131  0.91759592  0.81720245  1
  O  O468  1  0.97884990  0.25063740  0.06778917  1
  O  O469  1  0.97874554  0.25076401  0.31797790  1
  O  O470  1  0.97693443  0.25082044  0.56540401  1
  O  O471  1  0.97709256  0.25021931  0.81541255  1
  O  O472  1  0.97796088  0.58162657  0.06696274  1
  O  O473  1  0.97758054  0.58335403  0.31608589  1
  O  O474  1  0.97799532  0.58456280  0.56719335  1
  O  O475  1  0.97799245  0.58207070  0.81668099  1
  O  O476  1  0.97829303  0.91481525  0.06659436  1
  O  O477  1  0.97848561  0.91592788  0.31853875  1
  O  O478  1  0.97841302  0.91554152  0.56675833  1
  O  O479  1  0.97816835  0.91521732  0.81610817  1
  O  O480  1  0.07411256  0.31417892  0.07419396  1
  O  O481  1  0.07443888  0.31349897  0.32598694  1
  O  O482  1  0.07185215  0.31427229  0.57411288  1
  O  O483  1  0.07154894  0.31453672  0.82224671  1
  O  O484  1  0.07336702  0.64513342  0.07461220  1
  O  O485  1  0.07266890  0.64689210  0.32339928  1
  O  O486  1  0.07294243  0.64784688  0.57501552  1
  O  O487  1  0.07321298  0.64582824  0.82519071  1
  O  O488  1  0.07381242  0.97836398  0.07380177  1
  O  O489  1  0.07353338  0.97981545  0.32591679  1
  O  O490  1  0.07367189  0.97920115  0.57536009  1
  O  O491  1  0.07353147  0.97851075  0.82444546  1
  O  O492  1  0.57221012  0.31527774  0.07530724  1
  O  O493  1  0.57351610  0.31258168  0.32483903  1
  O  O494  1  0.57383903  0.31284556  0.57529972  1
  O  O495  1  0.57264418  0.31504137  0.82442577  1
  O  O496  1  0.57259097  0.64888387  0.07499040  1
  O  O497  1  0.57291219  0.64561319  0.32493406  1
  O  O498  1  0.57198685  0.64616882  0.57288369  1
  O  O499  1  0.57283180  0.64837550  0.82410232  1
  O  O500  1  0.57246206  0.98070277  0.07406352  1
  O  O501  1  0.57156068  0.97959712  0.32235309  1
  O  O502  1  0.57392100  0.97921627  0.57468224  1
  O  O503  1  0.57263937  0.98107384  0.82443853  1
  O  O504  1  0.42809570  0.01990659  0.17669991  1
  O  O505  1  0.42665911  0.01926464  0.42391535  1
  O  O506  1  0.42689759  0.01781449  0.67684686  1
  O  O507  1  0.42695378  0.01883799  0.92647600  1
  O  O508  1  0.42666608  0.35503613  0.17545250  1
  O  O509  1  0.42667545  0.35373044  0.42473623  1
  O  O510  1  0.42679823  0.35166553  0.67606282  1
  O  O511  1  0.42732917  0.35204692  0.92655103  1
  O  O512  1  0.42624977  0.68824580  0.17477062  1
  O  O513  1  0.42654042  0.68502717  0.42528210  1
  O  O514  1  0.42702890  0.68426980  0.67652987  1
  O  O515  1  0.42717359  0.68680244  0.92687244  1
  O  O516  1  0.92633708  0.01958102  0.17469490  1
  O  O517  1  0.92696015  0.02115213  0.42562523  1
  O  O518  1  0.92724799  0.02129975  0.67367832  1
  O  O519  1  0.92665498  0.02038451  0.92288939  1
  O  O520  1  0.92778136  0.35447773  0.17525620  1
  O  O521  1  0.92651825  0.35289007  0.42553442  1
  O  O522  1  0.92783691  0.35346329  0.67686239  1
  O  O523  1  0.92706179  0.35471830  0.92499681  1
  O  O524  1  0.92711565  0.68478293  0.17642791  1
  O  O525  1  0.92777835  0.68587965  0.42705272  1
  O  O526  1  0.92688423  0.68789506  0.67495412  1
  O  O527  1  0.92647399  0.68753760  0.92494744  1
  O  O528  1  0.17638101  0.02020499  0.19999196  1
  O  O529  1  0.17803760  0.01998554  0.44925178  1
  O  O530  1  0.17756116  0.01914940  0.69882161  1
  O  O531  1  0.17793510  0.01987988  0.94702428  1
  O  O532  1  0.17789379  0.35198989  0.19809255  1
  O  O533  1  0.17593251  0.35248800  0.45050299  1
  O  O534  1  0.17701542  0.35063853  0.69962333  1
  O  O535  1  0.17725091  0.35278736  0.94856940  1
  O  O536  1  0.17577957  0.68675627  0.20001607  1
  O  O537  1  0.17658709  0.68661184  0.45050948  1
  O  O538  1  0.17778667  0.68451360  0.70020159  1
  O  O539  1  0.17649701  0.68669563  0.94991881  1
  O  O540  1  0.67691794  0.02043752  0.19920348  1
  O  O541  1  0.67628425  0.01901489  0.44878924  1
  O  O542  1  0.67682606  0.02093575  0.69910744  1
  O  O543  1  0.67683794  0.01928706  0.94941455  1
  O  O544  1  0.67720608  0.35373780  0.19860840  1
  O  O545  1  0.67620607  0.35327195  0.44994302  1
  O  O546  1  0.67567867  0.35376671  0.70043325  1
  O  O547  1  0.67643476  0.35387000  0.95139979  1
  O  O548  1  0.67660309  0.68626049  0.19981550  1
  O  O549  1  0.67770668  0.68634278  0.44777683  1
  O  O550  1  0.67641170  0.68629864  0.69851049  1
  O  O551  1  0.67634165  0.68679972  0.95043444  1
  O  O552  1  0.32341430  0.31417341  0.05039461  1
  O  O553  1  0.32314023  0.31260138  0.30095823  1
  O  O554  1  0.32220665  0.31301035  0.55185801  1
  O  O555  1  0.32238261  0.31239171  0.80115164  1
  O  O556  1  0.32277045  0.64519506  0.04950981  1
  O  O557  1  0.32355486  0.64586125  0.29855698  1
  O  O558  1  0.32273792  0.64755735  0.55165815  1
  O  O559  1  0.32380574  0.64419254  0.80102295  1
  O  O560  1  0.32329873  0.98033861  0.04874800  1
  O  O561  1  0.32334018  0.98162111  0.30121415  1
  O  O562  1  0.32360312  0.98185167  0.55155679  1
  O  O563  1  0.32179423  0.97990927  0.80230388  1
  O  O564  1  0.82252094  0.31383149  0.05170714  1
  O  O565  1  0.82369674  0.31400303  0.29921652  1
  O  O566  1  0.82310167  0.31235587  0.55043244  1
  O  O567  1  0.82351342  0.31389286  0.79965558  1
  O  O568  1  0.82255836  0.64779060  0.05215036  1
  O  O569  1  0.82303006  0.64813311  0.30090370  1
  O  O570  1  0.82279062  0.64896917  0.55086057  1
  O  O571  1  0.82400949  0.64757279  0.80031771  1
  O  O572  1  0.82429017  0.98060735  0.04980345  1
  O  O573  1  0.82230245  0.98071073  0.30144514  1
  O  O574  1  0.82411393  0.97987433  0.54862246  1
  O  O575  1  0.82306456  0.98218206  0.80016156  1
  O  O576  1  0.42763032  0.14741573  0.17580903  1
  O  O577  1  0.42645713  0.14601761  0.42498718  1
  O  O578  1  0.42638201  0.14500742  0.67637257  1
  O  O579  1  0.42701386  0.14588033  0.92517180  1
  O  O580  1  0.42740835  0.48217551  0.17543082  1
  O  O581  1  0.42618226  0.48081304  0.42656413  1
  O  O582  1  0.42614201  0.47879128  0.67596263  1
  O  O583  1  0.42670845  0.47918795  0.92455821  1
  O  O584  1  0.42649466  0.81517506  0.17523128  1
  O  O585  1  0.42688704  0.81213122  0.42569130  1
  O  O586  1  0.42635381  0.81126866  0.67509005  1
  O  O587  1  0.42854072  0.81420280  0.92676767  1
  O  O588  1  0.92656326  0.14665619  0.17432142  1
  O  O589  1  0.92726072  0.14834953  0.42589963  1
  O  O590  1  0.92758231  0.14841917  0.67528527  1
  O  O591  1  0.92679978  0.14723610  0.92387896  1
  O  O592  1  0.92706010  0.48147288  0.17681955  1
  O  O593  1  0.92663009  0.47993154  0.42570442  1
  O  O594  1  0.92746366  0.48088065  0.67545093  1
  O  O595  1  0.92653928  0.48166020  0.92573640  1
  O  O596  1  0.92689484  0.81183025  0.17600196  1
  O  O597  1  0.92881312  0.81334007  0.42636859  1
  O  O598  1  0.92691588  0.81481970  0.67506498  1
  O  O599  1  0.92697650  0.81466809  0.92638265  1
  O  O600  1  0.07437760  0.18715248  0.07424572  1
  O  O601  1  0.07381057  0.18677840  0.32587023  1
  O  O602  1  0.07178348  0.18694453  0.57362963  1
  O  O603  1  0.07244568  0.18706871  0.82228228  1
  O  O604  1  0.07310070  0.51837157  0.07403119  1
  O  O605  1  0.07244461  0.51952986  0.32441045  1
  O  O606  1  0.07339881  0.52080862  0.57504871  1
  O  O607  1  0.07322916  0.51876805  0.82335055  1
  O  O608  1  0.07308903  0.85105037  0.07395612  1
  O  O609  1  0.07421913  0.85288181  0.32593961  1
  O  O610  1  0.07345799  0.85199350  0.57401330  1
  O  O611  1  0.07311880  0.85141525  0.82351628  1
  O  O612  1  0.57296452  0.18811669  0.07472049  1
  O  O613  1  0.57323415  0.18537855  0.32357963  1
  O  O614  1  0.57333802  0.18599299  0.57612260  1
  O  O615  1  0.57328559  0.18786673  0.82603802  1
  O  O616  1  0.57313353  0.52173386  0.07457004  1
  O  O617  1  0.57278049  0.51871247  0.32414723  1
  O  O618  1  0.57162834  0.51881519  0.57395321  1
  O  O619  1  0.57309947  0.52127845  0.82554872  1
  O  O620  1  0.57135591  0.85346570  0.07310727  1
  O  O621  1  0.57222997  0.85211025  0.32258184  1
  O  O622  1  0.57410077  0.85237746  0.57526078  1
  O  O623  1  0.57305739  0.85409958  0.82549667  1
  O  O624  1  0.32291914  0.18727553  0.04954336  1
  O  O625  1  0.32354967  0.18558154  0.30101257  1
  O  O626  1  0.32241223  0.18568515  0.55239590  1
  O  O627  1  0.32158463  0.18532976  0.80118702  1
  O  O628  1  0.32324992  0.51797614  0.05068560  1
  O  O629  1  0.32339961  0.51896703  0.30004993  1
  O  O630  1  0.32327776  0.52031977  0.55071051  1
  O  O631  1  0.32298541  0.51708203  0.80031522  1
  O  O632  1  0.32345460  0.85359381  0.04939430  1
  O  O633  1  0.32302435  0.85439253  0.30106503  1
  O  O634  1  0.32386324  0.85480454  0.55021046  1
  O  O635  1  0.32242402  0.85240722  0.80099477  1
  O  O636  1  0.82235595  0.18618973  0.05140529  1
  O  O637  1  0.82427040  0.18729930  0.29888070  1
  O  O638  1  0.82276785  0.18496437  0.55082531  1
  O  O639  1  0.82410590  0.18708408  0.80024217  1
  O  O640  1  0.82162656  0.52026898  0.05297359  1
  O  O641  1  0.82261623  0.52120967  0.30027529  1
  O  O642  1  0.82307066  0.52183315  0.54984037  1
  O  O643  1  0.82380538  0.52076484  0.79990471  1
  O  O644  1  0.82417024  0.85388486  0.04930670  1
  O  O645  1  0.82241434  0.85313607  0.30162008  1
  O  O646  1  0.82383428  0.85325336  0.54881990  1
  O  O647  1  0.82289000  0.85478498  0.79989493  1
  O  O648  1  0.17597151  0.14679667  0.20011560  1
  O  O649  1  0.17809025  0.14726720  0.44952762  1
  O  O650  1  0.17806276  0.14631001  0.69826898  1
  O  O651  1  0.17764320  0.14728426  0.94714368  1
  O  O652  1  0.17808310  0.47945036  0.19788842  1
  O  O653  1  0.17600326  0.47938969  0.45085357  1
  O  O654  1  0.17670978  0.47756650  0.70063534  1
  O  O655  1  0.17841125  0.47992354  0.94807193  1
  O  O656  1  0.17623598  0.81382565  0.20023061  1
  O  O657  1  0.17665206  0.81352716  0.45188266  1
  O  O658  1  0.17713679  0.81172549  0.70015311  1
  O  O659  1  0.17719006  0.81392990  0.94837896  1
  O  O660  1  0.67648009  0.14757087  0.19931281  1
  O  O661  1  0.67647159  0.14612513  0.44873861  1
  O  O662  1  0.67687309  0.14806931  0.69953199  1
  O  O663  1  0.67672592  0.14641128  0.94962138  1
  O  O664  1  0.67831947  0.48124805  0.19844100  1
  O  O665  1  0.67571433  0.48029096  0.45011999  1
  O  O666  1  0.67561830  0.48070861  0.70024814  1
  O  O667  1  0.67653538  0.48068138  0.95168163  1
  O  O668  1  0.67714945  0.81322278  0.19992410  1
  O  O669  1  0.67750423  0.81358820  0.44805936  1
  O  O670  1  0.67669873  0.81355139  0.69904578  1
  O  O671  1  0.67589907  0.81363903  0.95079400  1
