# generated using pymatgen
data_Na2MnFe(PO4)2
_symmetry_space_group_name_H-M   'P 1'
_cell_length_a   22.34353449
_cell_length_b   20.09348807
_cell_length_c   19.45021044
_cell_angle_alpha   90.11571251
_cell_angle_beta   89.96768870
_cell_angle_gamma   89.99703910
_symmetry_Int_Tables_number   1
_chemical_formula_structural   Na2MnFe(PO4)2
_chemical_formula_sum   'Na96 Mn48 Fe48 P96 O384'
_cell_volume   8732.33839522
_cell_formula_units_Z   48
loop_
 _symmetry_equiv_pos_site_id
 _symmetry_equiv_pos_as_xyz
  1  'x, y, z'
loop_
 _atom_site_type_symbol
 _atom_site_label
 _atom_site_symmetry_multiplicity
 _atom_site_fract_x
 _atom_site_fract_y
 _atom_site_fract_z
 _atom_site_occupancy
  Na  Na0  1  0.14044834  0.24870483  0.24367820  1
  Na  Na1  1  0.13981695  0.24920952  0.49317785  1
  Na  Na2  1  0.13994738  0.24945045  0.74200401  1
  Na  Na3  1  0.14022115  0.24913225  0.99297140  1
  Na  Na4  1  0.14071875  0.58401154  0.24165800  1
  Na  Na5  1  0.14065688  0.58471686  0.49292165  1
  Na  Na6  1  0.14089950  0.58319799  0.74340358  1
  Na  Na7  1  0.14090052  0.58353937  0.99396865  1
  Na  Na8  1  0.14052953  0.91631264  0.24282275  1
  Na  Na9  1  0.14104914  0.91809961  0.49264138  1
  Na  Na10  1  0.14083215  0.91673621  0.74395521  1
  Na  Na11  1  0.14073890  0.91645838  0.99408319  1
  Na  Na12  1  0.64001696  0.24964485  0.24519852  1
  Na  Na13  1  0.64018683  0.24879422  0.49367452  1
  Na  Na14  1  0.63991309  0.24957417  0.74440403  1
  Na  Na15  1  0.63998393  0.25024064  0.99406662  1
  Na  Na16  1  0.64040240  0.58313915  0.24456356  1
  Na  Na17  1  0.64010120  0.58217764  0.49393168  1
  Na  Na18  1  0.64030485  0.58202767  0.74352117  1
  Na  Na19  1  0.64087561  0.58405968  0.99382550  1
  Na  Na20  1  0.64043293  0.91616779  0.24425819  1
  Na  Na21  1  0.64073796  0.91614779  0.49392924  1
  Na  Na22  1  0.64050600  0.91542870  0.74460490  1
  Na  Na23  1  0.64042094  0.91628808  0.99448971  1
  Na  Na24  1  0.35939148  0.08353204  0.00665470  1
  Na  Na25  1  0.35936473  0.08264131  0.25696354  1
  Na  Na26  1  0.35946916  0.08453315  0.50711504  1
  Na  Na27  1  0.35961154  0.08347846  0.75680913  1
  Na  Na28  1  0.35868281  0.41720443  0.00658900  1
  Na  Na29  1  0.35908273  0.41659512  0.25570750  1
  Na  Na30  1  0.35918193  0.41689501  0.50678282  1
  Na  Na31  1  0.35859239  0.41690847  0.75562771  1
  Na  Na32  1  0.35931594  0.75101362  0.00670088  1
  Na  Na33  1  0.35950032  0.75125029  0.25576515  1
  Na  Na34  1  0.35898265  0.75162195  0.50598075  1
  Na  Na35  1  0.35913829  0.75059840  0.75755146  1
  Na  Na36  1  0.86059285  0.08356596  0.00653022  1
  Na  Na37  1  0.86033882  0.08430246  0.25758018  1
  Na  Na38  1  0.85988530  0.08462017  0.50537710  1
  Na  Na39  1  0.85991069  0.08370700  0.75687048  1
  Na  Na40  1  0.85930052  0.41738633  0.00480111  1
  Na  Na41  1  0.85968144  0.41690392  0.25727458  1
  Na  Na42  1  0.86007746  0.41657343  0.50671427  1
  Na  Na43  1  0.85950756  0.41547577  0.75512351  1
  Na  Na44  1  0.85974170  0.75019197  0.00612965  1
  Na  Na45  1  0.86051004  0.75031577  0.25700818  1
  Na  Na46  1  0.86034121  0.74979952  0.50519952  1
  Na  Na47  1  0.85962126  0.74836685  0.75529196  1
  Na  Na48  1  0.10987317  0.08272607  0.11937034  1
  Na  Na49  1  0.11030435  0.08306358  0.36789183  1
  Na  Na50  1  0.11021404  0.08411328  0.61777890  1
  Na  Na51  1  0.10986813  0.08374290  0.86832942  1
  Na  Na52  1  0.11002208  0.41573860  0.11798716  1
  Na  Na53  1  0.10954975  0.41667115  0.36854872  1
  Na  Na54  1  0.10925305  0.41478269  0.61760717  1
  Na  Na55  1  0.11015743  0.41487439  0.86806743  1
  Na  Na56  1  0.11047477  0.75119027  0.11803106  1
  Na  Na57  1  0.10980219  0.75188755  0.36700566  1
  Na  Na58  1  0.11026347  0.74947389  0.61809403  1
  Na  Na59  1  0.11072310  0.75018771  0.86841834  1
  Na  Na60  1  0.60953735  0.08333716  0.12069831  1
  Na  Na61  1  0.60990299  0.08299391  0.36877392  1
  Na  Na62  1  0.60944823  0.08297404  0.61958386  1
  Na  Na63  1  0.60900779  0.08361050  0.86956699  1
  Na  Na64  1  0.60944752  0.41637817  0.11920184  1
  Na  Na65  1  0.60908774  0.41585182  0.36963230  1
  Na  Na66  1  0.60929013  0.41488965  0.61901450  1
  Na  Na67  1  0.60979152  0.41648005  0.86799467  1
  Na  Na68  1  0.61005616  0.75020709  0.11931591  1
  Na  Na69  1  0.60951642  0.74854149  0.36872490  1
  Na  Na70  1  0.60952489  0.74771599  0.61918735  1
  Na  Na71  1  0.60982776  0.75162953  0.86887769  1
  Na  Na72  1  0.38996173  0.25080181  0.13116341  1
  Na  Na73  1  0.38962928  0.24990837  0.38190053  1
  Na  Na74  1  0.38935043  0.24856519  0.63201234  1
  Na  Na75  1  0.38960223  0.25024835  0.88071389  1
  Na  Na76  1  0.38978697  0.58420465  0.13139257  1
  Na  Na77  1  0.38990385  0.58289839  0.38003973  1
  Na  Na78  1  0.38979898  0.58321519  0.63123122  1
  Na  Na79  1  0.38996424  0.58560165  0.88173540  1
  Na  Na80  1  0.38964204  0.91730349  0.13201860  1
  Na  Na81  1  0.38950080  0.91691410  0.38161592  1
  Na  Na82  1  0.39019367  0.91718022  0.63230635  1
  Na  Na83  1  0.38971161  0.91835846  0.88242968  1
  Na  Na84  1  0.89073932  0.24870919  0.13118420  1
  Na  Na85  1  0.89053540  0.25040161  0.38226782  1
  Na  Na86  1  0.89001560  0.25010834  0.63059295  1
  Na  Na87  1  0.89061558  0.24949882  0.88057848  1
  Na  Na88  1  0.89034603  0.58452199  0.13160887  1
  Na  Na89  1  0.89112423  0.58449000  0.38125077  1
  Na  Na90  1  0.89068425  0.58173903  0.63054277  1
  Na  Na91  1  0.89041987  0.58240889  0.88075877  1
  Na  Na92  1  0.89141794  0.91738549  0.13216679  1
  Na  Na93  1  0.89093334  0.91788528  0.38084688  1
  Na  Na94  1  0.89081920  0.91662867  0.63029298  1
  Na  Na95  1  0.89059454  0.91695737  0.88135203  1
  Mn  Mn96  1  0.00089347  0.49838471  0.74976116  1
  Mn  Mn97  1  0.25005754  0.83430524  0.62528821  1
  Mn  Mn98  1  0.24960064  0.50040811  0.37471201  1
  Mn  Mn99  1  0.75036591  0.00016992  0.12525455  1
  Mn  Mn100  1  0.50050523  0.66850590  0.00117886  1
  Mn  Mn101  1  0.75035485  0.50013494  0.37557943  1
  Mn  Mn102  1  0.00037118  0.00040652  0.49955401  1
  Mn  Mn103  1  0.24932687  0.33257206  0.37524658  1
  Mn  Mn104  1  0.24976052  0.49998952  0.87493073  1
  Mn  Mn105  1  0.74991602  -0.00119214  0.87562900  1
  Mn  Mn106  1  0.00016379  0.83340580  0.74984698  1
  Mn  Mn107  1  0.25016948  0.66830549  0.37348059  1
  Mn  Mn108  1  0.74970777  0.16713182  0.87556535  1
  Mn  Mn109  1  -0.00037962  0.83443052  -0.00007703  1
  Mn  Mn110  1  0.49911021  0.33237209  0.49993002  1
  Mn  Mn111  1  0.50056657  0.00027054  0.50060684  1
  Mn  Mn112  1  -0.00001814  0.50043564  0.24971415  1
  Mn  Mn113  1  0.25003951  0.16593857  0.12448349  1
  Mn  Mn114  1  -0.00016441  0.33236257  0.24966660  1
  Mn  Mn115  1  0.24987222  0.16683905  0.87495244  1
  Mn  Mn116  1  0.49965267  0.00080827  0.00111715  1
  Mn  Mn117  1  0.49906479  0.33216176  0.74940737  1
  Mn  Mn118  1  0.49957607  0.33319221  0.25047930  1
  Mn  Mn119  1  0.00023705  0.66600467  0.74907291  1
  Mn  Mn120  1  0.49882830  0.66495910  0.49903828  1
  Mn  Mn121  1  0.49964456  0.83370873  0.75043497  1
  Mn  Mn122  1  0.24940217  0.50072121  0.62529498  1
  Mn  Mn123  1  0.74974815  0.83273332  0.37502331  1
  Mn  Mn124  1  0.49926478  0.33284220  0.00001199  1
  Mn  Mn125  1  0.75026087  0.16707005  0.12576815  1
  Mn  Mn126  1  0.50000192  0.83257255  0.50126034  1
  Mn  Mn127  1  0.00070855  0.00094872  0.74953124  1
  Mn  Mn128  1  0.75047574  0.83174913  0.62378704  1
  Mn  Mn129  1  0.00042585  0.49950808  -0.00019315  1
  Mn  Mn130  1  0.00037188  0.66713350  0.00013908  1
  Mn  Mn131  1  0.75017162  0.33386974  0.12540796  1
  Mn  Mn132  1  0.49978732  0.66670149  0.24992207  1
  Mn  Mn133  1  0.75003775  0.66614254  0.87478911  1
  Mn  Mn134  1  0.00055149  0.66706900  0.49951837  1
  Mn  Mn135  1  0.49998983  0.50079236  -0.00061002  1
  Mn  Mn136  1  -0.00023629  0.33168584  -0.00053490  1
  Mn  Mn137  1  0.75043923  -0.00045254  0.62524057  1
  Mn  Mn138  1  0.49967345  -0.00009311  0.25030172  1
  Mn  Mn139  1  0.49898894  0.50048854  0.74975131  1
  Mn  Mn140  1  0.74963141  0.50093579  0.12583103  1
  Mn  Mn141  1  0.74959311  0.49914279  0.62456741  1
  Mn  Mn142  1  0.75099981  0.83280788  0.12551781  1
  Mn  Mn143  1  0.74945518  0.16720879  0.62548919  1
  Fe  Fe144  1  0.25001065  0.66760066  0.62495190  1
  Fe  Fe145  1  0.00060226  0.83395435  0.49882365  1
  Fe  Fe146  1  0.00093352  0.49992431  0.49931059  1
  Fe  Fe147  1  0.49994896  0.16620635  0.75056277  1
  Fe  Fe148  1  -0.00037371  0.16663399  0.74930801  1
  Fe  Fe149  1  0.74966836  0.33344961  0.37554512  1
  Fe  Fe150  1  0.75018559  0.66631924  0.37514401  1
  Fe  Fe151  1  0.49967293  0.16681586  0.00029927  1
  Fe  Fe152  1  0.24972862  0.83457203  0.37472487  1
  Fe  Fe153  1  0.74991832  0.33354654  0.87500045  1
  Fe  Fe154  1  0.25038834  0.16625073  0.37497720  1
  Fe  Fe155  1  0.25039578  0.00095301  0.62466189  1
  Fe  Fe156  1  0.49950275  0.16675940  0.25049926  1
  Fe  Fe157  1  0.25028210  0.83371348  0.12438723  1
  Fe  Fe158  1  0.24945995  0.16658984  0.62483246  1
  Fe  Fe159  1  0.49952903  0.49920597  0.50014390  1
  Fe  Fe160  1  0.00050037  0.00094806  0.00038955  1
  Fe  Fe161  1  0.00015110  0.00089885  0.25015476  1
  Fe  Fe162  1  0.24987918  0.33267206  0.12514835  1
  Fe  Fe163  1  0.24928977  0.33328196  0.62487568  1
  Fe  Fe164  1  0.25028170  0.00037384  0.37502917  1
  Fe  Fe165  1  0.75069523  0.83239076  0.87487394  1
  Fe  Fe166  1  0.25015725  0.66738177  0.12422615  1
  Fe  Fe167  1  0.74961879  0.33307457  0.62517204  1
  Fe  Fe168  1  0.50005051  0.00045072  0.75111127  1
  Fe  Fe169  1  0.00067984  0.16590287  -0.00010812  1
  Fe  Fe170  1  0.49988343  0.66695041  0.75011621  1
  Fe  Fe171  1  0.49958531  0.16587586  0.50076816  1
  Fe  Fe172  1  0.24975965  0.00003688  0.87505311  1
  Fe  Fe173  1  0.24974940  0.49971854  0.12397648  1
  Fe  Fe174  1  0.00057400  0.16634618  0.25002343  1
  Fe  Fe175  1  -0.00006068  0.16666790  0.49949161  1
  Fe  Fe176  1  0.25001323  0.66686004  0.87523639  1
  Fe  Fe177  1  0.75013048  0.49968245  0.87457953  1
  Fe  Fe178  1  0.00008284  0.33277926  0.49959233  1
  Fe  Fe179  1  0.00055562  0.83447449  0.24935747  1
  Fe  Fe180  1  0.24992078  -0.00043278  0.12544945  1
  Fe  Fe181  1  0.25029280  0.83367888  0.87540098  1
  Fe  Fe182  1  0.75017670  0.66554486  0.62546861  1
  Fe  Fe183  1  0.75037642  0.66686847  0.12463927  1
  Fe  Fe184  1  0.75042416  0.00010783  0.37502274  1
  Fe  Fe185  1  0.00097431  0.66762938  0.25048075  1
  Fe  Fe186  1  0.49984139  0.49973641  0.24997479  1
  Fe  Fe187  1  0.24944159  0.33329880  0.87480775  1
  Fe  Fe188  1  0.50003718  0.83468042  0.00000313  1
  Fe  Fe189  1  0.75010175  0.16709059  0.37575129  1
  Fe  Fe190  1  0.49986270  0.83351753  0.25052256  1
  Fe  Fe191  1  -0.00027081  0.33203811  0.74888698  1
  P  P192  1  0.04261829  0.24761017  0.10251081  1
  P  P193  1  0.04215859  0.24867767  0.35288396  1
  P  P194  1  0.04098949  0.24942455  0.60150832  1
  P  P195  1  0.04173746  0.24899345  0.85101390  1
  P  P196  1  0.04287023  0.58389211  0.10362076  1
  P  P197  1  0.04292667  0.58468623  0.35230840  1
  P  P198  1  0.04278100  0.58158237  0.60176808  1
  P  P199  1  0.04334612  0.58286116  0.85272814  1
  P  P200  1  0.04209449  0.91876834  0.10317989  1
  P  P201  1  0.04162257  0.91743410  0.35128616  1
  P  P202  1  0.04283243  0.91587525  0.60162962  1
  P  P203  1  0.04286197  0.91774863  0.85338667  1
  P  P204  1  0.54190714  0.24857230  0.10313744  1
  P  P205  1  0.54148041  0.24837644  0.35333303  1
  P  P206  1  0.54179206  0.24778410  0.60289311  1
  P  P207  1  0.54173163  0.24852684  0.85296067  1
  P  P208  1  0.54274234  0.58346446  0.10370100  1
  P  P209  1  0.54189680  0.58133817  0.35264225  1
  P  P210  1  0.54183271  0.58172896  0.60259298  1
  P  P211  1  0.54205228  0.58539273  0.85238889  1
  P  P212  1  0.54222271  0.91572043  0.10344953  1
  P  P213  1  0.54210861  0.91548731  0.35288477  1
  P  P214  1  0.54296337  0.91685345  0.60433781  1
  P  P215  1  0.54182228  0.91828874  0.85337172  1
  P  P216  1  0.45733358  0.08501082  0.14793684  1
  P  P217  1  0.45769312  0.08444009  0.39775963  1
  P  P218  1  0.45839409  0.08317774  0.64892634  1
  P  P219  1  0.45740165  0.08484885  0.89758563  1
  P  P220  1  0.45738147  0.41770317  0.14762597  1
  P  P221  1  0.45716965  0.41765076  0.39726760  1
  P  P222  1  0.45638290  0.41621642  0.64629364  1
  P  P223  1  0.45666715  0.41678786  0.89666594  1
  P  P224  1  0.45791071  0.75227625  0.14754936  1
  P  P225  1  0.45689533  0.75011707  0.39656314  1
  P  P226  1  0.45724341  0.74851701  0.64795085  1
  P  P227  1  0.45772646  0.75207780  0.89786409  1
  P  P228  1  0.95870671  0.08343263  0.14800517  1
  P  P229  1  0.95851662  0.08467984  0.39667311  1
  P  P230  1  0.95772339  0.08488608  0.64668123  1
  P  P231  1  0.95868536  0.08368740  0.89792913  1
  P  P232  1  0.95705892  0.41606086  0.14684455  1
  P  P233  1  0.95888931  0.41676652  0.39828312  1
  P  P234  1  0.95822853  0.41437823  0.64626213  1
  P  P235  1  0.95775703  0.41528104  0.89600179  1
  P  P236  1  0.95923127  0.75046630  0.14868245  1
  P  P237  1  0.95876707  0.75178689  0.39619443  1
  P  P238  1  0.95762391  0.75000745  0.64570301  1
  P  P239  1  0.95737685  0.75017076  0.89675138  1
  P  P240  1  0.20837180  0.08172862  0.22822236  1
  P  P241  1  0.20887196  0.08378714  0.47697294  1
  P  P242  1  0.20869510  0.08312528  0.72670352  1
  P  P243  1  0.20807670  0.08182520  0.97768718  1
  P  P244  1  0.20832280  0.41637978  0.22607559  1
  P  P245  1  0.20715417  0.41663427  0.47843449  1
  P  P246  1  0.20716668  0.41529871  0.72746988  1
  P  P247  1  0.20778085  0.41539809  0.97799691  1
  P  P248  1  0.20909872  0.75107075  0.22595893  1
  P  P249  1  0.20768260  0.75235529  0.47688234  1
  P  P250  1  0.20803046  0.74928442  0.72804263  1
  P  P251  1  0.20907340  0.75027525  0.97705685  1
  P  P252  1  0.70799081  0.08347286  0.22978892  1
  P  P253  1  0.70879347  0.08313867  0.47667215  1
  P  P254  1  0.70729454  0.08290833  0.72855882  1
  P  P255  1  0.70699044  0.08327350  0.97861990  1
  P  P256  1  0.70714670  0.41669641  0.22915097  1
  P  P257  1  0.70761571  0.41516875  0.47804494  1
  P  P258  1  0.70741265  0.41496993  0.72805542  1
  P  P259  1  0.70816231  0.41723663  0.97654584  1
  P  P260  1  0.70832826  0.74812706  0.22799010  1
  P  P261  1  0.70759629  0.74771394  0.47776336  1
  P  P262  1  0.70783384  0.74821763  0.72757442  1
  P  P263  1  0.70795736  0.75078262  0.97770094  1
  P  P264  1  0.29176653  0.25122882  0.02215303  1
  P  P265  1  0.29180615  0.24858909  0.27226624  1
  P  P266  1  0.29076771  0.24976034  0.52334145  1
  P  P267  1  0.29122221  0.25126534  0.77173653  1
  P  P268  1  0.29124469  0.58377659  0.02287759  1
  P  P269  1  0.29206926  0.58330872  0.27023397  1
  P  P270  1  0.29183804  0.58536981  0.52241596  1
  P  P271  1  0.29196642  0.58477843  0.77244395  1
  P  P272  1  0.29140834  0.91707594  0.02294571  1
  P  P273  1  0.29120626  0.91699497  0.27271039  1
  P  P274  1  0.29240028  0.91895580  0.52226361  1
  P  P275  1  0.29131895  0.91709747  0.77362644  1
  P  P276  1  0.79274557  0.25075417  0.02177427  1
  P  P277  1  0.79166603  0.25045697  0.27423058  1
  P  P278  1  0.79162169  0.25123559  0.52201257  1
  P  P279  1  0.79188744  0.25141993  0.77245161  1
  P  P280  1  0.79254161  0.58425074  0.02224361  1
  P  P281  1  0.79257755  0.58476483  0.27251151  1
  P  P282  1  0.79226712  0.58431479  0.52229514  1
  P  P283  1  0.79243482  0.58139927  0.77198324  1
  P  P284  1  0.79354949  0.91617111  0.02181177  1
  P  P285  1  0.79251805  0.91746882  0.27288249  1
  P  P286  1  0.79298726  0.91672431  0.52097497  1
  P  P287  1  0.79273687  0.91439665  0.77247816  1
  O  O288  1  0.03751122  0.24778790  0.18244666  1
  O  O289  1  0.03672864  0.24910706  0.43273605  1
  O  O290  1  0.03602045  0.24963020  0.68140451  1
  O  O291  1  0.03693878  0.24849315  0.93099907  1
  O  O292  1  0.03767130  0.58465578  0.18359836  1
  O  O293  1  0.03781717  0.58417854  0.43226147  1
  O  O294  1  0.03759958  0.58166112  0.68170603  1
  O  O295  1  0.03825313  0.58305119  0.93271352  1
  O  O296  1  0.03673350  0.91871042  0.18307779  1
  O  O297  1  0.03687672  0.91659611  0.43124591  1
  O  O298  1  0.03771917  0.91632399  0.68158596  1
  O  O299  1  0.03750419  0.91845524  0.93333161  1
  O  O300  1  0.53650046  0.24886965  0.18310210  1
  O  O301  1  0.53600078  0.24827387  0.43324129  1
  O  O302  1  0.53651167  0.24777725  0.68284420  1
  O  O303  1  0.53655972  0.24882411  0.93290810  1
  O  O304  1  0.53738083  0.58279941  0.18362297  1
  O  O305  1  0.53642225  0.58103879  0.43257843  1
  O  O306  1  0.53659308  0.58287259  0.68252007  1
  O  O307  1  0.53722724  0.58551080  0.93238214  1
  O  O308  1  0.53690769  0.91542516  0.18342392  1
  O  O309  1  0.53733320  0.91581555  0.43288528  1
  O  O310  1  0.53767357  0.91760612  0.68429553  1
  O  O311  1  0.53652061  0.91786308  0.93332501  1
  O  O312  1  0.46257671  0.08484784  0.06801162  1
  O  O313  1  0.46283734  0.08439930  0.31783129  1
  O  O314  1  0.46344832  0.08329381  0.56893939  1
  O  O315  1  0.46306608  0.08415768  0.81773810  1
  O  O316  1  0.46248382  0.41719475  0.06767127  1
  O  O317  1  0.46267928  0.41770086  0.31731841  1
  O  O318  1  0.46160918  0.41646549  0.56631929  1
  O  O319  1  0.46150459  0.41651498  0.81665652  1
  O  O320  1  0.46317292  0.75285186  0.06762389  1
  O  O321  1  0.46231321  0.75082567  0.31661154  1
  O  O322  1  0.46221865  0.74844074  0.56798031  1
  O  O323  1  0.46274671  0.75106101  0.81792628  1
  O  O324  1  0.96410241  0.08324095  0.06810110  1
  O  O325  1  0.96383354  0.08424333  0.31681465  1
  O  O326  1  0.96282868  0.08481973  0.56674059  1
  O  O327  1  0.96353484  0.08407998  0.81793006  1
  O  O328  1  0.96216762  0.41591169  0.06687798  1
  O  O329  1  0.96341637  0.41653288  0.31827256  1
  O  O330  1  0.96361139  0.41467900  0.56642588  1
  O  O331  1  0.96308740  0.41463175  0.81606703  1
  O  O332  1  0.96358915  0.75076334  0.06865842  1
  O  O333  1  0.96457735  0.75139409  0.31634473  1
  O  O334  1  0.96299710  0.75049770  0.56573451  1
  O  O335  1  0.96239198  0.74992032  0.81678671  1
  O  O336  1  0.21352788  0.08190815  0.05757674  1
  O  O337  1  0.21400012  0.08219823  0.30805917  1
  O  O338  1  0.21369992  0.08407238  0.55687166  1
  O  O339  1  0.21331233  0.08335760  0.80665457  1
  O  O340  1  0.21352399  0.41567807  0.05785505  1
  O  O341  1  0.21313277  0.41666549  0.30611380  1
  O  O342  1  0.21237104  0.41634818  0.55835392  1
  O  O343  1  0.21247971  0.41519562  0.80741883  1
  O  O344  1  0.21412348  0.75067106  0.05692684  1
  O  O345  1  0.21347827  0.75150117  0.30589514  1
  O  O346  1  0.21281009  0.75200203  0.55676632  1
  O  O347  1  0.21335548  0.74917759  0.80788379  1
  O  O348  1  0.71207562  0.08352640  0.05860910  1
  O  O349  1  0.71345623  0.08325634  0.30969286  1
  O  O350  1  0.71336334  0.08347686  0.55668212  1
  O  O351  1  0.71235235  0.08295923  0.80847467  1
  O  O352  1  0.71314264  0.41754270  0.05655961  1
  O  O353  1  0.71237807  0.41632167  0.30907817  1
  O  O354  1  0.71278558  0.41519180  0.55797866  1
  O  O355  1  0.71293813  0.41547991  0.80790871  1
  O  O356  1  0.71330330  0.75020059  0.05763170  1
  O  O357  1  0.71340994  0.74805507  0.30795079  1
  O  O358  1  0.71286155  0.74752020  0.55769020  1
  O  O359  1  0.71326359  0.74916336  0.80750731  1
  O  O360  1  0.28655589  0.24911914  0.19234824  1
  O  O361  1  0.28622493  0.24884738  0.44334922  1
  O  O362  1  0.28559328  0.25093127  0.69189400  1
  O  O363  1  0.28640103  0.25132231  0.94223907  1
  O  O364  1  0.28663209  0.58286615  0.19037129  1
  O  O365  1  0.28657237  0.58510623  0.44245737  1
  O  O366  1  0.28665957  0.58484231  0.69252137  1
  O  O367  1  0.28630918  0.58415277  0.94288567  1
  O  O368  1  0.28604275  0.91695002  0.19286092  1
  O  O369  1  0.28715024  0.91885451  0.44242673  1
  O  O370  1  0.28689788  0.91699945  0.69371432  1
  O  O371  1  0.28640900  0.91692115  0.94311031  1
  O  O372  1  0.78733163  0.25006086  0.19419911  1
  O  O373  1  0.78622570  0.25095296  0.44215536  1
  O  O374  1  0.78658470  0.25134135  0.69250878  1
  O  O375  1  0.78742290  0.25113176  0.94184773  1
  O  O376  1  0.78734172  0.58484022  0.19255266  1
  O  O377  1  0.78707326  0.58446581  0.44234351  1
  O  O378  1  0.78715595  0.58180471  0.69205131  1
  O  O379  1  0.78719585  0.58332968  0.94231861  1
  O  O380  1  0.78780170  0.91709906  0.19288591  1
  O  O381  1  0.78738600  0.91731696  0.44106855  1
  O  O382  1  0.78758738  0.91454548  0.69248501  1
  O  O383  1  0.78838767  0.91533366  0.94183977  1
  O  O384  1  0.22758893  0.25086713  0.05810183  1
  O  O385  1  0.22759690  0.24810647  0.30813334  1
  O  O386  1  0.22652395  0.25031231  0.55900733  1
  O  O387  1  0.22719078  0.25136114  0.80820826  1
  O  O388  1  0.22719444  0.58335106  0.05892683  1
  O  O389  1  0.22790390  0.58386736  0.30617770  1
  O  O390  1  0.22759712  0.58546264  0.55820798  1
  O  O391  1  0.22777619  0.58460213  0.80841153  1
  O  O392  1  0.22735498  0.91732667  0.05933921  1
  O  O393  1  0.22721275  0.91728381  0.30931547  1
  O  O394  1  0.22819909  0.91897511  0.55832030  1
  O  O395  1  0.22712781  0.91709584  0.80945836  1
  O  O396  1  0.72837433  0.25045550  0.05711618  1
  O  O397  1  0.72731797  0.25096326  0.30960603  1
  O  O398  1  0.72749115  0.25160282  0.55832554  1
  O  O399  1  0.72765420  0.25134522  0.80827907  1
  O  O400  1  0.72824299  0.58509720  0.05810256  1
  O  O401  1  0.72827650  0.58426668  0.30819477  1
  O  O402  1  0.72798787  0.58427812  0.55808827  1
  O  O403  1  0.72818804  0.58127765  0.80782168  1
  O  O404  1  0.72915318  0.91609559  0.05706163  1
  O  O405  1  0.72811421  0.91749282  0.30812521  1
  O  O406  1  0.72872304  0.91626101  0.55654955  1
  O  O407  1  0.72840327  0.91414455  0.80811205  1
  O  O408  1  0.27235709  0.08161397  0.19169391  1
  O  O409  1  0.27299988  0.08344375  0.44080157  1
  O  O410  1  0.27291473  0.08299045  0.69091509  1
  O  O411  1  0.27220108  0.08210407  0.94161531  1
  O  O412  1  0.27250259  0.41626487  0.19022657  1
  O  O413  1  0.27143181  0.41648703  0.44292691  1
  O  O414  1  0.27137184  0.41554018  0.69157143  1
  O  O415  1  0.27176569  0.41515018  0.94134398  1
  O  O416  1  0.27328764  0.75099296  0.19027261  1
  O  O417  1  0.27197575  0.75278554  0.44112795  1
  O  O418  1  0.27217356  0.74939681  0.69178289  1
  O  O419  1  0.27304320  0.74977768  0.94055888  1
  O  O420  1  0.77221219  0.08353907  0.19393889  1
  O  O421  1  0.77301874  0.08289343  0.44104758  1
  O  O422  1  0.77171551  0.08344819  0.69343226  1
  O  O423  1  0.77143397  0.08319799  0.94359903  1
  O  O424  1  0.77153656  0.41713555  0.19388001  1
  O  O425  1  0.77193848  0.41508579  0.44237026  1
  O  O426  1  0.77151701  0.41471296  0.69168598  1
  O  O427  1  0.77236126  0.41730623  0.94060057  1
  O  O428  1  0.77265738  0.74792325  0.19227747  1
  O  O429  1  0.77191780  0.74829963  0.44212502  1
  O  O430  1  0.77209087  0.74754879  0.69163656  1
  O  O431  1  0.77219920  0.75083839  0.94183451  1
  O  O432  1  0.02276968  0.08345620  0.18446160  1
  O  O433  1  0.02264247  0.08490233  0.43275686  1
  O  O434  1  0.02210986  0.08535793  0.68214677  1
  O  O435  1  0.02291695  0.08374161  0.93386525  1
  O  O436  1  0.02151518  0.41615899  0.18177792  1
  O  O437  1  0.02312437  0.41715318  0.43380228  1
  O  O438  1  0.02234727  0.41386872  0.68241074  1
  O  O439  1  0.02200810  0.41527707  0.93154975  1
  O  O440  1  0.02359281  0.75019964  0.18385490  1
  O  O441  1  0.02278602  0.75188776  0.43260654  1
  O  O442  1  0.02196839  0.74989571  0.68104275  1
  O  O443  1  0.02183571  0.75067697  0.93167904  1
  O  O444  1  0.52156340  0.08484702  0.18372421  1
  O  O445  1  0.52204284  0.08484287  0.43338028  1
  O  O446  1  0.52253392  0.08302895  0.68497140  1
  O  O447  1  0.52149161  0.08511021  0.93390549  1
  O  O448  1  0.52168673  0.41766464  0.18316231  1
  O  O449  1  0.52132086  0.41730195  0.43330890  1
  O  O450  1  0.52067553  0.41624019  0.68164083  1
  O  O451  1  0.52118519  0.41649781  0.93141168  1
  O  O452  1  0.52212235  0.75159622  0.18333103  1
  O  O453  1  0.52117946  0.74926305  0.43196046  1
  O  O454  1  0.52162446  0.74888885  0.68327842  1
  O  O455  1  0.52207640  0.75277993  0.93344639  1
  O  O456  1  0.47765063  0.24840722  0.06728085  1
  O  O457  1  0.47731684  0.24858456  0.31735169  1
  O  O458  1  0.47747533  0.24768286  0.56726605  1
  O  O459  1  0.47746959  0.24813625  0.81721680  1
  O  O460  1  0.47841870  0.58410072  0.06835147  1
  O  O461  1  0.47775338  0.58170908  0.31664741  1
  O  O462  1  0.47750007  0.58082064  0.56691573  1
  O  O463  1  0.47757715  0.58560439  0.81726702  1
  O  O464  1  0.47794890  0.91575743  0.06770467  1
  O  O465  1  0.47770713  0.91552607  0.31762836  1
  O  O466  1  0.47859298  0.91688132  0.56912993  1
  O  O467  1  0.47761157  0.91854852  0.81755113  1
  O  O468  1  0.97830935  0.24721820  0.06688592  1
  O  O469  1  0.97800072  0.24816175  0.31682284  1
  O  O470  1  0.97698762  0.24893257  0.56522612  1
  O  O471  1  0.97746536  0.24898512  0.81516579  1
  O  O472  1  0.97853408  0.58360276  0.06832740  1
  O  O473  1  0.97857027  0.58525379  0.31686788  1
  O  O474  1  0.97851513  0.58174430  0.56616334  1
  O  O475  1  0.97891607  0.58249634  0.81772084  1
  O  O476  1  0.97800956  0.91902937  0.06701364  1
  O  O477  1  0.97748185  0.91801785  0.31548573  1
  O  O478  1  0.97851692  0.91559853  0.56610678  1
  O  O479  1  0.97863135  0.91765137  0.81781816  1
  O  O480  1  0.07323771  0.31146223  0.07452937  1
  O  O481  1  0.07310071  0.31236264  0.32472874  1
  O  O482  1  0.07145852  0.31314619  0.57266849  1
  O  O483  1  0.07217417  0.31285854  0.82282926  1
  O  O484  1  0.07417223  0.64701732  0.07504952  1
  O  O485  1  0.07381931  0.64824032  0.32400095  1
  O  O486  1  0.07404821  0.64514382  0.57424547  1
  O  O487  1  0.07411713  0.64640662  0.82446243  1
  O  O488  1  0.07317111  0.98197493  0.07437860  1
  O  O489  1  0.07273518  0.98111777  0.32374919  1
  O  O490  1  0.07356983  0.97974573  0.57388341  1
  O  O491  1  0.07419270  0.98081733  0.82467036  1
  O  O492  1  0.57276970  0.31242601  0.07535641  1
  O  O493  1  0.57252737  0.31220882  0.32589175  1
  O  O494  1  0.57264767  0.31153338  0.57507443  1
  O  O495  1  0.57244185  0.31230821  0.82490469  1
  O  O496  1  0.57392108  0.64715017  0.07621069  1
  O  O497  1  0.57309816  0.64511806  0.32534662  1
  O  O498  1  0.57261934  0.64517845  0.57396755  1
  O  O499  1  0.57278050  0.64884758  0.82379183  1
  O  O500  1  0.57304095  0.97974985  0.07614094  1
  O  O501  1  0.57306697  0.97911346  0.32498298  1
  O  O502  1  0.57438066  0.97980016  0.57543184  1
  O  O503  1  0.57259620  0.98189768  0.82522462  1
  O  O504  1  0.42642243  0.02113845  0.17558391  1
  O  O505  1  0.42715971  0.02047953  0.42557933  1
  O  O506  1  0.42765895  0.01946173  0.67714557  1
  O  O507  1  0.42623731  0.02143261  0.92599874  1
  O  O508  1  0.42625492  0.35415661  0.17555111  1
  O  O509  1  0.42596017  0.35386136  0.42463256  1
  O  O510  1  0.42556059  0.35246534  0.67412802  1
  O  O511  1  0.42546950  0.35355335  0.92503537  1
  O  O512  1  0.42655146  0.68849586  0.17454530  1
  O  O513  1  0.42546346  0.68647066  0.42381694  1
  O  O514  1  0.42691325  0.68491586  0.67660635  1
  O  O515  1  0.42683404  0.68866311  0.92645569  1
  O  O516  1  0.92762147  0.02004385  0.17656784  1
  O  O517  1  0.92743558  0.02116622  0.42488769  1
  O  O518  1  0.92723683  0.02088762  0.67455251  1
  O  O519  1  0.92821166  0.01982570  0.92614098  1
  O  O520  1  0.92618860  0.35251164  0.17500449  1
  O  O521  1  0.92855692  0.35285466  0.42653734  1
  O  O522  1  0.92707559  0.35114742  0.67505516  1
  O  O523  1  0.92634430  0.35223344  0.92453013  1
  O  O524  1  0.92823736  0.68701084  0.17686407  1
  O  O525  1  0.92738280  0.68834540  0.42414667  1
  O  O526  1  0.92680538  0.68616050  0.67341453  1
  O  O527  1  0.92656697  0.68662927  0.92495939  1
  O  O528  1  0.17745786  0.01817520  0.19976230  1
  O  O529  1  0.17772205  0.02026415  0.44857203  1
  O  O530  1  0.17765978  0.01966577  0.69826273  1
  O  O531  1  0.17723689  0.01845482  0.94899420  1
  O  O532  1  0.17754561  0.35234011  0.19851265  1
  O  O533  1  0.17585367  0.35336649  0.44993278  1
  O  O534  1  0.17632097  0.35199526  0.69846338  1
  O  O535  1  0.17656578  0.35204901  0.94943726  1
  O  O536  1  0.17869266  0.68711419  0.19748773  1
  O  O537  1  0.17664891  0.68884911  0.44854425  1
  O  O538  1  0.17726098  0.68590677  0.69875906  1
  O  O539  1  0.17755645  0.68686296  0.94900513  1
  O  O540  1  0.67667370  0.02014137  0.20126538  1
  O  O541  1  0.67767429  0.01953593  0.44873724  1
  O  O542  1  0.67669917  0.01917343  0.70033523  1
  O  O543  1  0.67604285  0.01960323  0.95067897  1
  O  O544  1  0.67608144  0.35333570  0.20053587  1
  O  O545  1  0.67648379  0.35193752  0.44936824  1
  O  O546  1  0.67637032  0.35154586  0.69944702  1
  O  O547  1  0.67751215  0.35325457  0.94872921  1
  O  O548  1  0.67724780  0.68500719  0.19897899  1
  O  O549  1  0.67693331  0.68431123  0.44878026  1
  O  O550  1  0.67708825  0.68435622  0.69966705  1
  O  O551  1  0.67650082  0.68745184  0.94952571  1
  O  O552  1  0.32260355  0.31453684  0.05117075  1
  O  O553  1  0.32279484  0.31219913  0.30050551  1
  O  O554  1  0.32182380  0.31353584  0.55103416  1
  O  O555  1  0.32237937  0.31460138  0.80032966  1
  O  O556  1  0.32192870  0.64754251  0.05142540  1
  O  O557  1  0.32351572  0.64677978  0.29826081  1
  O  O558  1  0.32250288  0.64909451  0.55066328  1
  O  O559  1  0.32287276  0.64804852  0.80139587  1
  O  O560  1  0.32257089  0.98049987  0.05154761  1
  O  O561  1  0.32251453  0.98036791  0.30121944  1
  O  O562  1  0.32319793  0.98237784  0.55138266  1
  O  O563  1  0.32221721  0.98068989  0.80206882  1
  O  O564  1  0.82386505  0.31407377  0.05036214  1
  O  O565  1  0.82280906  0.31402788  0.30222751  1
  O  O566  1  0.82272422  0.31452736  0.55075607  1
  O  O567  1  0.82273061  0.31479941  0.80118732  1
  O  O568  1  0.82348123  0.64794870  0.05032672  1
  O  O569  1  0.82322461  0.64819307  0.30143872  1
  O  O570  1  0.82330106  0.64750268  0.55116795  1
  O  O571  1  0.82377850  0.64481397  0.80006189  1
  O  O572  1  0.82418481  0.98014709  0.04957024  1
  O  O573  1  0.82316141  0.98113812  0.30120636  1
  O  O574  1  0.82416364  0.97998667  0.54968209  1
  O  O575  1  0.82358180  0.97831979  0.80013080  1
  O  O576  1  0.42634280  0.14830082  0.17666517  1
  O  O577  1  0.42646281  0.14756872  0.42669778  1
  O  O578  1  0.42743070  0.14681133  0.67714454  1
  O  O579  1  0.42633646  0.14833968  0.92597042  1
  O  O580  1  0.42674738  0.48140611  0.17586643  1
  O  O581  1  0.42631045  0.48101093  0.42604272  1
  O  O582  1  0.42494059  0.47938547  0.67481091  1
  O  O583  1  0.42604846  0.48066379  0.92465466  1
  O  O584  1  0.42723991  0.81562165  0.17681265  1
  O  O585  1  0.42601595  0.81336506  0.42567987  1
  O  O586  1  0.42599129  0.81220790  0.67559337  1
  O  O587  1  0.42688050  0.81582291  0.92590493  1
  O  O588  1  0.92781817  0.14712898  0.17644281  1
  O  O589  1  0.92741106  0.14802787  0.42534610  1
  O  O590  1  0.92643319  0.14793328  0.67564955  1
  O  O591  1  0.92760675  0.14710362  0.92652434  1
  O  O592  1  0.92596186  0.47952801  0.17507487  1
  O  O593  1  0.92792982  0.48047918  0.42633278  1
  O  O594  1  0.92725076  0.47811231  0.67445023  1
  O  O595  1  0.92698056  0.47919039  0.92383656  1
  O  O596  1  0.92891014  0.81452483  0.17709867  1
  O  O597  1  0.92787471  0.81536477  0.42469352  1
  O  O598  1  0.92630351  0.81318747  0.67431835  1
  O  O599  1  0.92620533  0.81359537  0.92499135  1
  O  O600  1  0.07380999  0.18440806  0.07374859  1
  O  O601  1  0.07337180  0.18538393  0.32418822  1
  O  O602  1  0.07242356  0.18603315  0.57314890  1
  O  O603  1  0.07272483  0.18553491  0.82230739  1
  O  O604  1  0.07372706  0.52002938  0.07581589  1
  O  O605  1  0.07384110  0.52101752  0.32411956  1
  O  O606  1  0.07331234  0.51787065  0.57329604  1
  O  O607  1  0.07456277  0.51935234  0.82476572  1
  O  O608  1  0.07310089  0.85496228  0.07518231  1
  O  O609  1  0.07214015  0.85383495  0.32203924  1
  O  O610  1  0.07373034  0.85247347  0.57308242  1
  O  O611  1  0.07379649  0.85393385  0.82564221  1
  O  O612  1  0.57292179  0.18523680  0.07453598  1
  O  O613  1  0.57248576  0.18511216  0.32454550  1
  O  O614  1  0.57287810  0.18447779  0.57419043  1
  O  O615  1  0.57288627  0.18521654  0.82441044  1
  O  O616  1  0.57382085  0.52025646  0.07472208  1
  O  O617  1  0.57273974  0.51792208  0.32393211  1
  O  O618  1  0.57280201  0.51798722  0.57469830  1
  O  O619  1  0.57275011  0.52145234  0.82462859  1
  O  O620  1  0.57336307  0.85265962  0.07432999  1
  O  O621  1  0.57279649  0.85184774  0.32442315  1
  O  O622  1  0.57373254  0.85291409  0.57657879  1
  O  O623  1  0.57305812  0.85480625  0.82523868  1
  O  O624  1  0.32297136  0.18749067  0.04950514  1
  O  O625  1  0.32264218  0.18509184  0.30063001  1
  O  O626  1  0.32125042  0.18622810  0.55253195  1
  O  O627  1  0.32234530  0.18762550  0.79971787  1
  O  O628  1  0.32232415  0.52010512  0.05062710  1
  O  O629  1  0.32304164  0.52001034  0.29911518  1
  O  O630  1  0.32289759  0.52177456  0.55016415  1
  O  O631  1  0.32296483  0.52092825  0.79989358  1
  O  O632  1  0.32200944  0.85334862  0.05158634  1
  O  O633  1  0.32182368  0.85325574  0.30118793  1
  O  O634  1  0.32362983  0.85551400  0.55044580  1
  O  O635  1  0.32174912  0.85330565  0.80227773  1
  O  O636  1  0.82381343  0.18718610  0.04975449  1
  O  O637  1  0.82180704  0.18654389  0.30284610  1
  O  O638  1  0.82256461  0.18750944  0.54996896  1
  O  O639  1  0.82300071  0.18765966  0.79997030  1
  O  O640  1  0.82344033  0.52081489  0.05068341  1
  O  O641  1  0.82389524  0.52117835  0.30021214  1
  O  O642  1  0.82307822  0.52034474  0.54969853  1
  O  O643  1  0.82304627  0.51773711  0.80028936  1
  O  O644  1  0.82504501  0.85326441  0.05066265  1
  O  O645  1  0.82349725  0.85381166  0.30056415  1
  O  O646  1  0.82413556  0.85306897  0.54846326  1
  O  O647  1  0.82350881  0.85090736  0.80078467  1
  O  O648  1  0.17703129  0.14507572  0.20002342  1
  O  O649  1  0.17825283  0.14740383  0.44821457  1
  O  O650  1  0.17822927  0.14693207  0.69805177  1
  O  O651  1  0.17697754  0.14551832  0.94999293  1
  O  O652  1  0.17751816  0.47990962  0.19769852  1
  O  O653  1  0.17636024  0.48030833  0.45042613  1
  O  O654  1  0.17610285  0.47914124  0.70017190  1
  O  O655  1  0.17674636  0.47909018  0.95009394  1
  O  O656  1  0.17805706  0.81441449  0.19736797  1
  O  O657  1  0.17698258  0.81593849  0.44838172  1
  O  O658  1  0.17677197  0.81287502  0.70022128  1
  O  O659  1  0.17868875  0.81416475  0.94841897  1
  O  O660  1  0.67683210  0.14694598  0.20165072  1
  O  O661  1  0.67852710  0.14714353  0.44839879  1
  O  O662  1  0.67597204  0.14621037  0.70051721  1
  O  O663  1  0.67589007  0.14661712  0.95047050  1
  O  O664  1  0.67605916  0.48015843  0.20105253  1
  O  O665  1  0.67684703  0.47905168  0.45043003  1
  O  O666  1  0.67621972  0.47844343  0.69984417  1
  O  O667  1  0.67735232  0.48083007  0.94831790  1
  O  O668  1  0.67760320  0.81215084  0.20057636  1
  O  O669  1  0.67626551  0.81137889  0.45026120  1
  O  O670  1  0.67673785  0.81156022  0.69923679  1
  O  O671  1  0.67747484  0.81449180  0.94934428  1
