# generated using pymatgen
data_Na2MnFe(PO4)2
_symmetry_space_group_name_H-M   'P 1'
_cell_length_a   22.34261557
_cell_length_b   20.09374489
_cell_length_c   19.44953864
_cell_angle_alpha   90.03979847
_cell_angle_beta   89.96954152
_cell_angle_gamma   89.98069011
_symmetry_Int_Tables_number   1
_chemical_formula_structural   Na2MnFe(PO4)2
_chemical_formula_sum   'Na96 Mn48 Fe48 P96 O384'
_cell_volume   8731.80463823
_cell_formula_units_Z   48
loop_
 _symmetry_equiv_pos_site_id
 _symmetry_equiv_pos_as_xyz
  1  'x, y, z'
loop_
 _atom_site_type_symbol
 _atom_site_label
 _atom_site_symmetry_multiplicity
 _atom_site_fract_x
 _atom_site_fract_y
 _atom_site_fract_z
 _atom_site_occupancy
  Na  Na0  1  0.14087638  0.24956928  0.24394247  1
  Na  Na1  1  0.14084767  0.25134667  0.49299418  1
  Na  Na2  1  0.13991573  0.25088334  0.74467333  1
  Na  Na3  1  0.13995813  0.25077408  0.99325937  1
  Na  Na4  1  0.14053715  0.58244762  0.24354646  1
  Na  Na5  1  0.14103590  0.58355007  0.49355443  1
  Na  Na6  1  0.13992244  0.58326357  0.74332804  1
  Na  Na7  1  0.14026919  0.58391862  0.99205781  1
  Na  Na8  1  0.14096294  0.91737946  0.24407213  1
  Na  Na9  1  0.14044455  0.91685577  0.49227805  1
  Na  Na10  1  0.14071187  0.91540129  0.74335739  1
  Na  Na11  1  0.14116722  0.91758742  0.99309711  1
  Na  Na12  1  0.64068643  0.24793904  0.24412531  1
  Na  Na13  1  0.64043534  0.24920675  0.49344576  1
  Na  Na14  1  0.63963612  0.24883418  0.74497547  1
  Na  Na15  1  0.63965547  0.24967128  0.99344002  1
  Na  Na16  1  0.64037116  0.58267870  0.24334430  1
  Na  Na17  1  0.64034614  0.58349895  0.49263865  1
  Na  Na18  1  0.64031751  0.58351869  0.74369573  1
  Na  Na19  1  0.64045423  0.58430318  0.99455933  1
  Na  Na20  1  0.64118603  0.91550849  0.24405277  1
  Na  Na21  1  0.64030078  0.91664869  0.49314357  1
  Na  Na22  1  0.64011616  0.91582669  0.74523910  1
  Na  Na23  1  0.64007343  0.91721747  0.99390307  1
  Na  Na24  1  0.35929235  0.08516373  0.00770930  1
  Na  Na25  1  0.35909469  0.08476613  0.25577837  1
  Na  Na26  1  0.35945427  0.08535500  0.50625703  1
  Na  Na27  1  0.35927278  0.08424625  0.75736582  1
  Na  Na28  1  0.35878876  0.41687637  0.00677587  1
  Na  Na29  1  0.35874650  0.41713051  0.25728584  1
  Na  Na30  1  0.35958639  0.41850298  0.50558583  1
  Na  Na31  1  0.35908862  0.41653551  0.75640384  1
  Na  Na32  1  0.35960025  0.75162334  0.00606856  1
  Na  Na33  1  0.35934073  0.74968281  0.25648445  1
  Na  Na34  1  0.36025575  0.75046718  0.50654364  1
  Na  Na35  1  0.35990928  0.74995784  0.75681316  1
  Na  Na36  1  0.85921826  0.08397294  0.00662736  1
  Na  Na37  1  0.85930967  0.08113835  0.25600148  1
  Na  Na38  1  0.85989162  0.08231793  0.50519762  1
  Na  Na39  1  0.85969344  0.08335231  0.75683916  1
  Na  Na40  1  0.85959195  0.41632850  0.00599632  1
  Na  Na41  1  0.85940480  0.41470965  0.25510708  1
  Na  Na42  1  0.85985642  0.41610201  0.50625448  1
  Na  Na43  1  0.85991541  0.41550701  0.75744369  1
  Na  Na44  1  0.85950984  0.75046215  0.00641439  1
  Na  Na45  1  0.85955831  0.74908255  0.25579604  1
  Na  Na46  1  0.86033871  0.74972482  0.50588627  1
  Na  Na47  1  0.86038284  0.74902941  0.75603831  1
  Na  Na48  1  0.11036378  0.08419989  0.11797020  1
  Na  Na49  1  0.11060329  0.08256150  0.36815107  1
  Na  Na50  1  0.10952436  0.08337599  0.61817092  1
  Na  Na51  1  0.10969141  0.08539672  0.86929396  1
  Na  Na52  1  0.10975555  0.41609181  0.11741793  1
  Na  Na53  1  0.11035625  0.41577535  0.36868798  1
  Na  Na54  1  0.10994390  0.41718489  0.61895019  1
  Na  Na55  1  0.10911824  0.41717470  0.86870036  1
  Na  Na56  1  0.11021690  0.74849042  0.11758777  1
  Na  Na57  1  0.11022321  0.74896391  0.36934915  1
  Na  Na58  1  0.10991267  0.74948265  0.61824568  1
  Na  Na59  1  0.11026207  0.74848815  0.86787399  1
  Na  Na60  1  0.60960768  0.08231062  0.11808512  1
  Na  Na61  1  0.61012787  0.08380927  0.36918663  1
  Na  Na62  1  0.60922613  0.08294765  0.61950681  1
  Na  Na63  1  0.60908260  0.08273452  0.86946030  1
  Na  Na64  1  0.60926752  0.41604547  0.11903857  1
  Na  Na65  1  0.60974712  0.41827328  0.36813990  1
  Na  Na66  1  0.60931456  0.41612803  0.61895443  1
  Na  Na67  1  0.60905872  0.41572383  0.86888904  1
  Na  Na68  1  0.61000502  0.75050224  0.11873105  1
  Na  Na69  1  0.60977902  0.75027068  0.36788860  1
  Na  Na70  1  0.60957089  0.74961516  0.61939831  1
  Na  Na71  1  0.60980064  0.75124893  0.86924360  1
  Na  Na72  1  0.38907486  0.25063744  0.13200758  1
  Na  Na73  1  0.38964704  0.25191398  0.38216775  1
  Na  Na74  1  0.38981941  0.25042352  0.63109407  1
  Na  Na75  1  0.38915737  0.24933345  0.88261604  1
  Na  Na76  1  0.38976415  0.58432574  0.13204342  1
  Na  Na77  1  0.39004535  0.58504347  0.38128913  1
  Na  Na78  1  0.39045425  0.58464476  0.63107568  1
  Na  Na79  1  0.39022546  0.58586962  0.88108892  1
  Na  Na80  1  0.38998846  0.91701626  0.13083285  1
  Na  Na81  1  0.39021243  0.91849064  0.38169447  1
  Na  Na82  1  0.39069437  0.91640361  0.63137563  1
  Na  Na83  1  0.39034630  0.91721063  0.88218274  1
  Na  Na84  1  0.88970173  0.24986371  0.13018118  1
  Na  Na85  1  0.89040042  0.24823109  0.38150623  1
  Na  Na86  1  0.89076217  0.25081878  0.63112687  1
  Na  Na87  1  0.88972616  0.25100757  0.88231049  1
  Na  Na88  1  0.89050871  0.58272213  0.13013955  1
  Na  Na89  1  0.89033343  0.58208650  0.38168947  1
  Na  Na90  1  0.89127136  0.58259874  0.63097889  1
  Na  Na91  1  0.89073414  0.58249503  0.88119718  1
  Na  Na92  1  0.89000970  0.91594672  0.13146187  1
  Na  Na93  1  0.89064405  0.91506313  0.38200340  1
  Na  Na94  1  0.89087629  0.91539869  0.62975656  1
  Na  Na95  1  0.89065497  0.91588448  0.88221334  1
  Mn  Mn96  1  0.00050953  0.83222006  0.25019101  1
  Mn  Mn97  1  0.49941711  -0.00010729  0.75026502  1
  Mn  Mn98  1  0.49931027  0.16726217  0.24991406  1
  Mn  Mn99  1  0.50041479  0.66808692  0.00083604  1
  Mn  Mn100  1  0.24918608  0.16806272  0.62524843  1
  Mn  Mn101  1  0.75039929  -0.00025515  0.87559684  1
  Mn  Mn102  1  0.24965197  0.50019140  0.12492742  1
  Mn  Mn103  1  0.00001887  0.16611928  0.24997272  1
  Mn  Mn104  1  0.24997470  0.00035438  0.62530964  1
  Mn  Mn105  1  0.00012518  -0.00013637  0.75001695  1
  Mn  Mn106  1  0.75018112  0.49960678  0.62534000  1
  Mn  Mn107  1  0.00050851  -0.00072619  0.24960965  1
  Mn  Mn108  1  0.75004836  0.66761240  0.87496792  1
  Mn  Mn109  1  0.00085068  0.16638526  0.50036795  1
  Mn  Mn110  1  0.00092080  0.83194831  -0.00013803  1
  Mn  Mn111  1  0.74983897  0.49944264  0.87546306  1
  Mn  Mn112  1  0.00038027  0.00038820  0.00008604  1
  Mn  Mn113  1  0.74972518  0.16583878  0.12505032  1
  Mn  Mn114  1  0.24960682  0.83392472  0.12516910  1
  Mn  Mn115  1  0.75017159  0.33226332  0.37498346  1
  Mn  Mn116  1  0.25054062  0.83351348  0.37433781  1
  Mn  Mn117  1  0.75034706  -0.00055080  0.62511309  1
  Mn  Mn118  1  0.00021081  0.33252225  0.24904693  1
  Mn  Mn119  1  0.50001762  0.00077774  0.50123982  1
  Mn  Mn120  1  0.75020887  0.83320856  0.62463970  1
  Mn  Mn121  1  0.49939906  0.50086759  0.75000094  1
  Mn  Mn122  1  0.50048720  0.33466027  0.25072474  1
  Mn  Mn123  1  0.49841633  0.33305576  -0.00006040  1
  Mn  Mn124  1  0.74959726  0.49891161  0.12447347  1
  Mn  Mn125  1  0.25014974  0.50015351  0.87520035  1
  Mn  Mn126  1  -0.00072007  0.16798892  0.74898004  1
  Mn  Mn127  1  0.50019418  0.33421382  0.50023048  1
  Mn  Mn128  1  0.75029970  0.66662187  0.62458202  1
  Mn  Mn129  1  0.50041229  0.83366548  0.25036320  1
  Mn  Mn130  1  0.24974044  0.00088093  0.87504855  1
  Mn  Mn131  1  0.00070741  0.83219422  0.74997780  1
  Mn  Mn132  1  0.00046860  0.49909072  0.50047099  1
  Mn  Mn133  1  -0.00000253  0.49916302  0.24965005  1
  Mn  Mn134  1  0.49899884  0.33226470  0.74900425  1
  Mn  Mn135  1  0.74994265  0.33276470  0.62498916  1
  Mn  Mn136  1  0.50031049  0.66732819  0.50013411  1
  Mn  Mn137  1  0.00044366  0.66567203  0.24967822  1
  Mn  Mn138  1  0.25058311  0.83261581  0.62384737  1
  Mn  Mn139  1  0.49998747  0.00046046  0.25006917  1
  Mn  Mn140  1  0.75040799  0.66599322  0.37431551  1
  Mn  Mn141  1  0.49977330  0.50091152  -0.00018818  1
  Mn  Mn142  1  0.25033913  0.50048765  0.62514908  1
  Mn  Mn143  1  0.75018801  0.16609493  0.62517960  1
  Fe  Fe144  1  -0.00033265  0.66546349  -0.00097923  1
  Fe  Fe145  1  0.00050075  -0.00074039  0.49979361  1
  Fe  Fe146  1  0.74947253  0.16657614  0.87581650  1
  Fe  Fe147  1  0.25054838  0.00108308  0.37419800  1
  Fe  Fe148  1  0.24957238  0.33324912  0.87579826  1
  Fe  Fe149  1  0.75033133  0.49900173  0.37423543  1
  Fe  Fe150  1  0.25003919  0.66660380  0.37475898  1
  Fe  Fe151  1  -0.00010073  0.49967065  0.75016636  1
  Fe  Fe152  1  0.75017925  0.83329708  0.12527916  1
  Fe  Fe153  1  0.75026840  0.66643179  0.12525054  1
  Fe  Fe154  1  0.25012234  0.33406386  0.62486681  1
  Fe  Fe155  1  0.49969575  0.83364688  -0.00001342  1
  Fe  Fe156  1  0.00025397  0.33333943  0.50037074  1
  Fe  Fe157  1  0.49994314  0.16725961  0.50014977  1
  Fe  Fe158  1  0.50031456  0.50123835  0.49982514  1
  Fe  Fe159  1  0.24998871  0.50047477  0.37503491  1
  Fe  Fe160  1  0.00005476  0.66584011  0.74945213  1
  Fe  Fe161  1  -0.00035736  0.33351854  -0.00060751  1
  Fe  Fe162  1  0.74890352  0.33291156  0.87542685  1
  Fe  Fe163  1  0.24930029  0.33331726  0.12588704  1
  Fe  Fe164  1  0.25013798  0.16735845  0.37456238  1
  Fe  Fe165  1  0.24965006  0.16777451  0.12566282  1
  Fe  Fe166  1  0.00068327  0.83227600  0.50038883  1
  Fe  Fe167  1  0.25016620  0.83357560  0.87494021  1
  Fe  Fe168  1  0.00004310  0.49983794  -0.00130646  1
  Fe  Fe169  1  0.75064791  0.16518616  0.37409019  1
  Fe  Fe170  1  0.25003840  0.00123905  0.12450954  1
  Fe  Fe171  1  0.75030526  -0.00117605  0.37439452  1
  Fe  Fe172  1  0.50000583  0.83343196  0.75083364  1
  Fe  Fe173  1  0.25007331  0.66714342  0.87461255  1
  Fe  Fe174  1  0.74979042  -0.00105690  0.12564262  1
  Fe  Fe175  1  0.25032104  0.66671793  0.62490638  1
  Fe  Fe176  1  0.74942646  0.33222965  0.12516013  1
  Fe  Fe177  1  -0.00009308  0.33412008  0.75083570  1
  Fe  Fe178  1  0.75041136  0.83376238  0.87584039  1
  Fe  Fe179  1  0.75019136  0.83252876  0.37424324  1
  Fe  Fe180  1  0.24996842  0.33391392  0.37496854  1
  Fe  Fe181  1  0.49930770  -0.00003163  -0.00034408  1
  Fe  Fe182  1  0.49924468  0.50121407  0.24999057  1
  Fe  Fe183  1  0.50030657  0.83357630  0.50047544  1
  Fe  Fe184  1  0.49883378  0.16610316  0.75077634  1
  Fe  Fe185  1  0.24975260  0.66714159  0.12456862  1
  Fe  Fe186  1  0.49979005  0.66744253  0.25011322  1
  Fe  Fe187  1  0.49965727  0.16652529  0.00020521  1
  Fe  Fe188  1  0.00089333  0.66583988  0.50040106  1
  Fe  Fe189  1  0.50062956  0.66743569  0.75001897  1
  Fe  Fe190  1  0.24955646  0.16769835  0.87618136  1
  Fe  Fe191  1  -0.00084846  0.16720204  -0.00088467  1
  P  P192  1  0.04096715  0.24997606  0.10072608  1
  P  P193  1  0.04307425  0.24983006  0.35339152  1
  P  P194  1  0.04269424  0.25202977  0.60292850  1
  P  P195  1  0.04122799  0.25167326  0.85324332  1
  P  P196  1  0.04185665  0.58247190  0.10047695  1
  P  P197  1  0.04291544  0.58260506  0.35350367  1
  P  P198  1  0.04272472  0.58387086  0.60315640  1
  P  P199  1  0.04113665  0.58294326  0.85175057  1
  P  P200  1  0.04347378  0.91603562  0.10282082  1
  P  P201  1  0.04302480  0.91588602  0.35402525  1
  P  P202  1  0.04215606  0.91618743  0.60139286  1
  P  P203  1  0.04328042  0.91629463  0.85307417  1
  P  P204  1  0.54159838  0.24915191  0.10237041  1
  P  P205  1  0.54264406  0.25043225  0.35377946  1
  P  P206  1  0.54213205  0.24851372  0.60285167  1
  P  P207  1  0.54084436  0.24818412  0.85297229  1
  P  P208  1  0.54243943  0.58375339  0.10423695  1
  P  P209  1  0.54143327  0.58423539  0.35170651  1
  P  P210  1  0.54273373  0.58296458  0.60264967  1
  P  P211  1  0.54250038  0.58539322  0.85249921  1
  P  P212  1  0.54099458  0.91665779  0.10138975  1
  P  P213  1  0.54294467  0.91722094  0.35385464  1
  P  P214  1  0.54231121  0.91518614  0.60337064  1
  P  P215  1  0.54156456  0.91594884  0.85350158  1
  P  P216  1  0.45712143  0.08343335  0.14588422  1
  P  P217  1  0.45759983  0.08504846  0.39803400  1
  P  P218  1  0.45709306  0.08475075  0.64764522  1
  P  P219  1  0.45797553  0.08365720  0.89851402  1
  P  P220  1  0.45706073  0.41824792  0.14807850  1
  P  P221  1  0.45833463  0.41955592  0.39719929  1
  P  P222  1  0.45675243  0.41742439  0.64628319  1
  P  P223  1  0.45630258  0.41721728  0.89674272  1
  P  P224  1  0.45759266  0.74993795  0.14764212  1
  P  P225  1  0.45801025  0.75158354  0.39760898  1
  P  P226  1  0.45866250  0.75065085  0.64856125  1
  P  P227  1  0.45804745  0.75183207  0.89713389  1
  P  P228  1  0.95733804  0.08339748  0.14606048  1
  P  P229  1  0.95848485  0.08153865  0.39768651  1
  P  P230  1  0.95737757  0.08280857  0.64617724  1
  P  P231  1  0.95737960  0.08462009  0.89733354  1
  P  P232  1  0.95750684  0.41630129  0.14528423  1
  P  P233  1  0.95776843  0.41481526  0.39770721  1
  P  P234  1  0.95876604  0.41628693  0.64851256  1
  P  P235  1  0.95820648  0.41667791  0.89749355  1
  P  P236  1  0.95762336  0.74867435  0.14614715  1
  P  P237  1  0.95932073  0.74873691  0.39876260  1
  P  P238  1  0.95844530  0.74815124  0.64670807  1
  P  P239  1  0.95808012  0.74764012  0.89691719  1
  P  P240  1  0.20884662  0.08371475  0.22711178  1
  P  P241  1  0.20892250  0.08413067  0.47621758  1
  P  P242  1  0.20686645  0.08416612  0.72867680  1
  P  P243  1  0.20792565  0.08534004  0.97853636  1
  P  P244  1  0.20757281  0.41553283  0.22818392  1
  P  P245  1  0.20898383  0.41714427  0.47677384  1
  P  P246  1  0.20811214  0.41548822  0.72788621  1
  P  P247  1  0.20756619  0.41574401  0.97789341  1
  P  P248  1  0.20789231  0.74861082  0.22757231  1
  P  P249  1  0.20862887  0.74882532  0.47727145  1
  P  P250  1  0.20825846  0.74867604  0.72765133  1
  P  P251  1  0.20870766  0.75037232  0.97650146  1
  P  P252  1  0.70778080  0.08093191  0.22805145  1
  P  P253  1  0.70897250  0.08258533  0.47603738  1
  P  P254  1  0.70736131  0.08303823  0.72899624  1
  P  P255  1  0.70756759  0.08402506  0.97808701  1
  P  P256  1  0.70758137  0.41458880  0.22762577  1
  P  P257  1  0.70769801  0.41742084  0.47706930  1
  P  P258  1  0.70693122  0.41569812  0.72885494  1
  P  P259  1  0.70716749  0.41504791  0.97806740  1
  P  P260  1  0.70883330  0.74982137  0.22676541  1
  P  P261  1  0.70777341  0.75075694  0.47663331  1
  P  P262  1  0.70748144  0.75031659  0.72854862  1
  P  P263  1  0.70805602  0.75204656  0.97868650  1
  P  P264  1  0.29056985  0.25107239  0.02351965  1
  P  P265  1  0.29131021  0.25080847  0.27305603  1
  P  P266  1  0.29186339  0.25230961  0.52193930  1
  P  P267  1  0.29107212  0.25062832  0.77383232  1
  P  P268  1  0.29191886  0.58525189  0.02223399  1
  P  P269  1  0.29102440  0.58346691  0.27295702  1
  P  P270  1  0.29242463  0.58495723  0.52181047  1
  P  P271  1  0.29200252  0.58464266  0.77235566  1
  P  P272  1  0.29178851  0.91833384  0.02225935  1
  P  P273  1  0.29234160  0.91876577  0.27181195  1
  P  P274  1  0.29274894  0.91772278  0.52098323  1
  P  P275  1  0.29235347  0.91567195  0.77276031  1
  P  P276  1  0.79119796  0.25082229  0.02184767  1
  P  P277  1  0.79254666  0.24779389  0.27200495  1
  P  P278  1  0.79294367  0.24894075  0.52132933  1
  P  P279  1  0.79115643  0.24952556  0.77412626  1
  P  P280  1  0.79192692  0.58443027  0.02267133  1
  P  P281  1  0.79246541  0.58120995  0.27178853  1
  P  P282  1  0.79306632  0.58269822  0.52119215  1
  P  P283  1  0.79300971  0.58299728  0.77218227  1
  P  P284  1  0.79151164  0.91654853  0.02352188  1
  P  P285  1  0.79204252  0.91548537  0.27261996  1
  P  P286  1  0.79267748  0.91635823  0.52049440  1
  P  P287  1  0.79304911  0.91527365  0.77307486  1
  O  O288  1  0.03646765  0.24954207  0.18076573  1
  O  O289  1  0.03823402  0.25025682  0.43336522  1
  O  O290  1  0.03711537  0.25228007  0.68287636  1
  O  O291  1  0.03553786  0.25113944  0.93311590  1
  O  O292  1  0.03709511  0.58244225  0.18050693  1
  O  O293  1  0.03794531  0.58296507  0.43346172  1
  O  O294  1  0.03725443  0.58378018  0.68300641  1
  O  O295  1  0.03589740  0.58278777  0.93166069  1
  O  O296  1  0.03840851  0.91590025  0.18283452  1
  O  O297  1  0.03770515  0.91611667  0.43396883  1
  O  O298  1  0.03749302  0.91587946  0.68143406  1
  O  O299  1  0.03832283  0.91628304  0.93302888  1
  O  O300  1  0.53688078  0.24985534  0.18236684  1
  O  O301  1  0.53751857  0.25009290  0.43374773  1
  O  O302  1  0.53647123  0.24810505  0.68279334  1
  O  O303  1  0.53533685  0.24832264  0.93291121  1
  O  O304  1  0.53693852  0.58372084  0.18414286  1
  O  O305  1  0.53672466  0.58389739  0.43174410  1
  O  O306  1  0.53751503  0.58378432  0.68256278  1
  O  O307  1  0.53738222  0.58532761  0.93248654  1
  O  O308  1  0.53645977  0.91702395  0.18139771  1
  O  O309  1  0.53794615  0.91688252  0.43380933  1
  O  O310  1  0.53662597  0.91510964  0.68329632  1
  O  O311  1  0.53614170  0.91634899  0.93335312  1
  O  O312  1  0.46228317  0.08355604  0.06595376  1
  O  O313  1  0.46263793  0.08446501  0.31805224  1
  O  O314  1  0.46270454  0.08500583  0.56773523  1
  O  O315  1  0.46255904  0.08362023  0.81847839  1
  O  O316  1  0.46160360  0.41781734  0.06803792  1
  O  O317  1  0.46383337  0.41976971  0.31725138  1
  O  O318  1  0.46230827  0.41798367  0.56635203  1
  O  O319  1  0.46143786  0.41689987  0.81678037  1
  O  O320  1  0.46285220  0.75069288  0.06771930  1
  O  O321  1  0.46313209  0.75060967  0.31768475  1
  O  O322  1  0.46382421  0.75100176  0.56856762  1
  O  O323  1  0.46358166  0.75142448  0.81728757  1
  O  O324  1  0.96235596  0.08422135  0.06607327  1
  O  O325  1  0.96338199  0.08176415  0.31766158  1
  O  O326  1  0.96310686  0.08217769  0.56627245  1
  O  O327  1  0.96224198  0.08456695  0.81733864  1
  O  O328  1  0.96280124  0.41654577  0.06538085  1
  O  O329  1  0.96264105  0.41512195  0.31771683  1
  O  O330  1  0.96369900  0.41591473  0.56854011  1
  O  O331  1  0.96335122  0.41655389  0.81759037  1
  O  O332  1  0.96257262  0.74823191  0.06617709  1
  O  O333  1  0.96399351  0.74903527  0.31873442  1
  O  O334  1  0.96410797  0.74843850  0.56684839  1
  O  O335  1  0.96339887  0.74760427  0.81696743  1
  O  O336  1  0.21318818  0.08500435  0.05840557  1
  O  O337  1  0.21411032  0.08357833  0.30701148  1
  O  O338  1  0.21336881  0.08435955  0.55625763  1
  O  O339  1  0.21192277  0.08449309  0.80863047  1
  O  O340  1  0.21265259  0.41596698  0.05783043  1
  O  O341  1  0.21322154  0.41593772  0.30801534  1
  O  O342  1  0.21400611  0.41735482  0.55671021  1
  O  O343  1  0.21331935  0.41545025  0.80781213  1
  O  O344  1  0.21352121  0.75008428  0.05649368  1
  O  O345  1  0.21348261  0.74850080  0.30746296  1
  O  O346  1  0.21388301  0.74868901  0.55720404  1
  O  O347  1  0.21360977  0.74931985  0.80754708  1
  O  O348  1  0.71253434  0.08355805  0.05797506  1
  O  O349  1  0.71345785  0.08108769  0.30788755  1
  O  O350  1  0.71392551  0.08272903  0.55604677  1
  O  O351  1  0.71260756  0.08352328  0.80894132  1
  O  O352  1  0.71234275  0.41471608  0.05801397  1
  O  O353  1  0.71322508  0.41542490  0.30750939  1
  O  O354  1  0.71272159  0.41727984  0.55706844  1
  O  O355  1  0.71176111  0.41527475  0.80886993  1
  O  O356  1  0.71356108  0.75181923  0.05855790  1
  O  O357  1  0.71398459  0.74997963  0.30671193  1
  O  O358  1  0.71271123  0.75029450  0.55660045  1
  O  O359  1  0.71249444  0.75091026  0.80851626  1
  O  O360  1  0.28619315  0.25058426  0.19317547  1
  O  O361  1  0.28667606  0.25204952  0.44209741  1
  O  O362  1  0.28630411  0.25069163  0.69386772  1
  O  O363  1  0.28556068  0.25079713  0.94362531  1
  O  O364  1  0.28615027  0.58323782  0.19301381  1
  O  O365  1  0.28684583  0.58472725  0.44195003  1
  O  O366  1  0.28689631  0.58453443  0.69241481  1
  O  O367  1  0.28671693  0.58522470  0.94229243  1
  O  O368  1  0.28676218  0.91892849  0.19190205  1
  O  O369  1  0.28762644  0.91833836  0.44101443  1
  O  O370  1  0.28735764  0.91575000  0.69276500  1
  O  O371  1  0.28638465  0.91737157  0.94236284  1
  O  O372  1  0.78697580  0.24840253  0.19210868  1
  O  O373  1  0.78796399  0.24847800  0.44136977  1
  O  O374  1  0.78657241  0.24952409  0.69406587  1
  O  O375  1  0.78559663  0.25075855  0.94199439  1
  O  O376  1  0.78702704  0.58177885  0.19190658  1
  O  O377  1  0.78800261  0.58208708  0.44118993  1
  O  O378  1  0.78812512  0.58290842  0.69218192  1
  O  O379  1  0.78667361  0.58436249  0.94277012  1
  O  O380  1  0.78654457  0.91559916  0.19271673  1
  O  O381  1  0.78745538  0.91628535  0.44058350  1
  O  O382  1  0.78804592  0.91564338  0.69308771  1
  O  O383  1  0.78670297  0.91635065  0.94355059  1
  O  O384  1  0.22649711  0.25156651  0.05978313  1
  O  O385  1  0.22731572  0.25104111  0.30945573  1
  O  O386  1  0.22766210  0.25265512  0.55805739  1
  O  O387  1  0.22685521  0.25069240  0.80981670  1
  O  O388  1  0.22763225  0.58508560  0.05800643  1
  O  O389  1  0.22693079  0.58380605  0.30897801  1
  O  O390  1  0.22835468  0.58523708  0.55825517  1
  O  O391  1  0.22777887  0.58439093  0.80817028  1
  O  O392  1  0.22768543  0.91868970  0.05841966  1
  O  O393  1  0.22823678  0.91848761  0.30793326  1
  O  O394  1  0.22842012  0.91701226  0.55640892  1
  O  O395  1  0.22801702  0.91588076  0.80821445  1
  O  O396  1  0.72716276  0.25068849  0.05829958  1
  O  O397  1  0.72838634  0.24748869  0.30803219  1
  O  O398  1  0.72849654  0.24931185  0.55649680  1
  O  O399  1  0.72680810  0.24940492  0.80962210  1
  O  O400  1  0.72773998  0.58450481  0.05849619  1
  O  O401  1  0.72823272  0.58120038  0.30773225  1
  O  O402  1  0.72862184  0.58289619  0.55634154  1
  O  O403  1  0.72851146  0.58323455  0.80704356  1
  O  O404  1  0.72732388  0.91633379  0.05954230  1
  O  O405  1  0.72798904  0.91542706  0.30910485  1
  O  O406  1  0.72839475  0.91655558  0.55619699  1
  O  O407  1  0.72862389  0.91513628  0.80847542  1
  O  O408  1  0.27275379  0.08363308  0.19048208  1
  O  O409  1  0.27314751  0.08410791  0.44059138  1
  O  O410  1  0.27125638  0.08441344  0.69341333  1
  O  O411  1  0.27202709  0.08537979  0.94232725  1
  O  O412  1  0.27164923  0.41540446  0.19180316  1
  O  O413  1  0.27298819  0.41677124  0.44046441  1
  O  O414  1  0.27230504  0.41566163  0.69192047  1
  O  O415  1  0.27183411  0.41557516  0.94217993  1
  O  O416  1  0.27204038  0.74878448  0.19149637  1
  O  O417  1  0.27280077  0.74886058  0.44136349  1
  O  O418  1  0.27246311  0.74829380  0.69149378  1
  O  O419  1  0.27285943  0.75063013  0.94051289  1
  O  O420  1  0.77185446  0.08087321  0.19172087  1
  O  O421  1  0.77312290  0.08224652  0.44003645  1
  O  O422  1  0.77176289  0.08280542  0.69367843  1
  O  O423  1  0.77187008  0.08444492  0.94245232  1
  O  O424  1  0.77171607  0.41421738  0.19150679  1
  O  O425  1  0.77208953  0.41732370  0.44166437  1
  O  O426  1  0.77147093  0.41590948  0.69389879  1
  O  O427  1  0.77147315  0.41489016  0.94242307  1
  O  O428  1  0.77292926  0.74995943  0.19064946  1
  O  O429  1  0.77218010  0.75079124  0.44125073  1
  O  O430  1  0.77190931  0.74995725  0.69335167  1
  O  O431  1  0.77218751  0.75204785  0.94234349  1
  O  O432  1  0.02181168  0.08314675  0.18107180  1
  O  O433  1  0.02282323  0.08161502  0.43307602  1
  O  O434  1  0.02161420  0.08358269  0.68175985  1
  O  O435  1  0.02179393  0.08481789  0.93247562  1
  O  O436  1  0.02180480  0.41616351  0.18089289  1
  O  O437  1  0.02221841  0.41464637  0.43296271  1
  O  O438  1  0.02292656  0.41601264  0.68438553  1
  O  O439  1  0.02224523  0.41681364  0.93385133  1
  O  O440  1  0.02210282  0.74891922  0.18111528  1
  O  O441  1  0.02351830  0.74842464  0.43440899  1
  O  O442  1  0.02254264  0.74777795  0.68297686  1
  O  O443  1  0.02240118  0.74731571  0.93249549  1
  O  O444  1  0.52141948  0.08369936  0.18143382  1
  O  O445  1  0.52192308  0.08519189  0.43355262  1
  O  O446  1  0.52124950  0.08464892  0.68364737  1
  O  O447  1  0.52218048  0.08389591  0.93417790  1
  O  O448  1  0.52158208  0.41863125  0.18293612  1
  O  O449  1  0.52242987  0.41910667  0.43330951  1
  O  O450  1  0.52096854  0.41686692  0.68185893  1
  O  O451  1  0.52071125  0.41664752  0.93181883  1
  O  O452  1  0.52191043  0.74893628  0.18325750  1
  O  O453  1  0.52228802  0.75203703  0.43332603  1
  O  O454  1  0.52277918  0.75032310  0.68465427  1
  O  O455  1  0.52218555  0.75235387  0.93331188  1
  O  O456  1  0.47709979  0.24859352  0.06734544  1
  O  O457  1  0.47824963  0.25108682  0.31861808  1
  O  O458  1  0.47794451  0.24901742  0.56690738  1
  O  O459  1  0.47663912  0.24815722  0.81702166  1
  O  O460  1  0.47820115  0.58414137  0.06855652  1
  O  O461  1  0.47715856  0.58499748  0.31596674  1
  O  O462  1  0.47843038  0.58272333  0.56694855  1
  O  O463  1  0.47816395  0.58601297  0.81701979  1
  O  O464  1  0.47677990  0.91615152  0.06576857  1
  O  O465  1  0.47853082  0.91706372  0.31873246  1
  O  O466  1  0.47817813  0.91549176  0.56724193  1
  O  O467  1  0.47750020  0.91574085  0.81724359  1
  O  O468  1  0.97668497  0.25042456  0.06531569  1
  O  O469  1  0.97860417  0.24957651  0.31839338  1
  O  O470  1  0.97848477  0.25143484  0.56705864  1
  O  O471  1  0.97718568  0.25207251  0.81689066  1
  O  O472  1  0.97753480  0.58229925  0.06490377  1
  O  O473  1  0.97849553  0.58253289  0.31834681  1
  O  O474  1  0.97863276  0.58388563  0.56695480  1
  O  O475  1  0.97722130  0.58315475  0.81525820  1
  O  O476  1  0.97900065  0.91596577  0.06797599  1
  O  O477  1  0.97876011  0.91581050  0.31834259  1
  O  O478  1  0.97795083  0.91647042  0.56580238  1
  O  O479  1  0.97879642  0.91592774  0.81822401  1
  O  O480  1  0.07198380  0.31364573  0.07297500  1
  O  O481  1  0.07409899  0.31298564  0.32448679  1
  O  O482  1  0.07329234  0.31541522  0.57403838  1
  O  O483  1  0.07239726  0.31513181  0.82508105  1
  O  O484  1  0.07239067  0.64631431  0.07234248  1
  O  O485  1  0.07413271  0.64575336  0.32483747  1
  O  O486  1  0.07368801  0.64712830  0.57423132  1
  O  O487  1  0.07250635  0.64624469  0.82347241  1
  O  O488  1  0.07436553  0.97963301  0.07487865  1
  O  O489  1  0.07421761  0.97914565  0.32530781  1
  O  O490  1  0.07324996  0.97976298  0.57346583  1
  O  O491  1  0.07396771  0.97999675  0.82503125  1
  O  O492  1  0.57223905  0.31285206  0.07410834  1
  O  O493  1  0.57388747  0.31395697  0.32590504  1
  O  O494  1  0.57340666  0.31229540  0.57558674  1
  O  O495  1  0.57183812  0.31190904  0.82514348  1
  O  O496  1  0.57390204  0.64702505  0.07597934  1
  O  O497  1  0.57245896  0.64790345  0.32370489  1
  O  O498  1  0.57389841  0.64635689  0.57427552  1
  O  O499  1  0.57357422  0.64871850  0.82410944  1
  O  O500  1  0.57113874  0.98056254  0.07274874  1
  O  O501  1  0.57357802  0.98091720  0.32559051  1
  O  O502  1  0.57347354  0.97909603  0.57617956  1
  O  O503  1  0.57268207  0.97953379  0.82530750  1
  O  O504  1  0.42631076  0.01989803  0.17442030  1
  O  O505  1  0.42660179  0.02154514  0.42615719  1
  O  O506  1  0.42618903  0.02081283  0.67515934  1
  O  O507  1  0.42782337  0.01952500  0.92680024  1
  O  O508  1  0.42635708  0.35455384  0.17628914  1
  O  O509  1  0.42699316  0.35587579  0.42450879  1
  O  O510  1  0.42554728  0.35374570  0.67387925  1
  O  O511  1  0.42487231  0.35404426  0.92506237  1
  O  O512  1  0.42650913  0.68654633  0.17596187  1
  O  O513  1  0.42704030  0.68812748  0.42607875  1
  O  O514  1  0.42804593  0.68666963  0.67641558  1
  O  O515  1  0.42705031  0.68827709  0.92536895  1
  O  O516  1  0.92653468  0.01960229  0.17388182  1
  O  O517  1  0.92784008  0.01792244  0.42596238  1
  O  O518  1  0.92639012  0.01951472  0.67483662  1
  O  O519  1  0.92649788  0.02088358  0.92512495  1
  O  O520  1  0.92628944  0.35295374  0.17368325  1
  O  O521  1  0.92708281  0.35131810  0.42623230  1
  O  O522  1  0.92719710  0.35326384  0.67710711  1
  O  O523  1  0.92732665  0.35315732  0.92606012  1
  O  O524  1  0.92658936  0.68541074  0.17484905  1
  O  O525  1  0.92815371  0.68520517  0.42657653  1
  O  O526  1  0.92721525  0.68490753  0.67526137  1
  O  O527  1  0.92685613  0.68451409  0.92563619  1
  O  O528  1  0.17755306  0.02040695  0.19860056  1
  O  O529  1  0.17814824  0.02043717  0.44806437  1
  O  O530  1  0.17628754  0.02029102  0.70052054  1
  O  O531  1  0.17653467  0.02198410  0.95031238  1
  O  O532  1  0.17656270  0.35207072  0.19970316  1
  O  O533  1  0.17750515  0.35390620  0.44870455  1
  O  O534  1  0.17736356  0.35220330  0.69888709  1
  O  O535  1  0.17651453  0.35252484  0.94926343  1
  O  O536  1  0.17694290  0.68533475  0.19873688  1
  O  O537  1  0.17749768  0.68561033  0.44866525  1
  O  O538  1  0.17726147  0.68522568  0.69921683  1
  O  O539  1  0.17790659  0.68675673  0.94800813  1
  O  O540  1  0.67687721  0.01749466  0.19926554  1
  O  O541  1  0.67785442  0.01901131  0.44812412  1
  O  O542  1  0.67648126  0.01930377  0.70101379  1
  O  O543  1  0.67660268  0.02042605  0.95002394  1
  O  O544  1  0.67680315  0.35076548  0.19978881  1
  O  O545  1  0.67656335  0.35372313  0.44955690  1
  O  O546  1  0.67595802  0.35239276  0.70003785  1
  O  O547  1  0.67599107  0.35198280  0.94908458  1
  O  O548  1  0.67846320  0.68570076  0.19877201  1
  O  O549  1  0.67674443  0.68715304  0.44859660  1
  O  O550  1  0.67660936  0.68664850  0.70038439  1
  O  O551  1  0.67671950  0.68849845  0.95077249  1
  O  O552  1  0.32202712  0.31434329  0.05191120  1
  O  O553  1  0.32261736  0.31419988  0.30132394  1
  O  O554  1  0.32283388  0.31566510  0.55078941  1
  O  O555  1  0.32224340  0.31400731  0.80219118  1
  O  O556  1  0.32270928  0.64865842  0.05097506  1
  O  O557  1  0.32243891  0.64683106  0.30098450  1
  O  O558  1  0.32363559  0.64819582  0.55047617  1
  O  O559  1  0.32276642  0.64809457  0.80101112  1
  O  O560  1  0.32249430  0.98216004  0.05006732  1
  O  O561  1  0.32333171  0.98203724  0.30058792  1
  O  O562  1  0.32366423  0.98096195  0.54995023  1
  O  O563  1  0.32359369  0.97929131  0.80042759  1
  O  O564  1  0.82201454  0.31425041  0.05069083  1
  O  O565  1  0.82391399  0.31116704  0.29999925  1
  O  O566  1  0.82379822  0.31263230  0.54953366  1
  O  O567  1  0.82170333  0.31337261  0.80225525  1
  O  O568  1  0.82269596  0.64792763  0.05117073  1
  O  O569  1  0.82389770  0.64461691  0.29975099  1
  O  O570  1  0.82381793  0.64655814  0.54904194  1
  O  O571  1  0.82415277  0.64636257  0.80031197  1
  O  O572  1  0.82180085  0.98065473  0.05161544  1
  O  O573  1  0.82298803  0.97908661  0.30094969  1
  O  O574  1  0.82387659  0.97959159  0.54925636  1
  O  O575  1  0.82401818  0.97890700  0.80108841  1
  O  O576  1  0.42570681  0.14669258  0.17445152  1
  O  O577  1  0.42691827  0.14883032  0.42601331  1
  O  O578  1  0.42585773  0.14786890  0.67646254  1
  O  O579  1  0.42666510  0.14691919  0.92699917  1
  O  O580  1  0.42627225  0.48181733  0.17657290  1
  O  O581  1  0.42761712  0.48307539  0.42579622  1
  O  O582  1  0.42554083  0.48065470  0.67488767  1
  O  O583  1  0.42581195  0.48114872  0.92462969  1
  O  O584  1  0.42678522  0.81360401  0.17586106  1
  O  O585  1  0.42721156  0.81524700  0.42581112  1
  O  O586  1  0.42759687  0.81408511  0.67701340  1
  O  O587  1  0.42687135  0.81511595  0.92591591  1
  O  O588  1  0.92610611  0.14651564  0.17495307  1
  O  O589  1  0.92739734  0.14519486  0.42544184  1
  O  O590  1  0.92598058  0.14648901  0.67368593  1
  O  O591  1  0.92665289  0.14821004  0.92585766  1
  O  O592  1  0.92648660  0.47971213  0.17405796  1
  O  O593  1  0.92690438  0.47847077  0.42586914  1
  O  O594  1  0.92860168  0.48052077  0.67665853  1
  O  O595  1  0.92719173  0.48034103  0.92569544  1
  O  O596  1  0.92671138  0.81226046  0.17449335  1
  O  O597  1  0.92902124  0.81273490  0.42720396  1
  O  O598  1  0.92741026  0.81188648  0.67482859  1
  O  O599  1  0.92736793  0.81159078  0.92475981  1
  O  O600  1  0.07136352  0.18613690  0.07219282  1
  O  O601  1  0.07394597  0.18613027  0.32518316  1
  O  O602  1  0.07409153  0.18829191  0.57553600  1
  O  O603  1  0.07237506  0.18819224  0.82486895  1
  O  O604  1  0.07277839  0.51889873  0.07219832  1
  O  O605  1  0.07362620  0.51888337  0.32518786  1
  O  O606  1  0.07394055  0.52016630  0.57526035  1
  O  O607  1  0.07178930  0.51902253  0.82337352  1
  O  O608  1  0.07463825  0.85260630  0.07465865  1
  O  O609  1  0.07420734  0.85236961  0.32577991  1
  O  O610  1  0.07252305  0.85218072  0.57305314  1
  O  O611  1  0.07444145  0.85286479  0.82486008  1
  O  O612  1  0.57255022  0.18559149  0.07418713  1
  O  O613  1  0.57352546  0.18704858  0.32507876  1
  O  O614  1  0.57298760  0.18515731  0.57397696  1
  O  O615  1  0.57187041  0.18475307  0.82462438  1
  O  O616  1  0.57345642  0.52030812  0.07559054  1
  O  O617  1  0.57185677  0.52049072  0.32306410  1
  O  O618  1  0.57340724  0.51928105  0.57426570  1
  O  O619  1  0.57311014  0.52136359  0.82491749  1
  O  O620  1  0.57216361  0.85301913  0.07369424  1
  O  O621  1  0.57428283  0.85409137  0.32504736  1
  O  O622  1  0.57316868  0.85188461  0.57451687  1
  O  O623  1  0.57268203  0.85262253  0.82486433  1
  O  O624  1  0.32098864  0.18724379  0.05225552  1
  O  O625  1  0.32191665  0.18699076  0.30161039  1
  O  O626  1  0.32273488  0.18866445  0.55029069  1
  O  O627  1  0.32139143  0.18669367  0.80240559  1
  O  O628  1  0.32295338  0.52150305  0.04999834  1
  O  O629  1  0.32123897  0.51946687  0.30152942  1
  O  O630  1  0.32337586  0.52127172  0.54990269  1
  O  O631  1  0.32320923  0.52101904  0.80013272  1
  O  O632  1  0.32300846  0.85497145  0.05059075  1
  O  O633  1  0.32348075  0.85485971  0.29906412  1
  O  O634  1  0.32399984  0.85406804  0.54858045  1
  O  O635  1  0.32283600  0.85204469  0.80128304  1
  O  O636  1  0.82263461  0.18731957  0.04961135  1
  O  O637  1  0.82324136  0.18398633  0.30001298  1
  O  O638  1  0.82404359  0.18572974  0.54999037  1
  O  O639  1  0.82200848  0.18587195  0.80229582  1
  O  O640  1  0.82295532  0.52058770  0.04990182  1
  O  O641  1  0.82297850  0.51741966  0.30006739  1
  O  O642  1  0.82440000  0.51962853  0.54995229  1
  O  O643  1  0.82375231  0.51939471  0.80045311  1
  O  O644  1  0.82289805  0.85332064  0.05184360  1
  O  O645  1  0.82302355  0.85181530  0.30080761  1
  O  O646  1  0.82373437  0.85288400  0.54891942  1
  O  O647  1  0.82373101  0.85174373  0.80152451  1
  O  O648  1  0.17815210  0.14766899  0.19895176  1
  O  O649  1  0.17841131  0.14797530  0.44785804  1
  O  O650  1  0.17537439  0.14720440  0.70011015  1
  O  O651  1  0.17715524  0.14891808  0.94992163  1
  O  O652  1  0.17631857  0.47897004  0.19988232  1
  O  O653  1  0.17869499  0.48122339  0.44845157  1
  O  O654  1  0.17712014  0.47930126  0.70024183  1
  O  O655  1  0.17685601  0.47959372  0.94986653  1
  O  O656  1  0.17683276  0.81246432  0.20011074  1
  O  O657  1  0.17769600  0.81268136  0.44968707  1
  O  O658  1  0.17721251  0.81221538  0.69920632  1
  O  O659  1  0.17793418  0.81421961  0.94856874  1
  O  O660  1  0.67641837  0.14443591  0.20015440  1
  O  O661  1  0.67843434  0.14648800  0.44796346  1
  O  O662  1  0.67615117  0.14619186  0.70032167  1
  O  O663  1  0.67678585  0.14756700  0.94958168  1
  O  O664  1  0.67625944  0.47792906  0.19945228  1
  O  O665  1  0.67718089  0.48097040  0.44832729  1
  O  O666  1  0.67595706  0.47931316  0.70084493  1
  O  O667  1  0.67643475  0.47915963  0.95075154  1
  O  O668  1  0.67741144  0.81312236  0.19867162  1
  O  O669  1  0.67708228  0.81429574  0.44829111  1
  O  O670  1  0.67634404  0.81351381  0.69990462  1
  O  O671  1  0.67744295  0.81558203  0.94987027  1
