# generated using pymatgen
data_Na2MnFe(PO4)2
_symmetry_space_group_name_H-M   'P 1'
_cell_length_a   22.34625691
_cell_length_b   20.09681405
_cell_length_c   19.44733031
_cell_angle_alpha   90.04290677
_cell_angle_beta   89.99833455
_cell_angle_gamma   90.01094880
_symmetry_Int_Tables_number   1
_chemical_formula_structural   Na2MnFe(PO4)2
_chemical_formula_sum   'Na96 Mn48 Fe48 P96 O384'
_cell_volume   8733.57114306
_cell_formula_units_Z   48
loop_
 _symmetry_equiv_pos_site_id
 _symmetry_equiv_pos_as_xyz
  1  'x, y, z'
loop_
 _atom_site_type_symbol
 _atom_site_label
 _atom_site_symmetry_multiplicity
 _atom_site_fract_x
 _atom_site_fract_y
 _atom_site_fract_z
 _atom_site_occupancy
  Na  Na0  1  0.14056094  0.24914457  0.24384028  1
  Na  Na1  1  0.14071740  0.25035413  0.49345415  1
  Na  Na2  1  0.14095962  0.24858201  0.74352021  1
  Na  Na3  1  0.14052515  0.24845945  0.99387448  1
  Na  Na4  1  0.14054407  0.58314872  0.24540115  1
  Na  Na5  1  0.14107290  0.58279608  0.49302083  1
  Na  Na6  1  0.14053090  0.58252810  0.74277276  1
  Na  Na7  1  0.14036103  0.58359981  0.99419101  1
  Na  Na8  1  0.14035347  0.91603604  0.24313659  1
  Na  Na9  1  0.14055807  0.91570550  0.49432738  1
  Na  Na10  1  0.14011759  0.91690596  0.74392404  1
  Na  Na11  1  0.13951658  0.91686733  0.99353046  1
  Na  Na12  1  0.64065176  0.25196397  0.24429708  1
  Na  Na13  1  0.64040124  0.25064671  0.49289063  1
  Na  Na14  1  0.64043893  0.25016608  0.74404149  1
  Na  Na15  1  0.63997195  0.24986686  0.99285020  1
  Na  Na16  1  0.64047566  0.58462100  0.24342343  1
  Na  Na17  1  0.64120309  0.58349380  0.49357557  1
  Na  Na18  1  0.63992576  0.58326955  0.74326725  1
  Na  Na19  1  0.63961140  0.58404308  0.99353709  1
  Na  Na20  1  0.63912454  0.91719524  0.24414485  1
  Na  Na21  1  0.64011434  0.91538528  0.49229667  1
  Na  Na22  1  0.64033045  0.91573767  0.74472749  1
  Na  Na23  1  0.64008914  0.91735272  0.99355016  1
  Na  Na24  1  0.36003244  0.08255240  0.00718768  1
  Na  Na25  1  0.35948465  0.08300861  0.25616442  1
  Na  Na26  1  0.35930568  0.08284137  0.50615865  1
  Na  Na27  1  0.35999193  0.08280409  0.75576319  1
  Na  Na28  1  0.36014945  0.41684419  0.00764351  1
  Na  Na29  1  0.35985542  0.41746674  0.25684427  1
  Na  Na30  1  0.36028726  0.41648796  0.50590461  1
  Na  Na31  1  0.36026501  0.41648577  0.75620845  1
  Na  Na32  1  0.35950042  0.75039460  0.00679558  1
  Na  Na33  1  0.35897131  0.75057108  0.25739732  1
  Na  Na34  1  0.35985086  0.75108527  0.50534518  1
  Na  Na35  1  0.35972821  0.75083239  0.75587193  1
  Na  Na36  1  0.85977642  0.08187040  0.00566015  1
  Na  Na37  1  0.85928413  0.08376667  0.25656235  1
  Na  Na38  1  0.85933003  0.08269519  0.50556770  1
  Na  Na39  1  0.85959613  0.08202464  0.75776162  1
  Na  Na40  1  0.86000385  0.41617630  0.00564847  1
  Na  Na41  1  0.85896573  0.41803811  0.25692728  1
  Na  Na42  1  0.86021271  0.41754027  0.50658645  1
  Na  Na43  1  0.86025045  0.41668855  0.75555963  1
  Na  Na44  1  0.85972544  0.75058244  0.00626683  1
  Na  Na45  1  0.85873160  0.75110136  0.25665838  1
  Na  Na46  1  0.85918352  0.74944845  0.50558949  1
  Na  Na47  1  0.85947406  0.75004181  0.75658724  1
  Na  Na48  1  0.10972753  0.08329294  0.11821796  1
  Na  Na49  1  0.10973417  0.08176363  0.36801694  1
  Na  Na50  1  0.10958724  0.08291898  0.61961140  1
  Na  Na51  1  0.10968618  0.08091426  0.86868219  1
  Na  Na52  1  0.10943970  0.41618199  0.11996957  1
  Na  Na53  1  0.11024471  0.41537522  0.36914913  1
  Na  Na54  1  0.11023982  0.41638943  0.61771095  1
  Na  Na55  1  0.10978118  0.41467510  0.86861148  1
  Na  Na56  1  0.10937828  0.75075358  0.11925908  1
  Na  Na57  1  0.11017043  0.74977430  0.36830867  1
  Na  Na58  1  0.10958466  0.75021058  0.61862808  1
  Na  Na59  1  0.10923636  0.75019628  0.86850410  1
  Na  Na60  1  0.60900880  0.08382067  0.11815718  1
  Na  Na61  1  0.60909551  0.08300259  0.36868388  1
  Na  Na62  1  0.60972471  0.08332997  0.61878457  1
  Na  Na63  1  0.61014480  0.08367272  0.86912470  1
  Na  Na64  1  0.60935047  0.41841093  0.11824342  1
  Na  Na65  1  0.61041067  0.41696801  0.36821625  1
  Na  Na66  1  0.61002859  0.41701063  0.61799688  1
  Na  Na67  1  0.60925912  0.41785152  0.86925493  1
  Na  Na68  1  0.60910096  0.75155028  0.11884786  1
  Na  Na69  1  0.60986022  0.75101604  0.36728439  1
  Na  Na70  1  0.60995952  0.74907287  0.61860238  1
  Na  Na71  1  0.60955998  0.74919449  0.86909374  1
  Na  Na72  1  0.39075492  0.25000136  0.13131766  1
  Na  Na73  1  0.39062719  0.25044090  0.38160087  1
  Na  Na74  1  0.39074488  0.25119366  0.63042492  1
  Na  Na75  1  0.39118982  0.24998897  0.88256474  1
  Na  Na76  1  0.38996888  0.58490623  0.13177800  1
  Na  Na77  1  0.39037102  0.58341908  0.38149797  1
  Na  Na78  1  0.39077161  0.58327529  0.63078425  1
  Na  Na79  1  0.39098289  0.58287563  0.88123290  1
  Na  Na80  1  0.39015147  0.91806703  0.13182364  1
  Na  Na81  1  0.38940899  0.91770119  0.38171376  1
  Na  Na82  1  0.38985180  0.91567298  0.63106810  1
  Na  Na83  1  0.39021480  0.91721902  0.88162700  1
  Na  Na84  1  0.89010320  0.25039576  0.13021141  1
  Na  Na85  1  0.89057137  0.25033336  0.38138075  1
  Na  Na86  1  0.89085350  0.25034891  0.63117611  1
  Na  Na87  1  0.89069675  0.24788228  0.88091611  1
  Na  Na88  1  0.89025892  0.58365107  0.13193275  1
  Na  Na89  1  0.88967303  0.58245150  0.38273367  1
  Na  Na90  1  0.89021746  0.58324490  0.63120287  1
  Na  Na91  1  0.89101000  0.58247482  0.88036288  1
  Na  Na92  1  0.88971947  0.91709918  0.13075276  1
  Na  Na93  1  0.88953619  0.91613257  0.38086794  1
  Na  Na94  1  0.89016783  0.91717176  0.63200461  1
  Na  Na95  1  0.88995070  0.91580577  0.88168366  1
  Mn  Mn96  1  0.24975827  0.16621514  0.37534972  1
  Mn  Mn97  1  0.74971529  0.66737973  0.12515082  1
  Mn  Mn98  1  0.50040336  0.83215719  0.75100275  1
  Mn  Mn99  1  0.50068297  0.66731567  0.49958910  1
  Mn  Mn100  1  0.24959346  0.50076703  0.12639944  1
  Mn  Mn101  1  0.50068472  0.33426160  0.24974914  1
  Mn  Mn102  1  0.25044571  0.16616911  0.62467878  1
  Mn  Mn103  1  0.75077431  0.33396101  0.62442246  1
  Mn  Mn104  1  0.00048500  0.66612236  0.75002085  1
  Mn  Mn105  1  0.50021254  0.16724228  0.75033824  1
  Mn  Mn106  1  0.50099634  0.49959199  0.50032788  1
  Mn  Mn107  1  0.25072183  0.33239868  0.87558045  1
  Mn  Mn108  1  -0.00005588  0.66719313  0.25062742  1
  Mn  Mn109  1  0.25071051  0.16496013  0.87422154  1
  Mn  Mn110  1  0.74996799  0.16608295  0.62440832  1
  Mn  Mn111  1  0.00045860  0.33276684  0.74970725  1
  Mn  Mn112  1  0.50010437  -0.00015649  0.74954426  1
  Mn  Mn113  1  0.74949386  0.33313789  0.87494594  1
  Mn  Mn114  1  0.49949196  0.83363803  -0.00000140  1
  Mn  Mn115  1  -0.00047875  0.49939425  0.25042608  1
  Mn  Mn116  1  -0.00045666  -0.00030863  0.24936972  1
  Mn  Mn117  1  0.50077686  0.16701165  0.24992359  1
  Mn  Mn118  1  0.74972001  -0.00105081  0.62562363  1
  Mn  Mn119  1  -0.00002904  0.16569900  -0.00039987  1
  Mn  Mn120  1  0.00027589  0.49874317  0.00037591  1
  Mn  Mn121  1  0.24960208  0.83464996  0.87594414  1
  Mn  Mn122  1  -0.00013033  -0.00002788  0.50010929  1
  Mn  Mn123  1  0.74988203  0.33473819  0.12420016  1
  Mn  Mn124  1  0.24961038  0.83323709  0.12541842  1
  Mn  Mn125  1  0.00012012  0.66712155  0.00026055  1
  Mn  Mn126  1  0.25075432  0.66776694  0.62400616  1
  Mn  Mn127  1  0.75021554  0.50036198  0.87453454  1
  Mn  Mn128  1  -0.00039165  0.16665399  0.50007806  1
  Mn  Mn129  1  0.75068453  0.83220374  0.62419359  1
  Mn  Mn130  1  0.25097977  0.49921219  0.62375498  1
  Mn  Mn131  1  0.75084212  0.66699351  0.87511365  1
  Mn  Mn132  1  -0.00001332  0.83328044  0.50030117  1
  Mn  Mn133  1  0.50011389  -0.00005287  0.49994642  1
  Mn  Mn134  1  0.74974483  0.16700876  0.12534699  1
  Mn  Mn135  1  0.50102871  0.33441943  0.75089416  1
  Mn  Mn136  1  0.74881534  -0.00064218  0.12534198  1
  Mn  Mn137  1  0.24998219  0.66736739  0.87449986  1
  Mn  Mn138  1  0.74964247  0.16715378  0.37486910  1
  Mn  Mn139  1  -0.00042374  0.66610704  0.50026816  1
  Mn  Mn140  1  0.24945654  0.33253846  0.12556656  1
  Mn  Mn141  1  0.49963299  0.66743000  0.24975873  1
  Mn  Mn142  1  0.25006997  0.49988493  0.87507260  1
  Mn  Mn143  1  -0.00080739  0.33229209  0.25015268  1
  Fe  Fe144  1  0.00069223  0.49919121  0.74987962  1
  Fe  Fe145  1  0.49939793  0.66675822  -0.00030093  1
  Fe  Fe146  1  0.74948399  0.83374048  0.12553503  1
  Fe  Fe147  1  0.49998434  0.33447822  0.00038460  1
  Fe  Fe148  1  0.49975541  0.50123383  -0.00029497  1
  Fe  Fe149  1  -0.00004180  0.33205352  -0.00071633  1
  Fe  Fe150  1  0.00005549  0.16641343  0.24937939  1
  Fe  Fe151  1  0.74930675  -0.00006727  0.37496838  1
  Fe  Fe152  1  0.74989432  -0.00074301  0.87558765  1
  Fe  Fe153  1  -0.00036384  -0.00068506  -0.00043649  1
  Fe  Fe154  1  0.24985147  0.83388574  0.62467151  1
  Fe  Fe155  1  0.49993909  0.50021732  0.75037195  1
  Fe  Fe156  1  0.74958622  0.83343132  0.37515251  1
  Fe  Fe157  1  0.75010173  0.50042692  0.62449459  1
  Fe  Fe158  1  0.75057366  0.33457445  0.37473579  1
  Fe  Fe159  1  0.24999757  -0.00060503  0.62483153  1
  Fe  Fe160  1  0.25030228  0.16573583  0.12539064  1
  Fe  Fe161  1  0.24968154  -0.00037480  0.12536602  1
  Fe  Fe162  1  0.00089785  0.33300564  0.50049528  1
  Fe  Fe163  1  0.74919953  0.83285974  0.87513091  1
  Fe  Fe164  1  0.50020504  0.16691053  0.00060394  1
  Fe  Fe165  1  0.24975686  0.83362875  0.37495928  1
  Fe  Fe166  1  -0.00051096  0.83363633  -0.00065290  1
  Fe  Fe167  1  0.00088457  0.49937687  0.50064272  1
  Fe  Fe168  1  -0.00036420  -0.00043954  0.75051756  1
  Fe  Fe169  1  0.49984565  0.83363296  0.49970750  1
  Fe  Fe170  1  0.25070754  0.33307093  0.37461444  1
  Fe  Fe171  1  -0.00045111  0.83360107  0.24949074  1
  Fe  Fe172  1  0.74984073  0.66679203  0.37462277  1
  Fe  Fe173  1  0.24932227  -0.00038792  0.37525681  1
  Fe  Fe174  1  0.74979415  0.66645953  0.62454121  1
  Fe  Fe175  1  0.49978006  0.16710617  0.49975513  1
  Fe  Fe176  1  -0.00035731  0.83332748  0.75008642  1
  Fe  Fe177  1  0.25037562  0.33304713  0.62444787  1
  Fe  Fe178  1  0.74986017  0.50098173  0.12555828  1
  Fe  Fe179  1  0.75049025  0.16615535  0.87459988  1
  Fe  Fe180  1  0.25023134  0.66700822  0.37550604  1
  Fe  Fe181  1  0.49989504  0.50070171  0.24919179  1
  Fe  Fe182  1  0.00056414  0.16606854  0.75024108  1
  Fe  Fe183  1  0.50037173  0.00037153  0.00066947  1
  Fe  Fe184  1  0.25037148  0.50000179  0.37498147  1
  Fe  Fe185  1  0.25035097  -0.00021268  0.87520375  1
  Fe  Fe186  1  0.49898710  0.00065071  0.25020209  1
  Fe  Fe187  1  0.75003639  0.50101200  0.37522746  1
  Fe  Fe188  1  0.49982735  0.66621750  0.74960552  1
  Fe  Fe189  1  0.49925243  0.83459182  0.24917261  1
  Fe  Fe190  1  0.50027203  0.33382729  0.49993944  1
  Fe  Fe191  1  0.24960228  0.66674659  0.12592307  1
  P  P192  1  0.04216995  0.25032973  0.10234681  1
  P  P193  1  0.04241999  0.24820338  0.35258564  1
  P  P194  1  0.04276077  0.25053327  0.60281127  1
  P  P195  1  0.04266614  0.24801922  0.85258995  1
  P  P196  1  0.04274577  0.58344331  0.10344352  1
  P  P197  1  0.04233113  0.58254971  0.35409235  1
  P  P198  1  0.04276774  0.58191550  0.60282503  1
  P  P199  1  0.04276164  0.58132370  0.85237375  1
  P  P200  1  0.04096167  0.91646649  0.10153491  1
  P  P201  1  0.04223370  0.91535326  0.35193921  1
  P  P202  1  0.04229323  0.91690401  0.60427949  1
  P  P203  1  0.04096941  0.91602121  0.85217320  1
  P  P204  1  0.54170019  0.25104159  0.10144292  1
  P  P205  1  0.54280896  0.25049458  0.35388946  1
  P  P206  1  0.54184956  0.25056679  0.60137344  1
  P  P207  1  0.54282425  0.25052998  0.85454427  1
  P  P208  1  0.54090896  0.58444619  0.10167773  1
  P  P209  1  0.54212425  0.58247815  0.35180236  1
  P  P210  1  0.54305200  0.58367226  0.60363047  1
  P  P211  1  0.54142690  0.58362402  0.85211529  1
  P  P212  1  0.54171567  0.91818171  0.10323259  1
  P  P213  1  0.54046394  0.91698789  0.35166811  1
  P  P214  1  0.54250449  0.91509332  0.60229635  1
  P  P215  1  0.54246898  0.91711186  0.85390145  1
  P  P216  1  0.45815280  0.08286271  0.14702519  1
  P  P217  1  0.45768626  0.08439028  0.39739613  1
  P  P218  1  0.45766182  0.08403982  0.64620288  1
  P  P219  1  0.45903167  0.08335026  0.89896326  1
  P  P220  1  0.45792318  0.41863751  0.14663842  1
  P  P221  1  0.45821371  0.41598519  0.39717538  1
  P  P222  1  0.45839801  0.41767765  0.64761774  1
  P  P223  1  0.45850402  0.41753264  0.89862595  1
  P  P224  1  0.45708140  0.75182383  0.14731253  1
  P  P225  1  0.45821878  0.75205938  0.39672718  1
  P  P226  1  0.45795855  0.74899008  0.64721093  1
  P  P227  1  0.45736243  0.74834912  0.89731230  1
  P  P228  1  0.95732076  0.08434573  0.14690680  1
  P  P229  1  0.95707638  0.08315889  0.39620143  1
  P  P230  1  0.95812140  0.08337026  0.64899992  1
  P  P231  1  0.95800868  0.08082939  0.89657301  1
  P  P232  1  0.95667816  0.41574839  0.14665500  1
  P  P233  1  0.95897092  0.41591905  0.39912405  1
  P  P234  1  0.95859105  0.41769840  0.64677379  1
  P  P235  1  0.95803020  0.41448789  0.89694216  1
  P  P236  1  0.95738155  0.75171751  0.14711903  1
  P  P237  1  0.95718753  0.75015392  0.39655890  1
  P  P238  1  0.95753189  0.75076591  0.64797242  1
  P  P239  1  0.95781229  0.75105530  0.89701583  1
  P  P240  1  0.20831282  0.08256708  0.22704490  1
  P  P241  1  0.20754677  0.08142959  0.47790413  1
  P  P242  1  0.20817152  0.08134040  0.72733829  1
  P  P243  1  0.20812626  0.08162520  0.97823618  1
  P  P244  1  0.20745065  0.41638712  0.22962384  1
  P  P245  1  0.20948022  0.41599001  0.47641989  1
  P  P246  1  0.20822407  0.41507311  0.72684788  1
  P  P247  1  0.20731597  0.41633130  0.97856805  1
  P  P248  1  0.20778750  0.74870213  0.22865533  1
  P  P249  1  0.20874079  0.75066624  0.47671056  1
  P  P250  1  0.20776589  0.75175360  0.72702254  1
  P  P251  1  0.20683858  0.75022174  0.97874376  1
  P  P252  1  0.70675188  0.08338576  0.22874598  1
  P  P253  1  0.70721179  0.08199136  0.47724567  1
  P  P254  1  0.70757027  0.08299464  0.72910546  1
  P  P255  1  0.70883146  0.08330796  0.97662815  1
  P  P256  1  0.70786316  0.41898859  0.22819063  1
  P  P257  1  0.70910646  0.41780042  0.47677048  1
  P  P258  1  0.70781664  0.41797224  0.72681858  1
  P  P259  1  0.70708821  0.41761225  0.97841364  1
  P  P260  1  0.70723897  0.75175479  0.22828408  1
  P  P261  1  0.70850725  0.74918046  0.47637406  1
  P  P262  1  0.70787282  0.74886163  0.72743195  1
  P  P263  1  0.70762695  0.75132876  0.97800843  1
  P  P264  1  0.29241023  0.24795284  0.02314959  1
  P  P265  1  0.29243532  0.25005931  0.27242342  1
  P  P266  1  0.29225437  0.25103125  0.52184543  1
  P  P267  1  0.29354375  0.24956790  0.77146933  1
  P  P268  1  0.29199136  0.58480000  0.02326891  1
  P  P269  1  0.29146913  0.58413537  0.27376704  1
  P  P270  1  0.29315526  0.58378374  0.52043392  1
  P  P271  1  0.29302426  0.58344496  0.77149558  1
  P  P272  1  0.29209008  0.91803921  0.02297584  1
  P  P273  1  0.29079005  0.91712481  0.27328683  1
  P  P274  1  0.29135800  0.91665046  0.52249106  1
  P  P275  1  0.29232968  0.91800519  0.77207958  1
  P  P276  1  0.79234310  0.24954509  0.02116113  1
  P  P277  1  0.79220403  0.25211743  0.27250818  1
  P  P278  1  0.79287639  0.25033773  0.52098336  1
  P  P279  1  0.79236512  0.24890037  0.77237794  1
  P  P280  1  0.79240996  0.58271399  0.02294487  1
  P  P281  1  0.79141981  0.58382650  0.27323716  1
  P  P282  1  0.79149415  0.58349338  0.52247747  1
  P  P283  1  0.79290733  0.58354912  0.77062812  1
  P  P284  1  0.79127530  0.91522166  0.02206426  1
  P  P285  1  0.79053024  0.91669591  0.27338914  1
  P  P286  1  0.79250427  0.91632337  0.52095670  1
  P  P287  1  0.79115060  0.91566401  0.77389459  1
  O  O288  1  0.03677367  0.24959290  0.18228346  1
  O  O289  1  0.03741002  0.24895516  0.43253286  1
  O  O290  1  0.03771044  0.25002578  0.68272114  1
  O  O291  1  0.03723351  0.24872534  0.93249378  1
  O  O292  1  0.03737657  0.58365655  0.18341000  1
  O  O293  1  0.03714484  0.58210530  0.43408109  1
  O  O294  1  0.03793023  0.58168499  0.68283055  1
  O  O295  1  0.03746546  0.58177198  0.93232213  1
  O  O296  1  0.03582895  0.91623262  0.18150076  1
  O  O297  1  0.03750102  0.91579511  0.43192034  1
  O  O298  1  0.03680963  0.91684632  0.68417256  1
  O  O299  1  0.03578494  0.91606217  0.93211355  1
  O  O300  1  0.53710725  0.25084086  0.18147906  1
  O  O301  1  0.53727496  0.25043569  0.43377334  1
  O  O302  1  0.53721120  0.25066399  0.68145849  1
  O  O303  1  0.53741383  0.25062091  0.93440860  1
  O  O304  1  0.53610224  0.58382278  0.18163343  1
  O  O305  1  0.53744256  0.58269403  0.43175495  1
  O  O306  1  0.53771760  0.58377101  0.68352743  1
  O  O307  1  0.53601556  0.58407089  0.93202737  1
  O  O308  1  0.53591460  0.91814948  0.18310186  1
  O  O309  1  0.53578373  0.91637939  0.43168507  1
  O  O310  1  0.53749297  0.91524947  0.68229574  1
  O  O311  1  0.53717172  0.91762458  0.93384216  1
  O  O312  1  0.46371763  0.08283047  0.06715832  1
  O  O313  1  0.46276750  0.08392602  0.31741538  1
  O  O314  1  0.46297097  0.08442696  0.56626628  1
  O  O315  1  0.46360514  0.08367990  0.81891843  1
  O  O316  1  0.46314988  0.41842566  0.06674289  1
  O  O317  1  0.46320672  0.41664868  0.31724364  1
  O  O318  1  0.46375119  0.41657962  0.56769368  1
  O  O319  1  0.46352249  0.41810033  0.81864926  1
  O  O320  1  0.46204477  0.75111514  0.06738712  1
  O  O321  1  0.46328424  0.75232871  0.31677250  1
  O  O322  1  0.46325207  0.74999239  0.56725568  1
  O  O323  1  0.46283995  0.74786490  0.81737730  1
  O  O324  1  0.96258749  0.08353782  0.06696491  1
  O  O325  1  0.96219265  0.08357201  0.31624166  1
  O  O326  1  0.96310537  0.08339183  0.56896226  1
  O  O327  1  0.96338901  0.08073475  0.81671978  1
  O  O328  1  0.96186307  0.41522937  0.06670913  1
  O  O329  1  0.96348230  0.41571253  0.31910140  1
  O  O330  1  0.96422124  0.41763005  0.56688830  1
  O  O331  1  0.96347564  0.41516685  0.81700566  1
  O  O332  1  0.96272230  0.75176195  0.06712589  1
  O  O333  1  0.96221915  0.75063648  0.31657048  1
  O  O334  1  0.96261027  0.75031463  0.56799551  1
  O  O335  1  0.96320170  0.75092888  0.81709384  1
  O  O336  1  0.21334130  0.08216191  0.05815061  1
  O  O337  1  0.21317409  0.08226707  0.30704806  1
  O  O338  1  0.21315527  0.08155151  0.55778470  1
  O  O339  1  0.21337028  0.08127908  0.80728531  1
  O  O340  1  0.21206536  0.41649020  0.05858485  1
  O  O341  1  0.21309399  0.41620739  0.30950638  1
  O  O342  1  0.21435611  0.41572723  0.55642566  1
  O  O343  1  0.21321876  0.41548286  0.80684141  1
  O  O344  1  0.21187027  0.74982454  0.05872812  1
  O  O345  1  0.21332467  0.74894751  0.30851339  1
  O  O346  1  0.21372049  0.75151096  0.55666601  1
  O  O347  1  0.21272332  0.75155473  0.80701520  1
  O  O348  1  0.71300164  0.08313873  0.05670927  1
  O  O349  1  0.71193910  0.08292663  0.30867927  1
  O  O350  1  0.71230702  0.08205939  0.55725184  1
  O  O351  1  0.71322146  0.08336814  0.80903003  1
  O  O352  1  0.71210598  0.41828372  0.05840138  1
  O  O353  1  0.71356818  0.41856013  0.30810544  1
  O  O354  1  0.71413100  0.41803697  0.55675041  1
  O  O355  1  0.71252290  0.41745665  0.80681490  1
  O  O356  1  0.71276488  0.75147922  0.05795664  1
  O  O357  1  0.71267428  0.75110335  0.30812756  1
  O  O358  1  0.71341645  0.74877943  0.55633911  1
  O  O359  1  0.71307795  0.74964549  0.80738262  1
  O  O360  1  0.28703694  0.24912348  0.19250129  1
  O  O361  1  0.28675673  0.25119733  0.44191613  1
  O  O362  1  0.28839219  0.24994113  0.69149024  1
  O  O363  1  0.28764097  0.24794159  0.94313419  1
  O  O364  1  0.28625840  0.58435405  0.19380756  1
  O  O365  1  0.28768224  0.58388210  0.44054720  1
  O  O366  1  0.28825230  0.58323066  0.69147476  1
  O  O367  1  0.28697493  0.58436917  0.94328436  1
  O  O368  1  0.28585902  0.91706252  0.19333595  1
  O  O369  1  0.28581159  0.91695968  0.44261220  1
  O  O370  1  0.28709760  0.91745840  0.69217218  1
  O  O371  1  0.28727457  0.91823638  0.94301146  1
  O  O372  1  0.78686037  0.25205055  0.19254681  1
  O  O373  1  0.78751354  0.25106343  0.44104258  1
  O  O374  1  0.78756676  0.24914265  0.69233273  1
  O  O375  1  0.78709877  0.24874016  0.94119596  1
  O  O376  1  0.78632206  0.58362247  0.19327628  1
  O  O377  1  0.78597796  0.58342670  0.44257032  1
  O  O378  1  0.78751034  0.58354830  0.69070616  1
  O  O379  1  0.78755354  0.58305974  0.94293640  1
  O  O380  1  0.78554887  0.91595395  0.19342594  1
  O  O381  1  0.78717808  0.91676436  0.44107564  1
  O  O382  1  0.78689876  0.91590680  0.69384915  1
  O  O383  1  0.78589601  0.91528932  0.94219909  1
  O  O384  1  0.22802507  0.24768582  0.05844522  1
  O  O385  1  0.22822734  0.25065378  0.30828740  1
  O  O386  1  0.22814768  0.25098917  0.55799585  1
  O  O387  1  0.22913036  0.24912245  0.80662718  1
  O  O388  1  0.22764944  0.58510542  0.05880505  1
  O  O389  1  0.22745061  0.58433721  0.30991501  1
  O  O390  1  0.22902401  0.58359142  0.55631891  1
  O  O391  1  0.22849816  0.58331523  0.80633373  1
  O  O392  1  0.22768301  0.91780350  0.05829199  1
  O  O393  1  0.22665268  0.91736637  0.30921648  1
  O  O394  1  0.22742194  0.91648111  0.55923482  1
  O  O395  1  0.22807737  0.91870687  0.80811871  1
  O  O396  1  0.72802548  0.25014231  0.05656551  1
  O  O397  1  0.72798265  0.25230233  0.30818064  1
  O  O398  1  0.72857651  0.25023007  0.55639529  1
  O  O399  1  0.72797145  0.24868204  0.80759813  1
  O  O400  1  0.72799186  0.58265725  0.05826452  1
  O  O401  1  0.72726448  0.58345646  0.30925221  1
  O  O402  1  0.72755447  0.58355354  0.55917844  1
  O  O403  1  0.72866469  0.58403768  0.80632286  1
  O  O404  1  0.72712146  0.91469199  0.05826332  1
  O  O405  1  0.72642313  0.91746540  0.30941388  1
  O  O406  1  0.72824066  0.91572960  0.55655270  1
  O  O407  1  0.72686754  0.91546430  0.80932970  1
  O  O408  1  0.27250892  0.08230607  0.19112384  1
  O  O409  1  0.27169954  0.08135383  0.44186202  1
  O  O410  1  0.27238461  0.08145842  0.69154887  1
  O  O411  1  0.27239334  0.08102829  0.94224904  1
  O  O412  1  0.27155662  0.41642161  0.19367688  1
  O  O413  1  0.27356048  0.41583064  0.44043407  1
  O  O414  1  0.27262806  0.41470282  0.69143983  1
  O  O415  1  0.27188946  0.41650490  0.94380625  1
  O  O416  1  0.27185600  0.74866630  0.19231882  1
  O  O417  1  0.27283927  0.75026434  0.44067509  1
  O  O418  1  0.27210683  0.75228612  0.69151773  1
  O  O419  1  0.27125865  0.75059176  0.94360629  1
  O  O420  1  0.77108139  0.08309165  0.19342408  1
  O  O421  1  0.77149386  0.08181354  0.44168440  1
  O  O422  1  0.77178555  0.08295538  0.69329464  1
  O  O423  1  0.77306459  0.08335126  0.94117305  1
  O  O424  1  0.77193291  0.41915891  0.19185205  1
  O  O425  1  0.77324206  0.41813657  0.44078834  1
  O  O426  1  0.77228410  0.41834724  0.69173549  1
  O  O427  1  0.77146549  0.41692748  0.94322321  1
  O  O428  1  0.77136866  0.75207953  0.19205559  1
  O  O429  1  0.77260005  0.74940994  0.44043840  1
  O  O430  1  0.77211639  0.74798897  0.69156835  1
  O  O431  1  0.77193592  0.75178298  0.94234292  1
  O  O432  1  0.02161187  0.08444358  0.18266809  1
  O  O433  1  0.02144649  0.08322397  0.43147166  1
  O  O434  1  0.02237427  0.08307815  0.68472645  1
  O  O435  1  0.02207837  0.08079124  0.93282470  1
  O  O436  1  0.02102645  0.41584817  0.18193319  1
  O  O437  1  0.02329896  0.41593586  0.43462383  1
  O  O438  1  0.02270923  0.41753556  0.68296667  1
  O  O439  1  0.02219657  0.41414606  0.93293652  1
  O  O440  1  0.02162752  0.75183112  0.18294623  1
  O  O441  1  0.02156467  0.74962006  0.43173076  1
  O  O442  1  0.02188434  0.75117875  0.68337596  1
  O  O443  1  0.02199308  0.75126903  0.93290058  1
  O  O444  1  0.52220260  0.08208276  0.18329502  1
  O  O445  1  0.52191253  0.08449925  0.43305426  1
  O  O446  1  0.52192580  0.08371817  0.68175741  1
  O  O447  1  0.52324924  0.08306024  0.93459897  1
  O  O448  1  0.52217784  0.41899819  0.18253978  1
  O  O449  1  0.52253109  0.41505755  0.43282391  1
  O  O450  1  0.52261958  0.41893938  0.68348072  1
  O  O451  1  0.52260516  0.41685052  0.93463588  1
  O  O452  1  0.52140604  0.75213785  0.18283719  1
  O  O453  1  0.52247222  0.75231468  0.43249961  1
  O  O454  1  0.52218323  0.74822988  0.68304531  1
  O  O455  1  0.52154233  0.74858483  0.93327466  1
  O  O456  1  0.47746486  0.25160119  0.06589449  1
  O  O457  1  0.47870177  0.25059742  0.31792162  1
  O  O458  1  0.47760371  0.25108169  0.56565115  1
  O  O459  1  0.47865530  0.25086346  0.81867418  1
  O  O460  1  0.47672142  0.58510502  0.06589142  1
  O  O461  1  0.47774805  0.58250445  0.31647838  1
  O  O462  1  0.47888212  0.58353398  0.56783705  1
  O  O463  1  0.47746887  0.58319316  0.81541561  1
  O  O464  1  0.47766215  0.91852608  0.06689947  1
  O  O465  1  0.47627871  0.91719029  0.31577030  1
  O  O466  1  0.47809057  0.91518979  0.56698616  1
  O  O467  1  0.47824391  0.91657930  0.81831820  1
  O  O468  1  0.97799502  0.25064412  0.06633806  1
  O  O469  1  0.97803124  0.24731573  0.31705489  1
  O  O470  1  0.97842435  0.25134183  0.56726983  1
  O  O471  1  0.97846171  0.24786868  0.81671127  1
  O  O472  1  0.97844127  0.58315921  0.06810308  1
  O  O473  1  0.97799405  0.58317206  0.31877262  1
  O  O474  1  0.97835525  0.58149049  0.56754615  1
  O  O475  1  0.97848774  0.58129836  0.81670816  1
  O  O476  1  0.97686751  0.91665827  0.06536405  1
  O  O477  1  0.97778238  0.91525641  0.31670799  1
  O  O478  1  0.97804538  0.91684447  0.56857198  1
  O  O479  1  0.97691793  0.91594816  0.81581849  1
  O  O480  1  0.07292099  0.31396681  0.07414731  1
  O  O481  1  0.07311016  0.31188437  0.32437111  1
  O  O482  1  0.07363536  0.31401805  0.57424866  1
  O  O483  1  0.07416011  0.31118295  0.82436220  1
  O  O484  1  0.07361419  0.64701637  0.07532885  1
  O  O485  1  0.07359901  0.64603839  0.32623845  1
  O  O486  1  0.07329523  0.64601461  0.57518066  1
  O  O487  1  0.07388529  0.64497863  0.82461017  1
  O  O488  1  0.07168647  0.98036080  0.07362040  1
  O  O489  1  0.07320492  0.97888788  0.32379055  1
  O  O490  1  0.07332025  0.98031345  0.57574821  1
  O  O491  1  0.07185713  0.97965890  0.82385148  1
  O  O492  1  0.57302672  0.31441314  0.07360009  1
  O  O493  1  0.57417885  0.31372198  0.32538326  1
  O  O494  1  0.57295113  0.31413941  0.57339541  1
  O  O495  1  0.57423433  0.31380014  0.82604431  1
  O  O496  1  0.57210069  0.64810329  0.07394882  1
  O  O497  1  0.57301842  0.64622200  0.32401216  1
  O  O498  1  0.57413086  0.64694716  0.57478784  1
  O  O499  1  0.57226176  0.64719286  0.82355971  1
  O  O500  1  0.57300868  0.98138398  0.07454735  1
  O  O501  1  0.57106732  0.98099904  0.32395633  1
  O  O502  1  0.57359309  0.97870236  0.57451320  1
  O  O503  1  0.57357312  0.98027036  0.82520835  1
  O  O504  1  0.42663936  0.01985754  0.17587320  1
  O  O505  1  0.42630895  0.02102813  0.42540151  1
  O  O506  1  0.42668702  0.02027933  0.67393892  1
  O  O507  1  0.42792486  0.01977910  0.92677020  1
  O  O508  1  0.42695504  0.35502428  0.17484253  1
  O  O509  1  0.42718981  0.35258424  0.42560707  1
  O  O510  1  0.42782409  0.35405602  0.67618825  1
  O  O511  1  0.42722467  0.35401508  0.92650226  1
  O  O512  1  0.42609760  0.68844661  0.17590951  1
  O  O513  1  0.42762227  0.68796805  0.42418071  1
  O  O514  1  0.42694275  0.68538169  0.67510384  1
  O  O515  1  0.42635585  0.68522742  0.92625740  1
  O  O516  1  0.92592627  0.02097610  0.17494493  1
  O  O517  1  0.92636619  0.01937728  0.42426679  1
  O  O518  1  0.92700108  0.01983108  0.67693082  1
  O  O519  1  0.92700511  0.01760976  0.92562883  1
  O  O520  1  0.92540207  0.35263998  0.17534056  1
  O  O521  1  0.92844439  0.35212908  0.42736882  1
  O  O522  1  0.92712645  0.35418332  0.67452063  1
  O  O523  1  0.92744396  0.35063617  0.92496010  1
  O  O524  1  0.92645213  0.68790132  0.17480095  1
  O  O525  1  0.92604582  0.68663381  0.42462395  1
  O  O526  1  0.92680194  0.68697590  0.67579310  1
  O  O527  1  0.92690477  0.68719147  0.92473962  1
  O  O528  1  0.17698882  0.01929958  0.19852277  1
  O  O529  1  0.17635408  0.01823226  0.44929369  1
  O  O530  1  0.17715855  0.01813288  0.69856790  1
  O  O531  1  0.17705012  0.01826467  0.94960868  1
  O  O532  1  0.17605626  0.35312536  0.20112666  1
  O  O533  1  0.17805751  0.35274147  0.44814417  1
  O  O534  1  0.17740593  0.35148679  0.69852418  1
  O  O535  1  0.17669687  0.35258096  0.95039862  1
  O  O536  1  0.17684268  0.68530486  0.19995644  1
  O  O537  1  0.17770245  0.68681231  0.44925414  1
  O  O538  1  0.17711661  0.68788452  0.69904734  1
  O  O539  1  0.17569104  0.68709546  0.94987310  1
  O  O540  1  0.67527276  0.02038500  0.20001586  1
  O  O541  1  0.67631418  0.01850858  0.44885650  1
  O  O542  1  0.67643603  0.01932198  0.70118520  1
  O  O543  1  0.67845626  0.01927961  0.94840069  1
  O  O544  1  0.67650921  0.35551621  0.20008276  1
  O  O545  1  0.67885340  0.35367459  0.44861012  1
  O  O546  1  0.67700804  0.35422182  0.69872456  1
  O  O547  1  0.67597273  0.35403176  0.95045560  1
  O  O548  1  0.67624943  0.68814149  0.19984493  1
  O  O549  1  0.67734408  0.68586303  0.44777979  1
  O  O550  1  0.67683992  0.68542562  0.69912017  1
  O  O551  1  0.67719830  0.68719266  0.95025091  1
  O  O552  1  0.32324285  0.31179508  0.05080957  1
  O  O553  1  0.32349260  0.31371186  0.30031473  1
  O  O554  1  0.32326759  0.31427177  0.55063391  1
  O  O555  1  0.32455985  0.31280773  0.80035989  1
  O  O556  1  0.32268060  0.64838806  0.05170176  1
  O  O557  1  0.32307092  0.64729841  0.30196611  1
  O  O558  1  0.32428562  0.64725602  0.54879062  1
  O  O559  1  0.32369057  0.64720299  0.79948425  1
  O  O560  1  0.32286991  0.98125556  0.05213243  1
  O  O561  1  0.32211962  0.98039945  0.30161741  1
  O  O562  1  0.32244594  0.98013768  0.55100403  1
  O  O563  1  0.32354259  0.98125685  0.80081824  1
  O  O564  1  0.82347236  0.31322306  0.04882366  1
  O  O565  1  0.82310782  0.31560889  0.30096064  1
  O  O566  1  0.82420844  0.31345877  0.54968613  1
  O  O567  1  0.82327733  0.31268377  0.80012495  1
  O  O568  1  0.82334866  0.64647275  0.05076441  1
  O  O569  1  0.82176658  0.64798078  0.30116464  1
  O  O570  1  0.82241508  0.64716888  0.55072644  1
  O  O571  1  0.82442566  0.64664659  0.79937390  1
  O  O572  1  0.82198047  0.97912074  0.05019757  1
  O  O573  1  0.82187369  0.98036016  0.30087980  1
  O  O574  1  0.82350989  0.97959962  0.55000967  1
  O  O575  1  0.82147688  0.97952593  0.80257478  1
  O  O576  1  0.42747553  0.14678484  0.17495106  1
  O  O577  1  0.42715008  0.14810276  0.42593505  1
  O  O578  1  0.42655000  0.14730460  0.67481144  1
  O  O579  1  0.42872934  0.14727877  0.92758266  1
  O  O580  1  0.42703314  0.48206004  0.17553762  1
  O  O581  1  0.42752517  0.47964897  0.42547089  1
  O  O582  1  0.42705640  0.48110317  0.67553956  1
  O  O583  1  0.42807377  0.48133045  0.92731994  1
  O  O584  1  0.42636003  0.81552013  0.17560229  1
  O  O585  1  0.42704199  0.81512291  0.42575572  1
  O  O586  1  0.42700038  0.81242610  0.67583239  1
  O  O587  1  0.42632914  0.81228365  0.92463489  1
  O  O588  1  0.92685390  0.14813644  0.17519234  1
  O  O589  1  0.92566619  0.14616642  0.42497763  1
  O  O590  1  0.92780306  0.14740165  0.67705147  1
  O  O591  1  0.92684980  0.14447200  0.92441187  1
  O  O592  1  0.92586069  0.47947111  0.17484032  1
  O  O593  1  0.92825082  0.47971987  0.42706834  1
  O  O594  1  0.92784363  0.48110794  0.67575439  1
  O  O595  1  0.92668096  0.47790889  0.92495893  1
  O  O596  1  0.92646716  0.81509587  0.17578404  1
  O  O597  1  0.92619127  0.81346754  0.42510817  1
  O  O598  1  0.92653256  0.81423655  0.67617180  1
  O  O599  1  0.92669479  0.81426843  0.92572037  1
  O  O600  1  0.07338515  0.18684775  0.07425476  1
  O  O601  1  0.07334459  0.18475900  0.32398735  1
  O  O602  1  0.07358458  0.18690217  0.57462394  1
  O  O603  1  0.07314557  0.18409478  0.82447912  1
  O  O604  1  0.07404470  0.51998881  0.07567606  1
  O  O605  1  0.07324602  0.51913515  0.32560011  1
  O  O606  1  0.07402894  0.51892740  0.57369673  1
  O  O607  1  0.07340439  0.51767798  0.82408834  1
  O  O608  1  0.07200104  0.85301592  0.07316169  1
  O  O609  1  0.07278141  0.85177491  0.32339005  1
  O  O610  1  0.07354669  0.85357680  0.57574687  1
  O  O611  1  0.07203521  0.85249634  0.82374682  1
  O  O612  1  0.57176038  0.18677936  0.07334350  1
  O  O613  1  0.57401300  0.18711600  0.32541172  1
  O  O614  1  0.57206856  0.18653382  0.57317031  1
  O  O615  1  0.57376648  0.18708854  0.82589700  1
  O  O616  1  0.57132842  0.52081530  0.07258864  1
  O  O617  1  0.57262998  0.51891504  0.32317337  1
  O  O618  1  0.57437866  0.52032876  0.57528411  1
  O  O619  1  0.57247710  0.51990711  0.82412143  1
  O  O620  1  0.57273466  0.85448859  0.07529400  1
  O  O621  1  0.57145354  0.85365603  0.32286253  1
  O  O622  1  0.57308960  0.85153918  0.57366406  1
  O  O623  1  0.57357483  0.85334421  0.82630525  1
  O  O624  1  0.32315160  0.18451120  0.05174884  1
  O  O625  1  0.32343987  0.18659970  0.30079407  1
  O  O626  1  0.32316936  0.18705768  0.54903954  1
  O  O627  1  0.32460022  0.18596986  0.79946998  1
  O  O628  1  0.32287843  0.52115611  0.05127441  1
  O  O629  1  0.32175432  0.51990718  0.30167182  1
  O  O630  1  0.32453724  0.52043195  0.54857888  1
  O  O631  1  0.32400079  0.52008323  0.80002212  1
  O  O632  1  0.32311431  0.85432082  0.05074761  1
  O  O633  1  0.32106799  0.85309219  0.30160165  1
  O  O634  1  0.32229765  0.85297630  0.55062824  1
  O  O635  1  0.32309137  0.85438963  0.80065121  1
  O  O636  1  0.82340104  0.18634060  0.04999508  1
  O  O637  1  0.82317413  0.18832290  0.29988656  1
  O  O638  1  0.82378569  0.18655285  0.54861864  1
  O  O639  1  0.82309239  0.18538164  0.80084147  1
  O  O640  1  0.82307188  0.51922036  0.05136288  1
  O  O641  1  0.82290472  0.52074776  0.30177719  1
  O  O642  1  0.82251019  0.51990285  0.55068147  1
  O  O643  1  0.82382014  0.52002870  0.79905078  1
  O  O644  1  0.82256944  0.85224847  0.05107483  1
  O  O645  1  0.82090038  0.85298609  0.30225836  1
  O  O646  1  0.82389406  0.85292473  0.54910339  1
  O  O647  1  0.82199943  0.85200962  0.80177872  1
  O  O648  1  0.17808359  0.14665909  0.19896813  1
  O  O649  1  0.17664434  0.14527673  0.45023583  1
  O  O650  1  0.17717530  0.14514301  0.69970546  1
  O  O651  1  0.17728018  0.14515699  0.94961623  1
  O  O652  1  0.17619386  0.47989361  0.20166966  1
  O  O653  1  0.17924172  0.48021677  0.44848638  1
  O  O654  1  0.17744991  0.47872309  0.69868503  1
  O  O655  1  0.17629663  0.47969915  0.95019575  1
  O  O656  1  0.17660617  0.81230191  0.20067726  1
  O  O657  1  0.17798555  0.81412815  0.44777603  1
  O  O658  1  0.17682367  0.81514029  0.69872431  1
  O  O659  1  0.17597762  0.81393569  0.95075161  1
  O  O660  1  0.67612812  0.14729315  0.20086893  1
  O  O661  1  0.67636709  0.14582555  0.44976918  1
  O  O662  1  0.67618486  0.14609805  0.70028590  1
  O  O663  1  0.67798023  0.14686639  0.94846728  1
  O  O664  1  0.67704741  0.48252597  0.19968833  1
  O  O665  1  0.67758416  0.48098422  0.44852632  1
  O  O666  1  0.67710782  0.48142251  0.69829148  1
  O  O667  1  0.67616627  0.48091506  0.94977249  1
  O  O668  1  0.67613166  0.81507228  0.19987666  1
  O  O669  1  0.67799548  0.81317836  0.44829394  1
  O  O670  1  0.67709812  0.81247281  0.69908388  1
  O  O671  1  0.67621261  0.81421263  0.94907141  1
