# generated using pymatgen
data_Na2MnFe(PO4)2
_symmetry_space_group_name_H-M   'P 1'
_cell_length_a   22.34635538
_cell_length_b   20.09756205
_cell_length_c   19.44764960
_cell_angle_alpha   89.95850176
_cell_angle_beta   90.06103954
_cell_angle_gamma   90.01233395
_symmetry_Int_Tables_number   1
_chemical_formula_structural   Na2MnFe(PO4)2
_chemical_formula_sum   'Na96 Mn48 Fe48 P96 O384'
_cell_volume   8734.07324858
_cell_formula_units_Z   48
loop_
 _symmetry_equiv_pos_site_id
 _symmetry_equiv_pos_as_xyz
  1  'x, y, z'
loop_
 _atom_site_type_symbol
 _atom_site_label
 _atom_site_symmetry_multiplicity
 _atom_site_fract_x
 _atom_site_fract_y
 _atom_site_fract_z
 _atom_site_occupancy
  Na  Na0  1  0.14030897  0.25147908  0.24174022  1
  Na  Na1  1  0.14009884  0.25199435  0.49282146  1
  Na  Na2  1  0.14047984  0.25021492  0.74555475  1
  Na  Na3  1  0.14044101  0.25026641  0.99262532  1
  Na  Na4  1  0.14002925  0.58329181  0.24232336  1
  Na  Na5  1  0.14004220  0.58462720  0.49286895  1
  Na  Na6  1  0.13961408  0.58273457  0.74386846  1
  Na  Na7  1  0.14013951  0.58253468  0.99389990  1
  Na  Na8  1  0.13970253  0.91710197  0.24268600  1
  Na  Na9  1  0.13955334  0.91631278  0.49319847  1
  Na  Na10  1  0.13981932  0.91701537  0.74392297  1
  Na  Na11  1  0.13969404  0.91695325  0.99351881  1
  Na  Na12  1  0.64009874  0.25053187  0.24340725  1
  Na  Na13  1  0.64024753  0.24937336  0.49290192  1
  Na  Na14  1  0.64031408  0.24853311  0.74339763  1
  Na  Na15  1  0.63986466  0.24983639  0.99291559  1
  Na  Na16  1  0.64026344  0.58266106  0.24500114  1
  Na  Na17  1  0.64021468  0.58363047  0.49354496  1
  Na  Na18  1  0.64077941  0.58364801  0.74436922  1
  Na  Na19  1  0.64075731  0.58327400  0.99482849  1
  Na  Na20  1  0.64019828  0.91682926  0.24593680  1
  Na  Na21  1  0.64027899  0.91633764  0.49519403  1
  Na  Na22  1  0.63989201  0.91671249  0.74368448  1
  Na  Na23  1  0.64022403  0.91642982  0.99323557  1
  Na  Na24  1  0.35978989  0.08405583  0.00642509  1
  Na  Na25  1  0.35945072  0.08386985  0.25599712  1
  Na  Na26  1  0.35990437  0.08368091  0.50644758  1
  Na  Na27  1  0.35971433  0.08461766  0.75758334  1
  Na  Na28  1  0.35951557  0.41515933  0.00664381  1
  Na  Na29  1  0.36019479  0.41622098  0.25570553  1
  Na  Na30  1  0.35964104  0.41775557  0.50538083  1
  Na  Na31  1  0.35939484  0.41586041  0.75682897  1
  Na  Na32  1  0.35926867  0.74936638  0.00573540  1
  Na  Na33  1  0.35898075  0.74966792  0.25630834  1
  Na  Na34  1  0.35921149  0.75042057  0.50613211  1
  Na  Na35  1  0.35906539  0.74994575  0.75606677  1
  Na  Na36  1  0.86036176  0.08212161  0.00612733  1
  Na  Na37  1  0.86038588  0.08310701  0.25549082  1
  Na  Na38  1  0.85990394  0.08157603  0.50637739  1
  Na  Na39  1  0.86028420  0.08119836  0.75693674  1
  Na  Na40  1  0.86023387  0.41656695  0.00653192  1
  Na  Na41  1  0.86083066  0.41811324  0.25699215  1
  Na  Na42  1  0.86071119  0.41739918  0.50552571  1
  Na  Na43  1  0.86026517  0.41662082  0.75581991  1
  Na  Na44  1  0.86020187  0.74977424  0.00694356  1
  Na  Na45  1  0.86010492  0.74986144  0.25753420  1
  Na  Na46  1  0.85992357  0.75017510  0.50617478  1
  Na  Na47  1  0.85967068  0.74965024  0.75745246  1
  Na  Na48  1  0.10913391  0.08329041  0.11673396  1
  Na  Na49  1  0.10913923  0.08353915  0.36764611  1
  Na  Na50  1  0.10935021  0.08267203  0.61936595  1
  Na  Na51  1  0.11024205  0.08324179  0.86898311  1
  Na  Na52  1  0.11012824  0.41681103  0.11730292  1
  Na  Na53  1  0.10955681  0.41832811  0.36738772  1
  Na  Na54  1  0.10961710  0.41734840  0.61892836  1
  Na  Na55  1  0.11001688  0.41701873  0.86896996  1
  Na  Na56  1  0.10892507  0.75101567  0.11908639  1
  Na  Na57  1  0.10914242  0.75116540  0.36748113  1
  Na  Na58  1  0.10916137  0.74835971  0.61837174  1
  Na  Na59  1  0.10886453  0.74977528  0.86895578  1
  Na  Na60  1  0.60932355  0.08445117  0.11911565  1
  Na  Na61  1  0.60953802  0.08344464  0.37000371  1
  Na  Na62  1  0.60942943  0.08331099  0.61890602  1
  Na  Na63  1  0.60920764  0.08258073  0.86794055  1
  Na  Na64  1  0.61003170  0.41623651  0.11926218  1
  Na  Na65  1  0.60951387  0.41551586  0.36818612  1
  Na  Na66  1  0.60923504  0.41641874  0.61837350  1
  Na  Na67  1  0.60995932  0.41536202  0.86929075  1
  Na  Na68  1  0.60950495  0.74995668  0.11985915  1
  Na  Na69  1  0.60926840  0.74802736  0.36980630  1
  Na  Na70  1  0.60945615  0.75196641  0.61933381  1
  Na  Na71  1  0.60947061  0.75135847  0.86836635  1
  Na  Na72  1  0.39013553  0.25056862  0.13103155  1
  Na  Na73  1  0.39079729  0.24931594  0.37985978  1
  Na  Na74  1  0.39071304  0.24945351  0.63060406  1
  Na  Na75  1  0.39016765  0.24951595  0.88220094  1
  Na  Na76  1  0.39038434  0.58138176  0.13139523  1
  Na  Na77  1  0.39013691  0.58134775  0.38143610  1
  Na  Na78  1  0.39000156  0.58474751  0.63097665  1
  Na  Na79  1  0.39028893  0.58202606  0.88112103  1
  Na  Na80  1  0.39003522  0.91713439  0.13131528  1
  Na  Na81  1  0.39000975  0.91659100  0.38182985  1
  Na  Na82  1  0.39043985  0.91839709  0.63143428  1
  Na  Na83  1  0.39002819  0.91790239  0.88097442  1
  Na  Na84  1  0.89121941  0.25013834  0.13059465  1
  Na  Na85  1  0.89136329  0.25140918  0.38045094  1
  Na  Na86  1  0.89130080  0.25061696  0.63062635  1
  Na  Na87  1  0.89112338  0.24941385  0.88188168  1
  Na  Na88  1  0.89065675  0.58372933  0.13274815  1
  Na  Na89  1  0.89069121  0.58334194  0.38116568  1
  Na  Na90  1  0.89071562  0.58271992  0.63084877  1
  Na  Na91  1  0.89076530  0.58298782  0.88196915  1
  Na  Na92  1  0.89071224  0.91633503  0.13088036  1
  Na  Na93  1  0.89051298  0.91694047  0.38157338  1
  Na  Na94  1  0.89008383  0.91512776  0.63255982  1
  Na  Na95  1  0.89036527  0.91671705  0.88248652  1
  Mn  Mn96  1  0.75086522  0.33441437  0.12422713  1
  Mn  Mn97  1  -0.00029321  -0.00102796  0.49914794  1
  Mn  Mn98  1  0.50043437  0.66775299  0.75058070  1
  Mn  Mn99  1  0.49980473  0.49978832  0.74948971  1
  Mn  Mn100  1  -0.00007689  0.50037895  0.00061544  1
  Mn  Mn101  1  0.24911629  -0.00016192  0.37458620  1
  Mn  Mn102  1  0.25010334  0.66624669  0.12490173  1
  Mn  Mn103  1  0.00062027  0.16601237  0.75044965  1
  Mn  Mn104  1  0.00074858  0.33392969  0.75015811  1
  Mn  Mn105  1  0.24985494  0.33391276  0.62512276  1
  Mn  Mn106  1  0.75002650  0.83347094  0.37594683  1
  Mn  Mn107  1  -0.00005457  0.16757974  0.49903921  1
  Mn  Mn108  1  0.75093471  0.16584925  0.37468401  1
  Mn  Mn109  1  0.74964186  0.16642458  0.12466681  1
  Mn  Mn110  1  0.24944315  0.00044655  0.62496343  1
  Mn  Mn111  1  0.75061812  0.33366053  0.87457923  1
  Mn  Mn112  1  0.75094878  0.33414862  0.37416487  1
  Mn  Mn113  1  0.74980897  -0.00021670  0.12477752  1
  Mn  Mn114  1  0.75021115  0.66641207  0.87573416  1
  Mn  Mn115  1  0.50046217  0.00145725  0.00047659  1
  Mn  Mn116  1  0.49964671  0.83360815  0.50033860  1
  Mn  Mn117  1  0.50075967  0.49843448  0.00053396  1
  Mn  Mn118  1  0.49975772  0.66642627  -0.00006149  1
  Mn  Mn119  1  0.24987095  -0.00010149  0.12486907  1
  Mn  Mn120  1  0.49900525  0.66506827  0.24971576  1
  Mn  Mn121  1  0.50026339  0.00112705  0.25061820  1
  Mn  Mn122  1  0.50000276  0.49933177  0.50001050  1
  Mn  Mn123  1  0.24885613  0.83340085  0.87479792  1
  Mn  Mn124  1  0.00047589  0.16709287  0.24925424  1
  Mn  Mn125  1  0.24966593  0.66720721  0.37384614  1
  Mn  Mn126  1  -0.00021431  0.66630210  0.49959311  1
  Mn  Mn127  1  0.49981752  0.33199343  0.74934758  1
  Mn  Mn128  1  0.25044037  0.33476808  0.37360947  1
  Mn  Mn129  1  0.49946562  0.83412596  -0.00006184  1
  Mn  Mn130  1  0.24926487  0.66541913  0.87591065  1
  Mn  Mn131  1  0.24985061  0.83300118  0.62489959  1
  Mn  Mn132  1  0.75077075  0.16522545  0.87399551  1
  Mn  Mn133  1  0.75069798  0.66722203  0.62553509  1
  Mn  Mn134  1  0.74978769  0.33305066  0.62474359  1
  Mn  Mn135  1  0.49968228  0.83297882  0.25101558  1
  Mn  Mn136  1  0.74982578  0.50002458  0.62493742  1
  Mn  Mn137  1  0.75130084  0.16499736  0.62441831  1
  Mn  Mn138  1  0.24957233  0.16728536  0.37447266  1
  Mn  Mn139  1  0.24942130  0.50102114  0.62533847  1
  Mn  Mn140  1  0.75019736  0.83326449  0.12610781  1
  Mn  Mn141  1  0.74973858  0.66607501  0.12562717  1
  Mn  Mn142  1  -0.00023232  0.83279936  0.75075472  1
  Mn  Mn143  1  0.24956853  0.16734448  0.62548944  1
  Fe  Fe144  1  0.24994392  0.16700907  0.87571387  1
  Fe  Fe145  1  0.00006154  -0.00047004  0.75047571  1
  Fe  Fe146  1  0.74978320  0.50048122  0.37542992  1
  Fe  Fe147  1  0.49879235  0.83454426  0.74940882  1
  Fe  Fe148  1  0.24976898  0.66672515  0.62475944  1
  Fe  Fe149  1  -0.00034495  -0.00013243  0.24893733  1
  Fe  Fe150  1  0.00066670  0.33444184  0.50007668  1
  Fe  Fe151  1  0.24968327  0.33369804  0.12399522  1
  Fe  Fe152  1  0.74974942  0.83311080  0.87534590  1
  Fe  Fe153  1  0.49971050  0.00075491  0.50084475  1
  Fe  Fe154  1  -0.00027426  0.83384128  0.24907435  1
  Fe  Fe155  1  0.74978559  0.66654113  0.37586672  1
  Fe  Fe156  1  0.25024286  0.00015875  0.87540426  1
  Fe  Fe157  1  0.25045390  0.49952213  0.12416693  1
  Fe  Fe158  1  -0.00028586  0.66747547  0.25027195  1
  Fe  Fe159  1  0.49991840  0.16730502  -0.00018308  1
  Fe  Fe160  1  0.00006363  0.33390428  -0.00003703  1
  Fe  Fe161  1  -0.00027714  0.83309246  0.00041525  1
  Fe  Fe162  1  0.24947456  0.16688973  0.12433620  1
  Fe  Fe163  1  -0.00025746  0.50015345  0.74997560  1
  Fe  Fe164  1  0.74990164  0.83319919  0.62573230  1
  Fe  Fe165  1  0.50017260  0.16689186  0.74953442  1
  Fe  Fe166  1  0.75085621  0.50055329  0.12571478  1
  Fe  Fe167  1  0.50009840  0.16656112  0.49992691  1
  Fe  Fe168  1  0.00013777  0.16640267  0.00020703  1
  Fe  Fe169  1  0.00095078  0.33407007  0.24977652  1
  Fe  Fe170  1  0.75009202  -0.00046412  0.37567274  1
  Fe  Fe171  1  0.75019741  -0.00142982  0.62589379  1
  Fe  Fe172  1  -0.00020324  0.83292413  0.49957809  1
  Fe  Fe173  1  0.25003213  0.33350026  0.87600415  1
  Fe  Fe174  1  0.00046495  0.50044387  0.24971678  1
  Fe  Fe175  1  0.25029941  0.49946884  0.87474075  1
  Fe  Fe176  1  0.75013763  0.49999582  0.87525990  1
  Fe  Fe177  1  0.74976118  -0.00114920  0.87506327  1
  Fe  Fe178  1  0.49964631  0.66652083  0.50035121  1
  Fe  Fe179  1  0.50050788  0.33224713  0.24988262  1
  Fe  Fe180  1  0.49919844  0.00106969  0.75010064  1
  Fe  Fe181  1  0.50055650  0.49846770  0.25061713  1
  Fe  Fe182  1  0.49997541  0.33270655  0.00060807  1
  Fe  Fe183  1  0.24986424  0.83352959  0.12444571  1
  Fe  Fe184  1  0.49977206  0.33240973  0.49919559  1
  Fe  Fe185  1  0.49991126  0.16707321  0.25042017  1
  Fe  Fe186  1  0.24992564  0.83365287  0.37479993  1
  Fe  Fe187  1  0.00011776  0.66687846  0.00051887  1
  Fe  Fe188  1  -0.00035360  0.66635594  0.75016027  1
  Fe  Fe189  1  0.00046147  -0.00035083  -0.00006267  1
  Fe  Fe190  1  0.00103902  0.50018400  0.49941587  1
  Fe  Fe191  1  0.24964369  0.50064663  0.37400070  1
  P  P192  1  0.04153274  0.25056089  0.10137436  1
  P  P193  1  0.04282732  0.25222455  0.35209679  1
  P  P194  1  0.04262215  0.25132200  0.60222636  1
  P  P195  1  0.04245183  0.25004121  0.85441159  1
  P  P196  1  0.04181752  0.58526424  0.10349307  1
  P  P197  1  0.04143552  0.58382282  0.35128802  1
  P  P198  1  0.04207855  0.58199628  0.60263331  1
  P  P199  1  0.04119294  0.58353263  0.85202168  1
  P  P200  1  0.04104781  0.91657006  0.10200235  1
  P  P201  1  0.04102083  0.91678773  0.35091644  1
  P  P202  1  0.04185125  0.91461742  0.60242562  1
  P  P203  1  0.04190525  0.91775095  0.85351314  1
  P  P204  1  0.54170198  0.24986058  0.10233556  1
  P  P205  1  0.54190143  0.24963742  0.35226979  1
  P  P206  1  0.54180634  0.24942369  0.60124216  1
  P  P207  1  0.54230367  0.24816178  0.85277344  1
  P  P208  1  0.54272549  0.58230543  0.10380959  1
  P  P209  1  0.54169899  0.58126821  0.35305356  1
  P  P210  1  0.54228770  0.58477669  0.60247761  1
  P  P211  1  0.54294423  0.58269280  0.85331628  1
  P  P212  1  0.54283670  0.91735957  0.10357151  1
  P  P213  1  0.54229810  0.91717796  0.35444750  1
  P  P214  1  0.54140530  0.91867629  0.60353708  1
  P  P215  1  0.54071227  0.91728099  0.85126059  1
  P  P216  1  0.45770392  0.08576365  0.14753742  1
  P  P217  1  0.45836099  0.08386272  0.39843172  1
  P  P218  1  0.45827563  0.08416138  0.64790464  1
  P  P219  1  0.45787206  0.08504179  0.89705498  1
  P  P220  1  0.45909564  0.41538018  0.14841479  1
  P  P221  1  0.45810597  0.41449214  0.39657486  1
  P  P222  1  0.45683847  0.41595874  0.64610506  1
  P  P223  1  0.45780117  0.41437644  0.89783411  1
  P  P224  1  0.45651146  0.74984541  0.14705550  1
  P  P225  1  0.45731959  0.74820926  0.39792134  1
  P  P226  1  0.45741472  0.75158185  0.64731632  1
  P  P227  1  0.45689112  0.75077166  0.89632698  1
  P  P228  1  0.95836366  0.08218295  0.14618195  1
  P  P229  1  0.95738747  0.08347780  0.39587063  1
  P  P230  1  0.95804554  0.08158841  0.64772449  1
  P  P231  1  0.95932418  0.08265848  0.89840337  1
  P  P232  1  0.95941467  0.41664859  0.14819152  1
  P  P233  1  0.95947117  0.41729799  0.39745885  1
  P  P234  1  0.95835641  0.41814431  0.64680279  1
  P  P235  1  0.95811439  0.41637786  0.89754854  1
  P  P236  1  0.95834134  0.75010559  0.14792480  1
  P  P237  1  0.95796880  0.75118219  0.39665544  1
  P  P238  1  0.95756492  0.74840748  0.64776268  1
  P  P239  1  0.95863564  0.74946376  0.89859139  1
  P  P240  1  0.20710286  0.08467945  0.22651873  1
  P  P241  1  0.20635044  0.08375886  0.47779762  1
  P  P242  1  0.20742952  0.08377426  0.72949301  1
  P  P243  1  0.20907516  0.08354146  0.97707886  1
  P  P244  1  0.20874633  0.41737458  0.22578435  1
  P  P245  1  0.20759429  0.41888555  0.47654976  1
  P  P246  1  0.20735041  0.41672043  0.72917980  1
  P  P247  1  0.20877018  0.41685976  0.97723968  1
  P  P248  1  0.20777361  0.75166249  0.22717030  1
  P  P249  1  0.20725448  0.75115874  0.47699986  1
  P  P250  1  0.20708330  0.74846551  0.72736527  1
  P  P251  1  0.20678919  0.74999372  0.97873093  1
  P  P252  1  0.70723912  0.08285779  0.22871540  1
  P  P253  1  0.70841279  0.08115537  0.47817561  1
  P  P254  1  0.70828434  0.08092186  0.72769069  1
  P  P255  1  0.70747698  0.08168914  0.97677612  1
  P  P256  1  0.70858029  0.41852301  0.22779623  1
  P  P257  1  0.70763122  0.41765109  0.47701538  1
  P  P258  1  0.70693616  0.41666444  0.72848775  1
  P  P259  1  0.70836938  0.41829589  0.97790090  1
  P  P260  1  0.70722130  0.74940159  0.22953108  1
  P  P261  1  0.70782418  0.74919637  0.47842080  1
  P  P262  1  0.70796939  0.75155276  0.72853206  1
  P  P263  1  0.70757601  0.75082777  0.97777634  1
  P  P264  1  0.29065264  0.24994778  0.02263823  1
  P  P265  1  0.29224729  0.25039054  0.27016691  1
  P  P266  1  0.29255924  0.25080945  0.52164456  1
  P  P267  1  0.29133360  0.25058618  0.77442306  1
  P  P268  1  0.29236799  0.58132628  0.02201261  1
  P  P269  1  0.29204482  0.58204698  0.27150347  1
  P  P270  1  0.29187241  0.58502895  0.52192027  1
  P  P271  1  0.29206467  0.58242559  0.77242218  1
  P  P272  1  0.29197949  0.91604923  0.02191905  1
  P  P273  1  0.29199584  0.91543164  0.27194687  1
  P  P274  1  0.29247939  0.91660266  0.52144792  1
  P  P275  1  0.29174350  0.91787028  0.77265922  1
  P  P276  1  0.79314612  0.24965439  0.02141315  1
  P  P277  1  0.79354433  0.25021185  0.27133760  1
  P  P278  1  0.79334236  0.24972287  0.52144135  1
  P  P279  1  0.79364969  0.24942432  0.77151851  1
  P  P280  1  0.79296785  0.58205671  0.02275681  1
  P  P281  1  0.79150525  0.58334219  0.27387340  1
  P  P282  1  0.79267374  0.58359208  0.52126172  1
  P  P283  1  0.79271395  0.58220578  0.77309020  1
  P  P284  1  0.79258349  0.91598873  0.02132433  1
  P  P285  1  0.79268007  0.91776198  0.27328763  1
  P  P286  1  0.79181742  0.91612454  0.52392076  1
  P  P287  1  0.79146221  0.91598951  0.77333109  1
  O  O288  1  0.03686383  0.25067373  0.18138138  1
  O  O289  1  0.03740053  0.25253438  0.43201978  1
  O  O290  1  0.03736835  0.25077756  0.68220635  1
  O  O291  1  0.03687952  0.25015854  0.93425556  1
  O  O292  1  0.03633755  0.58515713  0.18331931  1
  O  O293  1  0.03682822  0.58293726  0.43126323  1
  O  O294  1  0.03672218  0.58209936  0.68246600  1
  O  O295  1  0.03620849  0.58406368  0.93200068  1
  O  O296  1  0.03592408  0.91663229  0.18187853  1
  O  O297  1  0.03629586  0.91595358  0.43088788  1
  O  O298  1  0.03672403  0.91498323  0.68234852  1
  O  O299  1  0.03664991  0.91766398  0.93336764  1
  O  O300  1  0.53656496  0.24973979  0.18222405  1
  O  O301  1  0.53668351  0.24985832  0.43211995  1
  O  O302  1  0.53671466  0.24900338  0.68119459  1
  O  O303  1  0.53728339  0.24844738  0.93265290  1
  O  O304  1  0.53724052  0.58145952  0.18374670  1
  O  O305  1  0.53647209  0.58202563  0.43297091  1
  O  O306  1  0.53714483  0.58461434  0.68243929  1
  O  O307  1  0.53785914  0.58252190  0.93331473  1
  O  O308  1  0.53777850  0.91729017  0.18355657  1
  O  O309  1  0.53685717  0.91768612  0.43438157  1
  O  O310  1  0.53560971  0.91849657  0.68336256  1
  O  O311  1  0.53646090  0.91751379  0.93130458  1
  O  O312  1  0.46290771  0.08590031  0.06759031  1
  O  O313  1  0.46363283  0.08443453  0.31850389  1
  O  O314  1  0.46304841  0.08364057  0.56799394  1
  O  O315  1  0.46291415  0.08484873  0.81717130  1
  O  O316  1  0.46411574  0.41500738  0.06846221  1
  O  O317  1  0.46396707  0.41483478  0.31671807  1
  O  O318  1  0.46214067  0.41561242  0.56616095  1
  O  O319  1  0.46246301  0.41461032  0.81786203  1
  O  O320  1  0.46161544  0.75005061  0.06706720  1
  O  O321  1  0.46244928  0.74828883  0.31797554  1
  O  O322  1  0.46286171  0.75075153  0.56739257  1
  O  O323  1  0.46223215  0.75147557  0.81636288  1
  O  O324  1  0.96410512  0.08219221  0.06631782  1
  O  O325  1  0.96278031  0.08331368  0.31592466  1
  O  O326  1  0.96297347  0.08168180  0.56775625  1
  O  O327  1  0.96417765  0.08251799  0.81842166  1
  O  O328  1  0.96409352  0.41664565  0.06820864  1
  O  O329  1  0.96467408  0.41728829  0.31754660  1
  O  O330  1  0.96396140  0.41804446  0.56694166  1
  O  O331  1  0.96324106  0.41716593  0.81764240  1
  O  O332  1  0.96333735  0.75006130  0.06803054  1
  O  O333  1  0.96318653  0.75099299  0.31679824  1
  O  O334  1  0.96251893  0.74906008  0.56785187  1
  O  O335  1  0.96346532  0.74929740  0.81863632  1
  O  O336  1  0.21378073  0.08397477  0.05707169  1
  O  O337  1  0.21186435  0.08421582  0.30651764  1
  O  O338  1  0.21130681  0.08371520  0.55784495  1
  O  O339  1  0.21297626  0.08343488  0.80942981  1
  O  O340  1  0.21389617  0.41692791  0.05717229  1
  O  O341  1  0.21331193  0.41764848  0.30577229  1
  O  O342  1  0.21242254  0.41861568  0.55653149  1
  O  O343  1  0.21286000  0.41656489  0.80908846  1
  O  O344  1  0.21237612  0.75050062  0.05862853  1
  O  O345  1  0.21313690  0.75175956  0.30713690  1
  O  O346  1  0.21246047  0.75027462  0.55695016  1
  O  O347  1  0.21198712  0.74863828  0.80736032  1
  O  O348  1  0.71213820  0.08221419  0.05680773  1
  O  O349  1  0.71266357  0.08248762  0.30867034  1
  O  O350  1  0.71387648  0.08094343  0.55812627  1
  O  O351  1  0.71333495  0.08077701  0.80764673  1
  O  O352  1  0.71393750  0.41849030  0.05785717  1
  O  O353  1  0.71365264  0.41845150  0.30775269  1
  O  O354  1  0.71232927  0.41716245  0.55702093  1
  O  O355  1  0.71215735  0.41700379  0.80847824  1
  O  O356  1  0.71250820  0.75044643  0.05780588  1
  O  O357  1  0.71243553  0.74885580  0.30950050  1
  O  O358  1  0.71308585  0.74978707  0.55839753  1
  O  O359  1  0.71316015  0.75157096  0.80852195  1
  O  O360  1  0.28678778  0.25006959  0.19026760  1
  O  O361  1  0.28760385  0.25085508  0.44166073  1
  O  O362  1  0.28665562  0.25037595  0.69442255  1
  O  O363  1  0.28561403  0.25034312  0.94273400  1
  O  O364  1  0.28699143  0.58192718  0.19155026  1
  O  O365  1  0.28676654  0.58467038  0.44195629  1
  O  O366  1  0.28683742  0.58365556  0.69244628  1
  O  O367  1  0.28693794  0.58101458  0.94208141  1
  O  O368  1  0.28678096  0.91541407  0.19194258  1
  O  O369  1  0.28743542  0.91626226  0.44143356  1
  O  O370  1  0.28668078  0.91765037  0.69267456  1
  O  O371  1  0.28655402  0.91695512  0.94198193  1
  O  O372  1  0.78830551  0.25036336  0.19135548  1
  O  O373  1  0.78829460  0.24980080  0.44142020  1
  O  O374  1  0.78857387  0.24938417  0.69151392  1
  O  O375  1  0.78831348  0.24972342  0.94141278  1
  O  O376  1  0.78671793  0.58302694  0.19382333  1
  O  O377  1  0.78716139  0.58364395  0.44132489  1
  O  O378  1  0.78765724  0.58291941  0.69313103  1
  O  O379  1  0.78778410  0.58203825  0.94280430  1
  O  O380  1  0.78769042  0.91726824  0.19332778  1
  O  O381  1  0.78665419  0.91674523  0.44397180  1
  O  O382  1  0.78640509  0.91591754  0.69336536  1
  O  O383  1  0.78740912  0.91571693  0.94136667  1
  O  O384  1  0.22664916  0.24972044  0.05885948  1
  O  O385  1  0.22807070  0.25093482  0.30591497  1
  O  O386  1  0.22807429  0.25070677  0.55652311  1
  O  O387  1  0.22719520  0.25110283  0.81013063  1
  O  O388  1  0.22814641  0.58147456  0.05773374  1
  O  O389  1  0.22769118  0.58234058  0.30695813  1
  O  O390  1  0.22757851  0.58530873  0.55756776  1
  O  O391  1  0.22776363  0.58135574  0.80800510  1
  O  O392  1  0.22773081  0.91568335  0.05765294  1
  O  O393  1  0.22765662  0.91516195  0.30750005  1
  O  O394  1  0.22807980  0.91665404  0.55650526  1
  O  O395  1  0.22743563  0.91843824  0.80808786  1
  O  O396  1  0.72866678  0.25035832  0.05621429  1
  O  O397  1  0.72917863  0.25008139  0.30639351  1
  O  O398  1  0.72889142  0.24902575  0.55633727  1
  O  O399  1  0.72918724  0.24941278  0.80634153  1
  O  O400  1  0.72862152  0.58156585  0.05829549  1
  O  O401  1  0.72732343  0.58332288  0.30972448  1
  O  O402  1  0.72848705  0.58410122  0.55696009  1
  O  O403  1  0.72837220  0.58201737  0.80851901  1
  O  O404  1  0.72827693  0.91589608  0.05672833  1
  O  O405  1  0.72832523  0.91789228  0.30867640  1
  O  O406  1  0.72766008  0.91594113  0.56000173  1
  O  O407  1  0.72729316  0.91614305  0.80941338  1
  O  O408  1  0.27154748  0.08477729  0.19146610  1
  O  O409  1  0.27087092  0.08341992  0.44306840  1
  O  O410  1  0.27162121  0.08385248  0.69369574  1
  O  O411  1  0.27313060  0.08301555  0.94117924  1
  O  O412  1  0.27301371  0.41723292  0.19027009  1
  O  O413  1  0.27201303  0.41920741  0.44127886  1
  O  O414  1  0.27150246  0.41711535  0.69332445  1
  O  O415  1  0.27281059  0.41684779  0.94095918  1
  O  O416  1  0.27193852  0.75161869  0.19131100  1
  O  O417  1  0.27152564  0.75152826  0.44128711  1
  O  O418  1  0.27146094  0.74826554  0.69203668  1
  O  O419  1  0.27095222  0.74982944  0.94312175  1
  O  O420  1  0.77154465  0.08318315  0.19333519  1
  O  O421  1  0.77260887  0.08096829  0.44233164  1
  O  O422  1  0.77263957  0.08059531  0.69229064  1
  O  O423  1  0.77197325  0.08084278  0.94178641  1
  O  O424  1  0.77290770  0.41876023  0.19224661  1
  O  O425  1  0.77212189  0.41840797  0.44201296  1
  O  O426  1  0.77135083  0.41640173  0.69342120  1
  O  O427  1  0.77256209  0.41839719  0.94202779  1
  O  O428  1  0.77158031  0.74940655  0.19427698  1
  O  O429  1  0.77199618  0.74887392  0.44262404  1
  O  O430  1  0.77224929  0.75177887  0.69291874  1
  O  O431  1  0.77197446  0.75099197  0.94258266  1
  O  O432  1  0.02234752  0.08187660  0.18274855  1
  O  O433  1  0.02160533  0.08334953  0.43154001  1
  O  O434  1  0.02237219  0.08126719  0.68335305  1
  O  O435  1  0.02341690  0.08251606  0.93445870  1
  O  O436  1  0.02366790  0.41645935  0.18390561  1
  O  O437  1  0.02348151  0.41700963  0.43407124  1
  O  O438  1  0.02239999  0.41881756  0.68328555  1
  O  O439  1  0.02233823  0.41590435  0.93346502  1
  O  O440  1  0.02235565  0.74941873  0.18432369  1
  O  O441  1  0.02207436  0.75129502  0.43293096  1
  O  O442  1  0.02183049  0.74821620  0.68357353  1
  O  O443  1  0.02272402  0.74909656  0.93472739  1
  O  O444  1  0.52197319  0.08575891  0.18332425  1
  O  O445  1  0.52243190  0.08348236  0.43481551  1
  O  O446  1  0.52239321  0.08457947  0.68410014  1
  O  O447  1  0.52211246  0.08565469  0.93304134  1
  O  O448  1  0.52318960  0.41567452  0.18463215  1
  O  O449  1  0.52208926  0.41441151  0.43319764  1
  O  O450  1  0.52121549  0.41601301  0.68149232  1
  O  O451  1  0.52225182  0.41389520  0.93308719  1
  O  O452  1  0.52093177  0.74938286  0.18216824  1
  O  O453  1  0.52162365  0.74837426  0.43355242  1
  O  O454  1  0.52163039  0.75262804  0.68326875  1
  O  O455  1  0.52126663  0.75054947  0.93166542  1
  O  O456  1  0.47757940  0.24988522  0.06586234  1
  O  O457  1  0.47786059  0.24970248  0.31569361  1
  O  O458  1  0.47761105  0.24969949  0.56516543  1
  O  O459  1  0.47799486  0.24780710  0.81686509  1
  O  O460  1  0.47845337  0.58230811  0.06823098  1
  O  O461  1  0.47751828  0.58026850  0.31709487  1
  O  O462  1  0.47793396  0.58442250  0.56695319  1
  O  O463  1  0.47851021  0.58330385  0.81821407  1
  O  O464  1  0.47838074  0.91772878  0.06850209  1
  O  O465  1  0.47807207  0.91730343  0.31874429  1
  O  O466  1  0.47744586  0.91859305  0.56687330  1
  O  O467  1  0.47640940  0.91684418  0.81578546  1
  O  O468  1  0.97740484  0.25094892  0.06540558  1
  O  O469  1  0.97865562  0.25224026  0.31604510  1
  O  O470  1  0.97840958  0.25204009  0.56631172  1
  O  O471  1  0.97848145  0.24994809  0.81805829  1
  O  O472  1  0.97772601  0.58537633  0.06721938  1
  O  O473  1  0.97724039  0.58438228  0.31547094  1
  O  O474  1  0.97801729  0.58152593  0.56623024  1
  O  O475  1  0.97710293  0.58340290  0.81575190  1
  O  O476  1  0.97711680  0.91715189  0.06550882  1
  O  O477  1  0.97684003  0.91760083  0.31504240  1
  O  O478  1  0.97756044  0.91443782  0.56658165  1
  O  O479  1  0.97775663  0.91771264  0.81730936  1
  O  O480  1  0.07288050  0.31385660  0.07308872  1
  O  O481  1  0.07398221  0.31536507  0.32318572  1
  O  O482  1  0.07371272  0.31485716  0.57432278  1
  O  O483  1  0.07372301  0.31342353  0.82610192  1
  O  O484  1  0.07295646  0.64842312  0.07458825  1
  O  O485  1  0.07250184  0.64756574  0.32369062  1
  O  O486  1  0.07283222  0.64579856  0.57436713  1
  O  O487  1  0.07207242  0.64705016  0.82341404  1
  O  O488  1  0.07285844  0.97965770  0.07370305  1
  O  O489  1  0.07225422  0.98040764  0.32310922  1
  O  O490  1  0.07315802  0.97802104  0.57428836  1
  O  O491  1  0.07267277  0.98110926  0.82441163  1
  O  O492  1  0.57248829  0.31364279  0.07400866  1
  O  O493  1  0.57300800  0.31301429  0.32348942  1
  O  O494  1  0.57259331  0.31318098  0.57319026  1
  O  O495  1  0.57324466  0.31177973  0.82441935  1
  O  O496  1  0.57356467  0.64617588  0.07616050  1
  O  O497  1  0.57248599  0.64493541  0.32489673  1
  O  O498  1  0.57261827  0.64864541  0.57416916  1
  O  O499  1  0.57437312  0.64611211  0.82556616  1
  O  O500  1  0.57386959  0.98086935  0.07539000  1
  O  O501  1  0.57380012  0.98022573  0.32593727  1
  O  O502  1  0.57225692  0.98214793  0.57488862  1
  O  O503  1  0.57085852  0.98132622  0.82288132  1
  O  O504  1  0.42677721  0.02186958  0.17519459  1
  O  O505  1  0.42743735  0.02006812  0.42621868  1
  O  O506  1  0.42773315  0.02053409  0.67709115  1
  O  O507  1  0.42719301  0.02125031  0.92542176  1
  O  O508  1  0.42819169  0.35180516  0.17668986  1
  O  O509  1  0.42714089  0.35097592  0.42492648  1
  O  O510  1  0.42560962  0.35273506  0.67463047  1
  O  O511  1  0.42701085  0.35100120  0.92665904  1
  O  O512  1  0.42517432  0.68634799  0.17477160  1
  O  O513  1  0.42678846  0.68448767  0.42626214  1
  O  O514  1  0.42664386  0.68796240  0.67562057  1
  O  O515  1  0.42602395  0.68690777  0.92403624  1
  O  O516  1  0.92708933  0.01893477  0.17478753  1
  O  O517  1  0.92595157  0.02031768  0.42425179  1
  O  O518  1  0.92735722  0.01807881  0.67643653  1
  O  O519  1  0.92787742  0.01942881  0.92660986  1
  O  O520  1  0.92808603  0.35340932  0.17651743  1
  O  O521  1  0.92830909  0.35384546  0.42594405  1
  O  O522  1  0.92754644  0.35428691  0.67476626  1
  O  O523  1  0.92723925  0.35274373  0.92569398  1
  O  O524  1  0.92669435  0.68709349  0.17665814  1
  O  O525  1  0.92684613  0.68761980  0.42483553  1
  O  O526  1  0.92699640  0.68463648  0.67609128  1
  O  O527  1  0.92719612  0.68627599  0.92696101  1
  O  O528  1  0.17616280  0.02102127  0.19854434  1
  O  O529  1  0.17518896  0.02036660  0.44953130  1
  O  O530  1  0.17605224  0.02061353  0.70082855  1
  O  O531  1  0.17792604  0.01991991  0.94922133  1
  O  O532  1  0.17834170  0.35346494  0.19725725  1
  O  O533  1  0.17680368  0.35524971  0.44842214  1
  O  O534  1  0.17638766  0.35321814  0.70067610  1
  O  O535  1  0.17788033  0.35313148  0.94911310  1
  O  O536  1  0.17691506  0.68762808  0.19990356  1
  O  O537  1  0.17602650  0.68784656  0.44852156  1
  O  O538  1  0.17650223  0.68494318  0.69874660  1
  O  O539  1  0.17578857  0.68620792  0.95114093  1
  O  O540  1  0.67601845  0.01961509  0.20034009  1
  O  O541  1  0.67727162  0.01791366  0.44964993  1
  O  O542  1  0.67708344  0.01778169  0.69900253  1
  O  O543  1  0.67643488  0.01826057  0.94850151  1
  O  O544  1  0.67783128  0.35464786  0.19983614  1
  O  O545  1  0.67709555  0.35385050  0.44885069  1
  O  O546  1  0.67589866  0.35307636  0.70033096  1
  O  O547  1  0.67747270  0.35433235  0.95047667  1
  O  O548  1  0.67588330  0.68636259  0.20070113  1
  O  O549  1  0.67707371  0.68562425  0.44997002  1
  O  O550  1  0.67718423  0.68766348  0.70082999  1
  O  O551  1  0.67662395  0.68710414  0.94999208  1
  O  O552  1  0.32122720  0.31375865  0.05127918  1
  O  O553  1  0.32371288  0.31371412  0.29831834  1
  O  O554  1  0.32336612  0.31437305  0.54986343  1
  O  O555  1  0.32266967  0.31394157  0.80247533  1
  O  O556  1  0.32341100  0.64512042  0.04953175  1
  O  O557  1  0.32317001  0.64570848  0.29922964  1
  O  O558  1  0.32238403  0.64868616  0.55060112  1
  O  O559  1  0.32291095  0.64585027  0.80108562  1
  O  O560  1  0.32324408  0.97941284  0.05025900  1
  O  O561  1  0.32264475  0.97953000  0.29950198  1
  O  O562  1  0.32342575  0.98021661  0.54957773  1
  O  O563  1  0.32285585  0.98117834  0.80110940  1
  O  O564  1  0.82461718  0.31288974  0.04955968  1
  O  O565  1  0.82454322  0.31379096  0.29933439  1
  O  O566  1  0.82384454  0.31349990  0.54955669  1
  O  O567  1  0.82473426  0.31282127  0.79972140  1
  O  O568  1  0.82333481  0.64615429  0.05067299  1
  O  O569  1  0.82202525  0.64727580  0.30190301  1
  O  O570  1  0.82430434  0.64668776  0.54972363  1
  O  O571  1  0.82359615  0.64585106  0.80118051  1
  O  O572  1  0.82354963  0.97957577  0.04953329  1
  O  O573  1  0.82330871  0.98134476  0.30156567  1
  O  O574  1  0.82292471  0.97940566  0.55257000  1
  O  O575  1  0.82242559  0.97954926  0.80177382  1
  O  O576  1  0.42673257  0.14890593  0.17640732  1
  O  O577  1  0.42748640  0.14740872  0.42680156  1
  O  O578  1  0.42708863  0.14765490  0.67602495  1
  O  O579  1  0.42664574  0.14809997  0.92599317  1
  O  O580  1  0.42823745  0.47912624  0.17633794  1
  O  O581  1  0.42671440  0.47791441  0.42453493  1
  O  O582  1  0.42603620  0.47970728  0.67401556  1
  O  O583  1  0.42709725  0.47811281  0.92578417  1
  O  O584  1  0.42588019  0.81341788  0.17544294  1
  O  O585  1  0.42618865  0.81183892  0.42544278  1
  O  O586  1  0.42618782  0.81512701  0.67506355  1
  O  O587  1  0.42557620  0.81387541  0.92490290  1
  O  O588  1  0.92733108  0.14595620  0.17379550  1
  O  O589  1  0.92660846  0.14721140  0.42383411  1
  O  O590  1  0.92725210  0.14540186  0.67537015  1
  O  O591  1  0.92897995  0.14671911  0.92661766  1
  O  O592  1  0.92924380  0.48075152  0.17658614  1
  O  O593  1  0.92874577  0.48105845  0.42568577  1
  O  O594  1  0.92692430  0.48116030  0.67564312  1
  O  O595  1  0.92717744  0.47978400  0.92606486  1
  O  O596  1  0.92819795  0.81423189  0.17631783  1
  O  O597  1  0.92712132  0.81456601  0.42547822  1
  O  O598  1  0.92639450  0.81165393  0.67632482  1
  O  O599  1  0.92858091  0.81367601  0.92674220  1
  O  O600  1  0.07162131  0.18635322  0.07320685  1
  O  O601  1  0.07366792  0.18832844  0.32453991  1
  O  O602  1  0.07319373  0.18746227  0.57435308  1
  O  O603  1  0.07377266  0.18666081  0.82627801  1
  O  O604  1  0.07284358  0.52156109  0.07548863  1
  O  O605  1  0.07191141  0.52024999  0.32219099  1
  O  O606  1  0.07346225  0.51901071  0.57366313  1
  O  O607  1  0.07188946  0.51964080  0.82428810  1
  O  O608  1  0.07120553  0.85250824  0.07351219  1
  O  O609  1  0.07130094  0.85307944  0.32191583  1
  O  O610  1  0.07232154  0.85090180  0.57390555  1
  O  O611  1  0.07314267  0.85416786  0.82566543  1
  O  O612  1  0.57270189  0.18651785  0.07364122  1
  O  O613  1  0.57269791  0.18593321  0.32407052  1
  O  O614  1  0.57267814  0.18583735  0.57295351  1
  O  O615  1  0.57331595  0.18499005  0.82370216  1
  O  O616  1  0.57420872  0.51926732  0.07533160  1
  O  O617  1  0.57287053  0.51780299  0.32503085  1
  O  O618  1  0.57366492  0.52132205  0.57484218  1
  O  O619  1  0.57342503  0.51901669  0.82502625  1
  O  O620  1  0.57367775  0.85385989  0.07535996  1
  O  O621  1  0.57304872  0.85322030  0.32693495  1
  O  O622  1  0.57287738  0.85519520  0.57584288  1
  O  O623  1  0.57171779  0.85383034  0.82307251  1
  O  O624  1  0.32187380  0.18647160  0.05083310  1
  O  O625  1  0.32319305  0.18699194  0.29898381  1
  O  O626  1  0.32346784  0.18734451  0.55008971  1
  O  O627  1  0.32149395  0.18656178  0.80295638  1
  O  O628  1  0.32340802  0.51804947  0.05073039  1
  O  O629  1  0.32262172  0.51862125  0.30052232  1
  O  O630  1  0.32313056  0.52162620  0.55008029  1
  O  O631  1  0.32317551  0.51878517  0.80029051  1
  O  O632  1  0.32271831  0.85234057  0.05003643  1
  O  O633  1  0.32314580  0.85234538  0.30084382  1
  O  O634  1  0.32366531  0.85338287  0.55010521  1
  O  O635  1  0.32231948  0.85385691  0.80021748  1
  O  O636  1  0.82356137  0.18581359  0.04952109  1
  O  O637  1  0.82476727  0.18681987  0.29937799  1
  O  O638  1  0.82483636  0.18640069  0.54938753  1
  O  O639  1  0.82461945  0.18579901  0.79952017  1
  O  O640  1  0.82432639  0.51910401  0.05175948  1
  O  O641  1  0.82255878  0.51986613  0.30226666  1
  O  O642  1  0.82353142  0.51996767  0.54959344  1
  O  O643  1  0.82337015  0.51855377  0.80122898  1
  O  O644  1  0.82388612  0.85285992  0.05030170  1
  O  O645  1  0.82358017  0.85410404  0.30134939  1
  O  O646  1  0.82236607  0.85209630  0.55177447  1
  O  O647  1  0.82229265  0.85236279  0.80192400  1
  O  O648  1  0.17641938  0.14820572  0.19796242  1
  O  O649  1  0.17558058  0.14732578  0.44952571  1
  O  O650  1  0.17629728  0.14735599  0.70132043  1
  O  O651  1  0.17862051  0.14739432  0.94855903  1
  O  O652  1  0.17763212  0.48070101  0.19718458  1
  O  O653  1  0.17696633  0.48246155  0.44788498  1
  O  O654  1  0.17590026  0.47992556  0.70074482  1
  O  O655  1  0.17771304  0.48034099  0.94871083  1
  O  O656  1  0.17671408  0.81486057  0.19834528  1
  O  O657  1  0.17659470  0.81486175  0.44870116  1
  O  O658  1  0.17621110  0.81229869  0.69969160  1
  O  O659  1  0.17542123  0.81308683  0.95007754  1
  O  O660  1  0.67626132  0.14652181  0.20057151  1
  O  O661  1  0.67760958  0.14506741  0.45045621  1
  O  O662  1  0.67768027  0.14487624  0.69974096  1
  O  O663  1  0.67704348  0.14554988  0.94860903  1
  O  O664  1  0.67752176  0.48176419  0.19918740  1
  O  O665  1  0.67664284  0.48113529  0.44877732  1
  O  O666  1  0.67583859  0.47998286  0.69993921  1
  O  O667  1  0.67727320  0.48150657  0.94916361  1
  O  O668  1  0.67641280  0.81324990  0.20174702  1
  O  O669  1  0.67654313  0.81268869  0.45050066  1
  O  O670  1  0.67689479  0.81472074  0.69961492  1
  O  O671  1  0.67674577  0.81425243  0.94916096  1
