# generated using pymatgen
data_Na2MnFe(PO4)2
_symmetry_space_group_name_H-M   'P 1'
_cell_length_a   22.34362194
_cell_length_b   20.10049512
_cell_length_c   19.44860185
_cell_angle_alpha   89.97479499
_cell_angle_beta   90.00599769
_cell_angle_gamma   90.04122153
_symmetry_Int_Tables_number   1
_chemical_formula_structural   Na2MnFe(PO4)2
_chemical_formula_sum   'Na96 Mn48 Fe48 P96 O384'
_cell_volume   8734.71136299
_cell_formula_units_Z   48
loop_
 _symmetry_equiv_pos_site_id
 _symmetry_equiv_pos_as_xyz
  1  'x, y, z'
loop_
 _atom_site_type_symbol
 _atom_site_label
 _atom_site_symmetry_multiplicity
 _atom_site_fract_x
 _atom_site_fract_y
 _atom_site_fract_z
 _atom_site_occupancy
  Na  Na0  1  0.14077057  0.25066651  0.24288558  1
  Na  Na1  1  0.14146888  0.24937641  0.49242555  1
  Na  Na2  1  0.14123600  0.24944795  0.74237938  1
  Na  Na3  1  0.14074193  0.24999486  0.99208315  1
  Na  Na4  1  0.14107009  0.58371992  0.24444031  1
  Na  Na5  1  0.14130059  0.58308682  0.49273565  1
  Na  Na6  1  0.14067531  0.58299728  0.74354219  1
  Na  Na7  1  0.14081406  0.58391818  0.99454860  1
  Na  Na8  1  0.13999820  0.91627110  0.24359413  1
  Na  Na9  1  0.14112596  0.91617112  0.49238732  1
  Na  Na10  1  0.14094257  0.91776564  0.74333597  1
  Na  Na11  1  0.14023627  0.91826064  0.99376836  1
  Na  Na12  1  0.63998834  0.24995841  0.24275536  1
  Na  Na13  1  0.64016647  0.24986460  0.49492124  1
  Na  Na14  1  0.64012094  0.24881548  0.74544000  1
  Na  Na15  1  0.63940891  0.24906881  0.99401240  1
  Na  Na16  1  0.63980573  0.58364621  0.24437976  1
  Na  Na17  1  0.63953386  0.58378588  0.49397780  1
  Na  Na18  1  0.63938105  0.58398236  0.74313363  1
  Na  Na19  1  0.64007028  0.58282838  0.99442509  1
  Na  Na20  1  0.63942614  0.91769029  0.24336876  1
  Na  Na21  1  0.63916152  0.91612682  0.49444763  1
  Na  Na22  1  0.63955736  0.91675737  0.74335770  1
  Na  Na23  1  0.63962056  0.91674485  0.99386389  1
  Na  Na24  1  0.35989475  0.08417043  0.00628426  1
  Na  Na25  1  0.35907069  0.08253480  0.25748182  1
  Na  Na26  1  0.35915160  0.08271014  0.50721418  1
  Na  Na27  1  0.35977505  0.08371481  0.75632022  1
  Na  Na28  1  0.35943154  0.41793313  0.00698901  1
  Na  Na29  1  0.35917487  0.41770681  0.25801338  1
  Na  Na30  1  0.35939316  0.41638338  0.50696469  1
  Na  Na31  1  0.35943219  0.41649282  0.75633130  1
  Na  Na32  1  0.35952188  0.75084033  0.00712046  1
  Na  Na33  1  0.35854188  0.74975383  0.25834367  1
  Na  Na34  1  0.35993719  0.75021103  0.50835197  1
  Na  Na35  1  0.35996831  0.75111672  0.75729785  1
  Na  Na36  1  0.85994729  0.08241539  0.00681172  1
  Na  Na37  1  0.86006208  0.08303255  0.25400416  1
  Na  Na38  1  0.86015511  0.08269268  0.50505797  1
  Na  Na39  1  0.86015552  0.08263708  0.75577353  1
  Na  Na40  1  0.85984147  0.41510418  0.00628913  1
  Na  Na41  1  0.85989603  0.41655879  0.25433499  1
  Na  Na42  1  0.85983422  0.41637497  0.50489021  1
  Na  Na43  1  0.85984194  0.41542322  0.75608424  1
  Na  Na44  1  0.85965864  0.74993263  0.00721016  1
  Na  Na45  1  0.85969493  0.75117173  0.25486026  1
  Na  Na46  1  0.86047445  0.75008848  0.50607338  1
  Na  Na47  1  0.85995514  0.75040515  0.75513176  1
  Na  Na48  1  0.11013988  0.08237107  0.11735554  1
  Na  Na49  1  0.11053531  0.08345189  0.36746773  1
  Na  Na50  1  0.11091723  0.08251295  0.61677793  1
  Na  Na51  1  0.11076708  0.08293072  0.86846421  1
  Na  Na52  1  0.11010643  0.41691681  0.11826616  1
  Na  Na53  1  0.11068526  0.41665790  0.36792709  1
  Na  Na54  1  0.11066895  0.41655883  0.61694269  1
  Na  Na55  1  0.11031786  0.41650344  0.86864107  1
  Na  Na56  1  0.10977358  0.75086662  0.11891161  1
  Na  Na57  1  0.11053595  0.75107454  0.36855381  1
  Na  Na58  1  0.11046293  0.75052508  0.61744357  1
  Na  Na59  1  0.10980387  0.75026614  0.87029478  1
  Na  Na60  1  0.60897730  0.08297031  0.11804159  1
  Na  Na61  1  0.60918530  0.08275147  0.36894955  1
  Na  Na62  1  0.60910845  0.08245544  0.61980530  1
  Na  Na63  1  0.60937433  0.08320701  0.86906781  1
  Na  Na64  1  0.60864138  0.41672381  0.11875992  1
  Na  Na65  1  0.60926606  0.41741288  0.36916439  1
  Na  Na66  1  0.60914382  0.41799963  0.61938953  1
  Na  Na67  1  0.60864441  0.41642057  0.86934370  1
  Na  Na68  1  0.60858246  0.75032936  0.11907159  1
  Na  Na69  1  0.60886315  0.75025343  0.36974331  1
  Na  Na70  1  0.60862352  0.75067081  0.61873110  1
  Na  Na71  1  0.60852134  0.75057684  0.86838689  1
  Na  Na72  1  0.39032985  0.25006626  0.13170022  1
  Na  Na73  1  0.38969944  0.25011226  0.38321289  1
  Na  Na74  1  0.38977576  0.25006750  0.63253721  1
  Na  Na75  1  0.39006155  0.24951429  0.88128489  1
  Na  Na76  1  0.38936915  0.58345857  0.13276722  1
  Na  Na77  1  0.38997515  0.58362865  0.38316410  1
  Na  Na78  1  0.39030526  0.58395544  0.63188709  1
  Na  Na79  1  0.38986809  0.58339278  0.88169644  1
  Na  Na80  1  0.38968920  0.91663155  0.13200743  1
  Na  Na81  1  0.38975197  0.91644489  0.38327241  1
  Na  Na82  1  0.38970176  0.91678693  0.63264963  1
  Na  Na83  1  0.39004419  0.91837290  0.88094831  1
  Na  Na84  1  0.89098036  0.24874519  0.12976656  1
  Na  Na85  1  0.89078006  0.24990774  0.37923071  1
  Na  Na86  1  0.89108265  0.24910025  0.63023335  1
  Na  Na87  1  0.89113809  0.24824775  0.88180742  1
  Na  Na88  1  0.89073493  0.58351880  0.13088654  1
  Na  Na89  1  0.89077154  0.58410274  0.38045130  1
  Na  Na90  1  0.89114656  0.58387861  0.63007389  1
  Na  Na91  1  0.89078215  0.58288365  0.88153501  1
  Na  Na92  1  0.89033855  0.91657052  0.13059937  1
  Na  Na93  1  0.89053596  0.91667308  0.37983077  1
  Na  Na94  1  0.89088946  0.91590962  0.63000474  1
  Na  Na95  1  0.89091534  0.91620874  0.88237353  1
  Mn  Mn96  1  0.49974797  0.16589712  0.25118246  1
  Mn  Mn97  1  0.24975425  0.83488526  0.87605200  1
  Mn  Mn98  1  0.75062183  0.00007296  0.87488593  1
  Mn  Mn99  1  0.50009777  0.16583096  0.50102484  1
  Mn  Mn100  1  0.00034853  0.66708518  0.75001433  1
  Mn  Mn101  1  0.74962859  0.66659010  0.87530031  1
  Mn  Mn102  1  0.49971209  0.49993294  0.00009300  1
  Mn  Mn103  1  0.49988963  0.33342125  0.75040885  1
  Mn  Mn104  1  0.25012727  0.33384807  0.87440872  1
  Mn  Mn105  1  0.74958240  -0.00109440  0.62550737  1
  Mn  Mn106  1  0.74983894  0.16625749  0.37426772  1
  Mn  Mn107  1  0.74986324  0.83367720  0.37435417  1
  Mn  Mn108  1  0.24986833  0.66655043  0.87551055  1
  Mn  Mn109  1  0.00106354  0.16635473  0.24839675  1
  Mn  Mn110  1  0.74987597  0.49991271  0.62500810  1
  Mn  Mn111  1  0.00052636  -0.00039771  0.74953145  1
  Mn  Mn112  1  0.49933352  0.66759803  0.00023654  1
  Mn  Mn113  1  0.74978532  0.49934836  0.87468703  1
  Mn  Mn114  1  0.75035640  0.16588254  0.62481394  1
  Mn  Mn115  1  0.49962462  -0.00014649  -0.00022979  1
  Mn  Mn116  1  0.00100408  0.33248082  0.74923769  1
  Mn  Mn117  1  0.25055557  0.33458659  0.12480297  1
  Mn  Mn118  1  0.25021831  0.16650279  0.12488348  1
  Mn  Mn119  1  0.00075025  0.49971967  0.24964883  1
  Mn  Mn120  1  0.74972504  -0.00025782  0.37418219  1
  Mn  Mn121  1  0.74935007  0.33168231  0.87599668  1
  Mn  Mn122  1  0.49963970  0.33402931  0.25117603  1
  Mn  Mn123  1  0.00035012  0.49952225  0.00006675  1
  Mn  Mn124  1  -0.00012035  0.50047604  0.49889803  1
  Mn  Mn125  1  0.75033454  0.66736725  0.62453639  1
  Mn  Mn126  1  0.75015129  0.33247067  0.62543735  1
  Mn  Mn127  1  0.24998833  0.83401600  0.12592292  1
  Mn  Mn128  1  0.75013527  0.66732512  0.37427522  1
  Mn  Mn129  1  0.74964873  0.33300710  0.12454178  1
  Mn  Mn130  1  0.49876989  0.66627840  0.25055158  1
  Mn  Mn131  1  0.00049460  0.83290150  0.75031893  1
  Mn  Mn132  1  0.74987428  0.33350523  0.37399080  1
  Mn  Mn133  1  0.00058014  0.66823044  0.25029105  1
  Mn  Mn134  1  -0.00001390  0.33255986  0.49905353  1
  Mn  Mn135  1  0.50024463  0.33421149  0.50153014  1
  Mn  Mn136  1  0.00070044  0.49989892  0.74981033  1
  Mn  Mn137  1  0.49872103  0.83369355  0.25094205  1
  Mn  Mn138  1  0.00041068  -0.00020522  0.49875759  1
  Mn  Mn139  1  0.74961946  0.83333253  0.87525757  1
  Mn  Mn140  1  0.00088967  0.16566058  0.75001878  1
  Mn  Mn141  1  0.25014926  0.66655357  0.62542292  1
  Mn  Mn142  1  0.74969307  0.66650697  0.12504008  1
  Mn  Mn143  1  0.75011730  0.50033725  0.37485226  1
  Fe  Fe144  1  0.25012286  0.33312765  0.62448535  1
  Fe  Fe145  1  0.00051582  -0.00062621  0.00006143  1
  Fe  Fe146  1  0.74992976  0.49984154  0.12483058  1
  Fe  Fe147  1  0.25020586  0.49942570  0.62434378  1
  Fe  Fe148  1  0.74995481  0.83328813  0.62480794  1
  Fe  Fe149  1  0.00123819  0.16576127  0.00001640  1
  Fe  Fe150  1  0.49944897  0.50059114  0.75033084  1
  Fe  Fe151  1  0.49938105  -0.00047089  0.25020859  1
  Fe  Fe152  1  0.49999928  0.16647666  0.75085540  1
  Fe  Fe153  1  0.49929975  0.66702367  0.74975913  1
  Fe  Fe154  1  0.49949807  0.50025734  0.25063612  1
  Fe  Fe155  1  0.00016438  -0.00030511  0.24896877  1
  Fe  Fe156  1  0.74958056  0.00014389  0.12441926  1
  Fe  Fe157  1  0.74982936  0.16613597  0.12447284  1
  Fe  Fe158  1  0.49874776  0.33306414  0.00023428  1
  Fe  Fe159  1  0.00054624  0.33259362  0.24882724  1
  Fe  Fe160  1  0.00024706  0.83361872  0.00037860  1
  Fe  Fe161  1  0.25014009  0.83328751  0.37535837  1
  Fe  Fe162  1  0.25030319  0.16642538  0.37517666  1
  Fe  Fe163  1  0.49926312  0.83372725  0.50092718  1
  Fe  Fe164  1  0.25021386  0.49984686  0.37534276  1
  Fe  Fe165  1  0.25028413  0.66648291  0.37585862  1
  Fe  Fe166  1  0.00078829  0.83358738  0.49910622  1
  Fe  Fe167  1  0.49957076  0.66700297  0.50109164  1
  Fe  Fe168  1  0.49941480  0.16648643  0.00024849  1
  Fe  Fe169  1  0.49965267  0.50098250  0.50062692  1
  Fe  Fe170  1  0.25059249  0.00099756  0.87415370  1
  Fe  Fe171  1  0.24994946  0.00029778  0.62448809  1
  Fe  Fe172  1  0.49958097  -0.00005778  0.75045450  1
  Fe  Fe173  1  0.25034420  0.16630520  0.62423058  1
  Fe  Fe174  1  0.49925147  -0.00021785  0.50107858  1
  Fe  Fe175  1  0.00105067  0.66749096  0.49953275  1
  Fe  Fe176  1  0.24995925  -0.00037772  0.37582032  1
  Fe  Fe177  1  0.00042729  0.66700876  0.00057894  1
  Fe  Fe178  1  -0.00033523  0.83391077  0.24916744  1
  Fe  Fe179  1  0.25012531  0.00040957  0.12561947  1
  Fe  Fe180  1  0.00079933  0.33261057  -0.00067815  1
  Fe  Fe181  1  0.49901316  0.83409198  -0.00061886  1
  Fe  Fe182  1  0.75008342  0.16580568  0.87546245  1
  Fe  Fe183  1  0.00050877  0.16634400  0.49835601  1
  Fe  Fe184  1  0.24983804  0.66682067  0.12629119  1
  Fe  Fe185  1  0.25018050  0.16643487  0.87360301  1
  Fe  Fe186  1  0.24996160  0.83368541  0.62512098  1
  Fe  Fe187  1  0.49947554  0.83377968  0.74965016  1
  Fe  Fe188  1  0.25012940  0.33310767  0.37553164  1
  Fe  Fe189  1  0.74899276  0.83355160  0.12496996  1
  Fe  Fe190  1  0.24987087  0.50099142  0.12632013  1
  Fe  Fe191  1  0.25010732  0.50031350  0.87519330  1
  P  P192  1  0.04241489  0.24987345  0.10109066  1
  P  P193  1  0.04288263  0.25056575  0.35147546  1
  P  P194  1  0.04326650  0.24799940  0.60111959  1
  P  P195  1  0.04363387  0.24936136  0.85356339  1
  P  P196  1  0.04243351  0.58452032  0.10252829  1
  P  P197  1  0.04309835  0.58435886  0.35321484  1
  P  P198  1  0.04311876  0.58469016  0.60158129  1
  P  P199  1  0.04298153  0.58380564  0.85376906  1
  P  P200  1  0.04173152  0.91655907  0.10216005  1
  P  P201  1  0.04149230  0.91652120  0.35106943  1
  P  P202  1  0.04326928  0.91554169  0.60136365  1
  P  P203  1  0.04303028  0.91659085  0.85400413  1
  P  P204  1  0.54058235  0.24995694  0.10197494  1
  P  P205  1  0.54264206  0.25005840  0.35383102  1
  P  P206  1  0.54232771  0.24960367  0.60457104  1
  P  P207  1  0.54144109  0.24875743  0.85377383  1
  P  P208  1  0.54187521  0.58337676  0.10361418  1
  P  P209  1  0.54142785  0.58237424  0.35363851  1
  P  P210  1  0.54069853  0.58399200  0.60289418  1
  P  P211  1  0.54068875  0.58392431  0.85159684  1
  P  P212  1  0.54124949  0.91552089  0.10248903  1
  P  P213  1  0.54132257  0.91800171  0.35362752  1
  P  P214  1  0.54032484  0.91674081  0.60292689  1
  P  P215  1  0.54096344  0.91648940  0.85165567  1
  P  P216  1  0.45737594  0.08213459  0.14790216  1
  P  P217  1  0.45745605  0.08154234  0.39818952  1
  P  P218  1  0.45859227  0.08298988  0.64888300  1
  P  P219  1  0.45792500  0.08463062  0.89711705  1
  P  P220  1  0.45704316  0.41766761  0.14806218  1
  P  P221  1  0.45776014  0.41839641  0.39841261  1
  P  P222  1  0.45779937  0.41875354  0.64790570  1
  P  P223  1  0.45721565  0.41559889  0.89759233  1
  P  P224  1  0.45582157  0.75037070  0.14743388  1
  P  P225  1  0.45821455  0.75011623  0.39965261  1
  P  P226  1  0.45814358  0.75048098  0.64809921  1
  P  P227  1  0.45720118  0.75193498  0.89674143  1
  P  P228  1  0.95889502  0.08150009  0.14577922  1
  P  P229  1  0.95834827  0.08411901  0.39584821  1
  P  P230  1  0.95800842  0.08300964  0.64575131  1
  P  P231  1  0.95923048  0.08253116  0.89868596  1
  P  P232  1  0.95869097  0.41462662  0.14645887  1
  P  P233  1  0.95765794  0.41608174  0.39537844  1
  P  P234  1  0.95778076  0.41641222  0.64629092  1
  P  P235  1  0.95810113  0.41490013  0.89738381  1
  P  P236  1  0.95821241  0.75162292  0.14648959  1
  P  P237  1  0.95899209  0.75103866  0.39764506  1
  P  P238  1  0.95826282  0.75019693  0.64565562  1
  P  P239  1  0.95856042  0.75013240  0.89914521  1
  P  P240  1  0.20792933  0.08214362  0.22821160  1
  P  P241  1  0.20912087  0.08321893  0.47697883  1
  P  P242  1  0.20904714  0.08361709  0.72626280  1
  P  P243  1  0.20933957  0.08347256  0.97622912  1
  P  P244  1  0.20827416  0.41823550  0.22850105  1
  P  P245  1  0.20917788  0.41646758  0.47708475  1
  P  P246  1  0.20886080  0.41675210  0.72613036  1
  P  P247  1  0.20816720  0.41861651  0.97766408  1
  P  P248  1  0.20804097  0.74894066  0.22883006  1
  P  P249  1  0.20979545  0.75019966  0.47724406  1
  P  P250  1  0.20810542  0.75153316  0.72757697  1
  P  P251  1  0.20777503  0.75026093  0.97929779  1
  P  P252  1  0.70782765  0.08323975  0.22577868  1
  P  P253  1  0.70685462  0.08259996  0.47789199  1
  P  P254  1  0.70706903  0.08310566  0.72881510  1
  P  P255  1  0.70783791  0.08395410  0.97833896  1
  P  P256  1  0.70708329  0.41792049  0.22702698  1
  P  P257  1  0.70669537  0.41653873  0.47801326  1
  P  P258  1  0.70675961  0.41595556  0.72843674  1
  P  P259  1  0.70679444  0.41636584  0.97879243  1
  P  P260  1  0.70681601  0.75137118  0.22714126  1
  P  P261  1  0.70718376  0.75054874  0.47829743  1
  P  P262  1  0.70707696  0.75136046  0.72724089  1
  P  P263  1  0.70660076  0.75017369  0.97887464  1
  P  P264  1  0.29264709  0.25039877  0.02158828  1
  P  P265  1  0.29132552  0.25006992  0.27390110  1
  P  P266  1  0.29160090  0.24969583  0.52275834  1
  P  P267  1  0.29199370  0.24896408  0.77140879  1
  P  P268  1  0.29153280  0.58366822  0.02421138  1
  P  P269  1  0.29127368  0.58348119  0.27392527  1
  P  P270  1  0.29200362  0.58188129  0.52223331  1
  P  P271  1  0.29194643  0.58205048  0.77249893  1
  P  P272  1  0.29198091  0.91912059  0.02286106  1
  P  P273  1  0.29105466  0.91704302  0.27408414  1
  P  P274  1  0.29097840  0.91665863  0.52314672  1
  P  P275  1  0.29196732  0.91835192  0.77181488  1
  P  P276  1  0.79195876  0.24781794  0.02207700  1
  P  P277  1  0.79255435  0.24943494  0.27040161  1
  P  P278  1  0.79324171  0.24960431  0.52134877  1
  P  P279  1  0.79284783  0.24789030  0.77314593  1
  P  P280  1  0.79247620  0.58188734  0.02255206  1
  P  P281  1  0.79307529  0.58345802  0.27079161  1
  P  P282  1  0.79316511  0.58356847  0.52153853  1
  P  P283  1  0.79285973  0.58367016  0.77180180  1
  P  P284  1  0.79104597  0.91654068  0.02353125  1
  P  P285  1  0.79236656  0.91701291  0.26998213  1
  P  P286  1  0.79239338  0.91534936  0.52232338  1
  P  P287  1  0.79320867  0.91598325  0.77164920  1
  O  O288  1  0.03748153  0.24999619  0.18107759  1
  O  O289  1  0.03756064  0.24968899  0.43135623  1
  O  O290  1  0.03852011  0.24817624  0.68114290  1
  O  O291  1  0.03854270  0.24957078  0.93349660  1
  O  O292  1  0.03738619  0.58438747  0.18246859  1
  O  O293  1  0.03771497  0.58486977  0.43313409  1
  O  O294  1  0.03827772  0.58427049  0.68163586  1
  O  O295  1  0.03752804  0.58407377  0.93372283  1
  O  O296  1  0.03636136  0.91680349  0.18206156  1
  O  O297  1  0.03648257  0.91611855  0.43102169  1
  O  O298  1  0.03846524  0.91579245  0.68135453  1
  O  O299  1  0.03769098  0.91671979  0.93392880  1
  O  O300  1  0.53594720  0.24987837  0.18199337  1
  O  O301  1  0.53780861  0.25012257  0.43380916  1
  O  O302  1  0.53687244  0.24907909  0.68449704  1
  O  O303  1  0.53559683  0.24889569  0.93364359  1
  O  O304  1  0.53666292  0.58282912  0.18354565  1
  O  O305  1  0.53610076  0.58248797  0.43353011  1
  O  O306  1  0.53569512  0.58423963  0.68280790  1
  O  O307  1  0.53591684  0.58412901  0.93158617  1
  O  O308  1  0.53627806  0.91610562  0.18240995  1
  O  O309  1  0.53608371  0.91807973  0.43350400  1
  O  O310  1  0.53539684  0.91624549  0.68280738  1
  O  O311  1  0.53611368  0.91633497  0.93161434  1
  O  O312  1  0.46265163  0.08284601  0.06795942  1
  O  O313  1  0.46253240  0.08145529  0.31822980  1
  O  O314  1  0.46353451  0.08215246  0.56891532  1
  O  O315  1  0.46322493  0.08462907  0.81727557  1
  O  O316  1  0.46216166  0.41680268  0.06809505  1
  O  O317  1  0.46284529  0.41840593  0.31844063  1
  O  O318  1  0.46315619  0.41909186  0.56799893  1
  O  O319  1  0.46262942  0.41621609  0.81770843  1
  O  O320  1  0.46062462  0.75069918  0.06747995  1
  O  O321  1  0.46230421  0.75006500  0.31964117  1
  O  O322  1  0.46315134  0.75010423  0.56822058  1
  O  O323  1  0.46272468  0.75176160  0.81689505  1
  O  O324  1  0.96451930  0.08140630  0.06592464  1
  O  O325  1  0.96368706  0.08354390  0.31590650  1
  O  O326  1  0.96282437  0.08341569  0.56575971  1
  O  O327  1  0.96367161  0.08283050  0.81861933  1
  O  O328  1  0.96426101  0.41453376  0.06652660  1
  O  O329  1  0.96312046  0.41562389  0.31543379  1
  O  O330  1  0.96261897  0.41646353  0.56626720  1
  O  O331  1  0.96324786  0.41537149  0.81738506  1
  O  O332  1  0.96367968  0.75103385  0.06664438  1
  O  O333  1  0.96388653  0.75154458  0.31764306  1
  O  O334  1  0.96360660  0.75019414  0.56575030  1
  O  O335  1  0.96342297  0.75007552  0.81911261  1
  O  O336  1  0.21385248  0.08351653  0.05620089  1
  O  O337  1  0.21318300  0.08226483  0.30805273  1
  O  O338  1  0.21423299  0.08381183  0.55683879  1
  O  O339  1  0.21414104  0.08321084  0.80613793  1
  O  O340  1  0.21333309  0.41883768  0.05759987  1
  O  O341  1  0.21359372  0.41756329  0.30835999  1
  O  O342  1  0.21424869  0.41620225  0.55698588  1
  O  O343  1  0.21380363  0.41675454  0.80607516  1
  O  O344  1  0.21322708  0.74976074  0.05922692  1
  O  O345  1  0.21356505  0.74911112  0.30869771  1
  O  O346  1  0.21421679  0.75089155  0.55722204  1
  O  O347  1  0.21305689  0.75140620  0.80756416  1
  O  O348  1  0.71319235  0.08357432  0.05825984  1
  O  O349  1  0.71232256  0.08303034  0.30581365  1
  O  O350  1  0.71191620  0.08232319  0.55786696  1
  O  O351  1  0.71225770  0.08348791  0.80879071  1
  O  O352  1  0.71206962  0.41704206  0.05876007  1
  O  O353  1  0.71226841  0.41759601  0.30701314  1
  O  O354  1  0.71170310  0.41638400  0.55802082  1
  O  O355  1  0.71167737  0.41571092  0.80845274  1
  O  O356  1  0.71170805  0.75058616  0.05883824  1
  O  O357  1  0.71211089  0.75115010  0.30711747  1
  O  O358  1  0.71226530  0.75097158  0.55826561  1
  O  O359  1  0.71186264  0.75084799  0.80726402  1
  O  O360  1  0.28690828  0.25014477  0.19389404  1
  O  O361  1  0.28658658  0.25000373  0.44285078  1
  O  O362  1  0.28694874  0.24896325  0.69152687  1
  O  O363  1  0.28745893  0.25030713  0.94168118  1
  O  O364  1  0.28603455  0.58413525  0.19403505  1
  O  O365  1  0.28652403  0.58210854  0.44239673  1
  O  O366  1  0.28671176  0.58192647  0.69258530  1
  O  O367  1  0.28643992  0.58334456  0.94423970  1
  O  O368  1  0.28644115  0.91701127  0.19413285  1
  O  O369  1  0.28606139  0.91699619  0.44324752  1
  O  O370  1  0.28655466  0.91753185  0.69196799  1
  O  O371  1  0.28678404  0.91945267  0.94293334  1
  O  O372  1  0.78716680  0.24901752  0.19043887  1
  O  O373  1  0.78809137  0.24986843  0.44133903  1
  O  O374  1  0.78795062  0.24839717  0.69313179  1
  O  O375  1  0.78675345  0.24749743  0.94214987  1
  O  O376  1  0.78778988  0.58291759  0.19080943  1
  O  O377  1  0.78824067  0.58387672  0.44150501  1
  O  O378  1  0.78792385  0.58386512  0.69178129  1
  O  O379  1  0.78733139  0.58231389  0.94257048  1
  O  O380  1  0.78684902  0.91689782  0.19009922  1
  O  O381  1  0.78745745  0.91591762  0.44230696  1
  O  O382  1  0.78811890  0.91542914  0.69168627  1
  O  O383  1  0.78670641  0.91678280  0.94349738  1
  O  O384  1  0.22839511  0.25051701  0.05717871  1
  O  O385  1  0.22709515  0.25006778  0.30934858  1
  O  O386  1  0.22759872  0.24887632  0.55908619  1
  O  O387  1  0.22791766  0.24921414  0.80754274  1
  O  O388  1  0.22743778  0.58364773  0.06050948  1
  O  O389  1  0.22732340  0.58292372  0.31037580  1
  O  O390  1  0.22793733  0.58184460  0.55851541  1
  O  O391  1  0.22772944  0.58196838  0.80837733  1
  O  O392  1  0.22777337  0.91885933  0.05876096  1
  O  O393  1  0.22683135  0.91708150  0.30979632  1
  O  O394  1  0.22692392  0.91618573  0.55930766  1
  O  O395  1  0.22791050  0.91900966  0.80815652  1
  O  O396  1  0.72768072  0.24807209  0.05772798  1
  O  O397  1  0.72819800  0.24959504  0.30570758  1
  O  O398  1  0.72876466  0.24943468  0.55638787  1
  O  O399  1  0.72831791  0.24724805  0.80830992  1
  O  O400  1  0.72808525  0.58176205  0.05792719  1
  O  O401  1  0.72868018  0.58374832  0.30602237  1
  O  O402  1  0.72862946  0.58367836  0.55633954  1
  O  O403  1  0.72823509  0.58345425  0.80643728  1
  O  O404  1  0.72669177  0.91628950  0.05881382  1
  O  O405  1  0.72806992  0.91687046  0.30559645  1
  O  O406  1  0.72794166  0.91486249  0.55764117  1
  O  O407  1  0.72868250  0.91670119  0.80653594  1
  O  O408  1  0.27215697  0.08211505  0.19219310  1
  O  O409  1  0.27312358  0.08248035  0.44070413  1
  O  O410  1  0.27311423  0.08411843  0.69000192  1
  O  O411  1  0.27346352  0.08320836  0.94024710  1
  O  O412  1  0.27240461  0.41895216  0.19232952  1
  O  O413  1  0.27312946  0.41705701  0.44065833  1
  O  O414  1  0.27300937  0.41714275  0.69015350  1
  O  O415  1  0.27236131  0.41847707  0.94175340  1
  O  O416  1  0.27209070  0.74890204  0.19252869  1
  O  O417  1  0.27392771  0.75017500  0.44158193  1
  O  O418  1  0.27241526  0.75150049  0.69206651  1
  O  O419  1  0.27188861  0.75065107  0.94344113  1
  O  O420  1  0.77220616  0.08348118  0.19049010  1
  O  O421  1  0.77133637  0.08281287  0.44290607  1
  O  O422  1  0.77147319  0.08244903  0.69364833  1
  O  O423  1  0.77208362  0.08438805  0.94231303  1
  O  O424  1  0.77147526  0.41772696  0.19164815  1
  O  O425  1  0.77123257  0.41646633  0.44312349  1
  O  O426  1  0.77132886  0.41623264  0.69369276  1
  O  O427  1  0.77117431  0.41586298  0.94360378  1
  O  O428  1  0.77116645  0.75163773  0.19173497  1
  O  O429  1  0.77161428  0.75042489  0.44312647  1
  O  O430  1  0.77158227  0.75192284  0.69211802  1
  O  O431  1  0.77110890  0.74985671  0.94391842  1
  O  O432  1  0.02289780  0.08126747  0.18217642  1
  O  O433  1  0.02258827  0.08429457  0.43172691  1
  O  O434  1  0.02250315  0.08273673  0.68077963  1
  O  O435  1  0.02358699  0.08176608  0.93394640  1
  O  O436  1  0.02284613  0.41464399  0.18250107  1
  O  O437  1  0.02191164  0.41636413  0.43093252  1
  O  O438  1  0.02236900  0.41642425  0.68105398  1
  O  O439  1  0.02248684  0.41509273  0.93276457  1
  O  O440  1  0.02232943  0.75233332  0.18264339  1
  O  O441  1  0.02328029  0.75115735  0.43349901  1
  O  O442  1  0.02254222  0.75013568  0.68129919  1
  O  O443  1  0.02280042  0.75068305  0.93482295  1
  O  O444  1  0.52165096  0.08173376  0.18366055  1
  O  O445  1  0.52176015  0.08122366  0.43380261  1
  O  O446  1  0.52264710  0.08341845  0.68496605  1
  O  O447  1  0.52195530  0.08474015  0.93344278  1
  O  O448  1  0.52136515  0.41842920  0.18373927  1
  O  O449  1  0.52201684  0.41846829  0.43408259  1
  O  O450  1  0.52194221  0.41852389  0.68384471  1
  O  O451  1  0.52135879  0.41501137  0.93364515  1
  O  O452  1  0.52024103  0.75021832  0.18252251  1
  O  O453  1  0.52246488  0.75029956  0.43497362  1
  O  O454  1  0.52213000  0.75083569  0.68445364  1
  O  O455  1  0.52128152  0.75213873  0.93314919  1
  O  O456  1  0.47640187  0.25000370  0.06615385  1
  O  O457  1  0.47809801  0.24989100  0.31906057  1
  O  O458  1  0.47809514  0.24983661  0.56896115  1
  O  O459  1  0.47750144  0.24870705  0.81714203  1
  O  O460  1  0.47757185  0.58351846  0.06821684  1
  O  O461  1  0.47719282  0.58176472  0.31755401  1
  O  O462  1  0.47667143  0.58356280  0.56660993  1
  O  O463  1  0.47646075  0.58377767  0.81594537  1
  O  O464  1  0.47696991  0.91541301  0.06677752  1
  O  O465  1  0.47703959  0.91841537  0.31765738  1
  O  O466  1  0.47623821  0.91726796  0.56672904  1
  O  O467  1  0.47679521  0.91628076  0.81574583  1
  O  O468  1  0.97830260  0.24999884  0.06515001  1
  O  O469  1  0.97870422  0.25074044  0.31547565  1
  O  O470  1  0.97876073  0.24760282  0.56603146  1
  O  O471  1  0.97929882  0.24938476  0.81806022  1
  O  O472  1  0.97816160  0.58413455  0.06706649  1
  O  O473  1  0.97890450  0.58396044  0.31759404  1
  O  O474  1  0.97872224  0.58519289  0.56630875  1
  O  O475  1  0.97871192  0.58335172  0.81819473  1
  O  O476  1  0.97770118  0.91660113  0.06564869  1
  O  O477  1  0.97739452  0.91675965  0.31483394  1
  O  O478  1  0.97885983  0.91519365  0.56604693  1
  O  O479  1  0.97874448  0.91653436  0.81835716  1
  O  O480  1  0.07388766  0.31306733  0.07282910  1
  O  O481  1  0.07352068  0.31435745  0.32332995  1
  O  O482  1  0.07399561  0.31189683  0.57337249  1
  O  O483  1  0.07487803  0.31259912  0.82467829  1
  O  O484  1  0.07283424  0.64834933  0.07419778  1
  O  O485  1  0.07430528  0.64770242  0.32492982  1
  O  O486  1  0.07407833  0.64819383  0.57320475  1
  O  O487  1  0.07410848  0.64719679  0.82541533  1
  O  O488  1  0.07291964  0.97994435  0.07357479  1
  O  O489  1  0.07225763  0.98043751  0.32325982  1
  O  O490  1  0.07402722  0.97925144  0.57322949  1
  O  O491  1  0.07413348  0.97989418  0.82512810  1
  O  O492  1  0.57131479  0.31371067  0.07384758  1
  O  O493  1  0.57353778  0.31350348  0.32537434  1
  O  O494  1  0.57337195  0.31339769  0.57704336  1
  O  O495  1  0.57288495  0.31231753  0.82603117  1
  O  O496  1  0.57280398  0.64711494  0.07571814  1
  O  O497  1  0.57216896  0.64631021  0.32566503  1
  O  O498  1  0.57108133  0.64790095  0.57407731  1
  O  O499  1  0.57139404  0.64761414  0.82322225  1
  O  O500  1  0.57250382  0.97891162  0.07414840  1
  O  O501  1  0.57241402  0.98102583  0.32410456  1
  O  O502  1  0.57179200  0.98011478  0.57485648  1
  O  O503  1  0.57126858  0.98073307  0.82376251  1
  O  O504  1  0.42671202  0.01842322  0.17620044  1
  O  O505  1  0.42612099  0.01862158  0.42729413  1
  O  O506  1  0.42794176  0.01934208  0.67766672  1
  O  O507  1  0.42686923  0.02085848  0.92496703  1
  O  O508  1  0.42616780  0.35405668  0.17646294  1
  O  O509  1  0.42688946  0.35444729  0.42613061  1
  O  O510  1  0.42666694  0.35486421  0.67515211  1
  O  O511  1  0.42627565  0.35205926  0.92590688  1
  O  O512  1  0.42492406  0.68680448  0.17584683  1
  O  O513  1  0.42760052  0.68639511  0.42805344  1
  O  O514  1  0.42760291  0.68670385  0.67696762  1
  O  O515  1  0.42602201  0.68828494  0.92473966  1
  O  O516  1  0.92764358  0.01837899  0.17470789  1
  O  O517  1  0.92698473  0.02070136  0.42389945  1
  O  O518  1  0.92716323  0.01927482  0.67392922  1
  O  O519  1  0.92763532  0.01925679  0.92659723  1
  O  O520  1  0.92768677  0.35119998  0.17484891  1
  O  O521  1  0.92632406  0.35286706  0.42382145  1
  O  O522  1  0.92694633  0.35274777  0.67439151  1
  O  O523  1  0.92760834  0.35114530  0.92567622  1
  O  O524  1  0.92722004  0.68807251  0.17490976  1
  O  O525  1  0.92870400  0.68692578  0.42567627  1
  O  O526  1  0.92693745  0.68692432  0.67429070  1
  O  O527  1  0.92822782  0.68610377  0.92726678  1
  O  O528  1  0.17719267  0.01870190  0.19922619  1
  O  O529  1  0.17745915  0.01982925  0.44919758  1
  O  O530  1  0.17855478  0.01982373  0.69738980  1
  O  O531  1  0.17801608  0.02020539  0.94789619  1
  O  O532  1  0.17752741  0.35463652  0.19978765  1
  O  O533  1  0.17885874  0.35246515  0.44848003  1
  O  O534  1  0.17871171  0.35263410  0.69765948  1
  O  O535  1  0.17713976  0.35489801  0.94985273  1
  O  O536  1  0.17698933  0.68561372  0.20014634  1
  O  O537  1  0.17922966  0.68618539  0.44939292  1
  O  O538  1  0.17714202  0.68778857  0.69983865  1
  O  O539  1  0.17664416  0.68700752  0.95071169  1
  O  O540  1  0.67731635  0.01944403  0.19735628  1
  O  O541  1  0.67597459  0.01908815  0.44957528  1
  O  O542  1  0.67578944  0.01958402  0.70090047  1
  O  O543  1  0.67687697  0.02026105  0.95020375  1
  O  O544  1  0.67577502  0.35435788  0.19934494  1
  O  O545  1  0.67563881  0.35317271  0.44963276  1
  O  O546  1  0.67598972  0.35232964  0.70031789  1
  O  O547  1  0.67571256  0.35261868  0.95120040  1
  O  O548  1  0.67578308  0.68763369  0.19963014  1
  O  O549  1  0.67629714  0.68687879  0.45020525  1
  O  O550  1  0.67631530  0.68763514  0.69923401  1
  O  O551  1  0.67559564  0.68655202  0.95077678  1
  O  O552  1  0.32366690  0.31392099  0.04986264  1
  O  O553  1  0.32220017  0.31365977  0.30225230  1
  O  O554  1  0.32174666  0.31371767  0.55153594  1
  O  O555  1  0.32357800  0.31228992  0.79945546  1
  O  O556  1  0.32219617  0.64758561  0.05212863  1
  O  O557  1  0.32180900  0.64719618  0.30297360  1
  O  O558  1  0.32314400  0.64549590  0.55034643  1
  O  O559  1  0.32277667  0.64599614  0.80011366  1
  O  O560  1  0.32284378  0.98235863  0.05188718  1
  O  O561  1  0.32229215  0.98027089  0.30255188  1
  O  O562  1  0.32143810  0.98047380  0.55196285  1
  O  O563  1  0.32319117  0.98181793  0.79996802  1
  O  O564  1  0.82310081  0.31162490  0.04943457  1
  O  O565  1  0.82353674  0.31313270  0.29819977  1
  O  O566  1  0.82414833  0.31303226  0.54980407  1
  O  O567  1  0.82344301  0.31168839  0.80126749  1
  O  O568  1  0.82356723  0.64550754  0.05035704  1
  O  O569  1  0.82400243  0.64730196  0.29850642  1
  O  O570  1  0.82433357  0.64691426  0.54977999  1
  O  O571  1  0.82363253  0.64726197  0.80017961  1
  O  O572  1  0.82149517  0.98047769  0.05170753  1
  O  O573  1  0.82338935  0.98048503  0.29845734  1
  O  O574  1  0.82329919  0.97901528  0.55027932  1
  O  O575  1  0.82450103  0.97945205  0.79969330  1
  O  O576  1  0.42615922  0.14550255  0.17615872  1
  O  O577  1  0.42689040  0.14557995  0.42586976  1
  O  O578  1  0.42758265  0.14674287  0.67641499  1
  O  O579  1  0.42685549  0.14774737  0.92617496  1
  O  O580  1  0.42621222  0.48117577  0.17635529  1
  O  O581  1  0.42671617  0.48153827  0.42717512  1
  O  O582  1  0.42692180  0.48196435  0.67686519  1
  O  O583  1  0.42622181  0.47919872  0.92556609  1
  O  O584  1  0.42471252  0.81353095  0.17625515  1
  O  O585  1  0.42756792  0.81384100  0.42796299  1
  O  O586  1  0.42675642  0.81386040  0.67611557  1
  O  O587  1  0.42632233  0.81536063  0.92544847  1
  O  O588  1  0.92788201  0.14531061  0.17328315  1
  O  O589  1  0.92783775  0.14782285  0.42415524  1
  O  O590  1  0.92693187  0.14609448  0.67470534  1
  O  O591  1  0.92942877  0.14660273  0.92740524  1
  O  O592  1  0.92770565  0.47846337  0.17389695  1
  O  O593  1  0.92657524  0.47972518  0.42313976  1
  O  O594  1  0.92689165  0.47986058  0.67457575  1
  O  O595  1  0.92676581  0.47827101  0.92535824  1
  O  O596  1  0.92704735  0.81493594  0.17496394  1
  O  O597  1  0.92787656  0.81440143  0.42597728  1
  O  O598  1  0.92720091  0.81350080  0.67439951  1
  O  O599  1  0.92740113  0.81362039  0.92710985  1
  O  O600  1  0.07265050  0.18561109  0.07313470  1
  O  O601  1  0.07423250  0.18734073  0.32315090  1
  O  O602  1  0.07395157  0.18466368  0.57223136  1
  O  O603  1  0.07459682  0.18583462  0.82527244  1
  O  O604  1  0.07382121  0.52106316  0.07495343  1
  O  O605  1  0.07420855  0.52078187  0.32544109  1
  O  O606  1  0.07382086  0.52096274  0.57358972  1
  O  O607  1  0.07411857  0.52029671  0.82570259  1
  O  O608  1  0.07263699  0.85289942  0.07406223  1
  O  O609  1  0.07243196  0.85309849  0.32263112  1
  O  O610  1  0.07414714  0.85224626  0.57271991  1
  O  O611  1  0.07420915  0.85319064  0.82576727  1
  O  O612  1  0.57118462  0.18612712  0.07388659  1
  O  O613  1  0.57358057  0.18657567  0.32563251  1
  O  O614  1  0.57358596  0.18645566  0.57606943  1
  O  O615  1  0.57242018  0.18539870  0.82514761  1
  O  O616  1  0.57320148  0.52035188  0.07485580  1
  O  O617  1  0.57264087  0.51934111  0.32463481  1
  O  O618  1  0.57212180  0.52074099  0.57461947  1
  O  O619  1  0.57146580  0.52008552  0.82383702  1
  O  O620  1  0.57165921  0.85187765  0.07392419  1
  O  O621  1  0.57208962  0.85413905  0.32575762  1
  O  O622  1  0.57063125  0.85299511  0.57384029  1
  O  O623  1  0.57233008  0.85344846  0.82304360  1
  O  O624  1  0.32374701  0.18710653  0.05007522  1
  O  O625  1  0.32185274  0.18620628  0.30221235  1
  O  O626  1  0.32335151  0.18651553  0.55083723  1
  O  O627  1  0.32236255  0.18531192  0.80049230  1
  O  O628  1  0.32249641  0.52020952  0.05269756  1
  O  O629  1  0.32271524  0.52008773  0.30182813  1
  O  O630  1  0.32295134  0.51852607  0.55085348  1
  O  O631  1  0.32285861  0.51886118  0.80148018  1
  O  O632  1  0.32296148  0.85534056  0.05053171  1
  O  O633  1  0.32144386  0.85305703  0.30254295  1
  O  O634  1  0.32229049  0.85330905  0.55148672  1
  O  O635  1  0.32287090  0.85491897  0.80056288  1
  O  O636  1  0.82281985  0.18456624  0.05096434  1
  O  O637  1  0.82381068  0.18618260  0.29881745  1
  O  O638  1  0.82419718  0.18602368  0.54928352  1
  O  O639  1  0.82372900  0.18442401  0.80148340  1
  O  O640  1  0.82313237  0.51824294  0.05076478  1
  O  O641  1  0.82433473  0.52033029  0.29933888  1
  O  O642  1  0.82396068  0.51991920  0.54947712  1
  O  O643  1  0.82395393  0.52021421  0.79983554  1
  O  O644  1  0.82189467  0.85295540  0.05163362  1
  O  O645  1  0.82371786  0.85384241  0.29858797  1
  O  O646  1  0.82311876  0.85182987  0.55065919  1
  O  O647  1  0.82404950  0.85274846  0.80063804  1
  O  O648  1  0.17688334  0.14567635  0.19979807  1
  O  O649  1  0.17890630  0.14699717  0.44783707  1
  O  O650  1  0.17763084  0.14683592  0.69785319  1
  O  O651  1  0.17922776  0.14751841  0.94759097  1
  O  O652  1  0.17705028  0.48160087  0.20020318  1
  O  O653  1  0.17756601  0.47965879  0.44889276  1
  O  O654  1  0.17739427  0.47993200  0.69781256  1
  O  O655  1  0.17736611  0.48194435  0.94879939  1
  O  O656  1  0.17693064  0.81255956  0.20079042  1
  O  O657  1  0.17879073  0.81346398  0.44811192  1
  O  O658  1  0.17740924  0.81501452  0.69901500  1
  O  O659  1  0.17662367  0.81390192  0.95168605  1
  O  O660  1  0.67688029  0.14681911  0.19767862  1
  O  O661  1  0.67582504  0.14606318  0.44979044  1
  O  O662  1  0.67615926  0.14636534  0.70016277  1
  O  O663  1  0.67681122  0.14725295  0.94971276  1
  O  O664  1  0.67669543  0.48165384  0.19874505  1
  O  O665  1  0.67596754  0.48023990  0.45000506  1
  O  O666  1  0.67577050  0.47947859  0.70037070  1
  O  O667  1  0.67558504  0.47949220  0.95004591  1
  O  O668  1  0.67590039  0.81484641  0.19890271  1
  O  O669  1  0.67591609  0.81370045  0.44976784  1
  O  O670  1  0.67635703  0.81486951  0.69879795  1
  O  O671  1  0.67557892  0.81340151  0.95015187  1
