# generated using pymatgen
data_Na2MnFe(PO4)2
_symmetry_space_group_name_H-M   'P 1'
_cell_length_a   22.34604426
_cell_length_b   20.09657048
_cell_length_c   19.44638393
_cell_angle_alpha   89.93490560
_cell_angle_beta   89.96881328
_cell_angle_gamma   89.98503554
_symmetry_Int_Tables_number   1
_chemical_formula_structural   Na2MnFe(PO4)2
_chemical_formula_sum   'Na96 Mn48 Fe48 P96 O384'
_cell_volume   8732.95257051
_cell_formula_units_Z   48
loop_
 _symmetry_equiv_pos_site_id
 _symmetry_equiv_pos_as_xyz
  1  'x, y, z'
loop_
 _atom_site_type_symbol
 _atom_site_label
 _atom_site_symmetry_multiplicity
 _atom_site_fract_x
 _atom_site_fract_y
 _atom_site_fract_z
 _atom_site_occupancy
  Na  Na0  1  0.14094386  0.25138145  0.24251484  1
  Na  Na1  1  0.14057248  0.25016049  0.49375194  1
  Na  Na2  1  0.14007310  0.25145435  0.74341782  1
  Na  Na3  1  0.14059292  0.25097751  0.99298377  1
  Na  Na4  1  0.14062634  0.58175559  0.24370439  1
  Na  Na5  1  0.14039405  0.58329635  0.49567654  1
  Na  Na6  1  0.14046529  0.58377403  0.74343477  1
  Na  Na7  1  0.14070227  0.58201580  0.99262243  1
  Na  Na8  1  0.13987903  0.91839368  0.24313117  1
  Na  Na9  1  0.14021632  0.91635069  0.49424727  1
  Na  Na10  1  0.14063189  0.91673474  0.74464130  1
  Na  Na11  1  0.13982585  0.91686073  0.99274811  1
  Na  Na12  1  0.64090617  0.24836571  0.24380246  1
  Na  Na13  1  0.64068123  0.24920227  0.49396470  1
  Na  Na14  1  0.64071667  0.24986170  0.74374656  1
  Na  Na15  1  0.64077122  0.24975900  0.99291842  1
  Na  Na16  1  0.64028063  0.58339629  0.24410033  1
  Na  Na17  1  0.64027948  0.58293835  0.49405033  1
  Na  Na18  1  0.64058229  0.58442591  0.74385705  1
  Na  Na19  1  0.64092825  0.58481014  0.99291899  1
  Na  Na20  1  0.63988694  0.91715008  0.24321375  1
  Na  Na21  1  0.64027870  0.91680057  0.49436710  1
  Na  Na22  1  0.63992204  0.91701559  0.74438338  1
  Na  Na23  1  0.64004306  0.91711373  0.99262502  1
  Na  Na24  1  0.35998860  0.08333155  0.00645541  1
  Na  Na25  1  0.35967294  0.08344091  0.25503176  1
  Na  Na26  1  0.35907322  0.08187588  0.50632679  1
  Na  Na27  1  0.35928817  0.08330604  0.75720399  1
  Na  Na28  1  0.35934676  0.41565391  0.00568152  1
  Na  Na29  1  0.35990964  0.41657370  0.25579151  1
  Na  Na30  1  0.36025574  0.41670636  0.50747069  1
  Na  Na31  1  0.36002399  0.41681517  0.75577933  1
  Na  Na32  1  0.35965542  0.74962986  0.00653355  1
  Na  Na33  1  0.35910241  0.74967264  0.25646446  1
  Na  Na34  1  0.35915888  0.74924629  0.50762093  1
  Na  Na35  1  0.35928888  0.75025527  0.75615981  1
  Na  Na36  1  0.85948559  0.08262356  0.00632055  1
  Na  Na37  1  0.85941924  0.08240111  0.25562037  1
  Na  Na38  1  0.85934853  0.08295956  0.50567984  1
  Na  Na39  1  0.85909575  0.08254157  0.75723255  1
  Na  Na40  1  0.86026964  0.41700414  0.00577193  1
  Na  Na41  1  0.86009512  0.41431384  0.25545287  1
  Na  Na42  1  0.86033276  0.41582746  0.50695910  1
  Na  Na43  1  0.86012180  0.41740329  0.75764147  1
  Na  Na44  1  0.85935750  0.75135082  0.00564845  1
  Na  Na45  1  0.85913456  0.75136051  0.25519683  1
  Na  Na46  1  0.85912398  0.75029737  0.50724959  1
  Na  Na47  1  0.85887923  0.75055169  0.75757885  1
  Na  Na48  1  0.10948289  0.08322804  0.11781192  1
  Na  Na49  1  0.10987734  0.08401115  0.36832038  1
  Na  Na50  1  0.10981393  0.08531014  0.61946102  1
  Na  Na51  1  0.10956755  0.08362655  0.86877759  1
  Na  Na52  1  0.11057335  0.41608763  0.11763805  1
  Na  Na53  1  0.11040300  0.41675216  0.36875435  1
  Na  Na54  1  0.10980565  0.41759367  0.62000830  1
  Na  Na55  1  0.11003563  0.41692860  0.86804194  1
  Na  Na56  1  0.10915808  0.74991712  0.11812104  1
  Na  Na57  1  0.10923420  0.75070481  0.36982459  1
  Na  Na58  1  0.10988108  0.74955945  0.61947749  1
  Na  Na59  1  0.10972781  0.75005763  0.86815105  1
  Na  Na60  1  0.60974954  0.08154790  0.11782097  1
  Na  Na61  1  0.61001327  0.08284688  0.36837414  1
  Na  Na62  1  0.60984291  0.08218573  0.61909036  1
  Na  Na63  1  0.60995349  0.08390339  0.86844031  1
  Na  Na64  1  0.61009870  0.41614287  0.11787934  1
  Na  Na65  1  0.60978798  0.41666738  0.37004684  1
  Na  Na66  1  0.60959106  0.41699024  0.61834004  1
  Na  Na67  1  0.61000220  0.41712713  0.86861893  1
  Na  Na68  1  0.60923400  0.75139735  0.11742702  1
  Na  Na69  1  0.60911829  0.75066994  0.36995117  1
  Na  Na70  1  0.60969108  0.74981004  0.61852579  1
  Na  Na71  1  0.60985765  0.75139576  0.86893535  1
  Na  Na72  1  0.39021210  0.24843194  0.13093995  1
  Na  Na73  1  0.39061173  0.25034233  0.38066113  1
  Na  Na74  1  0.39049251  0.24946189  0.63147151  1
  Na  Na75  1  0.39050403  0.25009867  0.88119087  1
  Na  Na76  1  0.39030821  0.58319957  0.13081137  1
  Na  Na77  1  0.39040685  0.58269145  0.38301579  1
  Na  Na78  1  0.39008359  0.58223526  0.63122875  1
  Na  Na79  1  0.39032614  0.58331667  0.88125014  1
  Na  Na80  1  0.38998846  0.91664642  0.12978227  1
  Na  Na81  1  0.38984965  0.91664190  0.38157576  1
  Na  Na82  1  0.38980525  0.91569744  0.63153494  1
  Na  Na83  1  0.39000716  0.91716206  0.88240069  1
  Na  Na84  1  0.89044116  0.24971119  0.13085176  1
  Na  Na85  1  0.89071712  0.24988516  0.38016638  1
  Na  Na86  1  0.89102224  0.25132699  0.63166266  1
  Na  Na87  1  0.89079659  0.25017595  0.88151791  1
  Na  Na88  1  0.89078727  0.58208835  0.12984488  1
  Na  Na89  1  0.89059675  0.58248752  0.38126832  1
  Na  Na90  1  0.89015396  0.58237310  0.63332552  1
  Na  Na91  1  0.89016500  0.58294807  0.88156680  1
  Na  Na92  1  0.88949084  0.91673087  0.13069942  1
  Na  Na93  1  0.88976780  0.91809867  0.38080457  1
  Na  Na94  1  0.88955515  0.91718178  0.63263791  1
  Na  Na95  1  0.88976267  0.91681975  0.88229689  1
  Mn  Mn96  1  0.24963123  -0.00015531  0.62575612  1
  Mn  Mn97  1  0.00012204  0.16683179  0.00014841  1
  Mn  Mn98  1  0.75020853  0.66676098  0.37530596  1
  Mn  Mn99  1  0.24952855  0.83358694  0.12529786  1
  Mn  Mn100  1  0.50062442  0.16529006  0.25027266  1
  Mn  Mn101  1  0.25008576  0.66647458  0.87480962  1
  Mn  Mn102  1  0.75026935  0.16531995  0.62469197  1
  Mn  Mn103  1  0.25053426  0.16608496  0.37420360  1
  Mn  Mn104  1  -0.00042265  0.66652316  0.50026190  1
  Mn  Mn105  1  0.50059199  0.33291629  0.24998784  1
  Mn  Mn106  1  0.75028324  0.66765872  0.12407463  1
  Mn  Mn107  1  0.00022599  0.49918137  0.50088107  1
  Mn  Mn108  1  0.00002205  0.66640725  0.24955624  1
  Mn  Mn109  1  0.49984395  0.50051489  -0.00041812  1
  Mn  Mn110  1  0.74946170  0.83445234  0.37560980  1
  Mn  Mn111  1  0.24927469  0.66544533  0.12547743  1
  Mn  Mn112  1  -0.00100142  0.83387155  0.50026166  1
  Mn  Mn113  1  0.25084163  0.33385101  0.37442271  1
  Mn  Mn114  1  0.00045632  0.00098504  0.75056543  1
  Mn  Mn115  1  0.75061654  0.49955222  0.12448865  1
  Mn  Mn116  1  -0.00059453  0.83439795  0.24920290  1
  Mn  Mn117  1  0.49978369  0.66688378  0.74966614  1
  Mn  Mn118  1  0.24944432  0.66562145  0.37599104  1
  Mn  Mn119  1  0.24912286  0.83360865  0.37564885  1
  Mn  Mn120  1  0.25036042  0.00087684  0.12433013  1
  Mn  Mn121  1  0.49898374  0.83383275  0.75007229  1
  Mn  Mn122  1  0.50097780  0.49956455  0.75004417  1
  Mn  Mn123  1  0.00011828  0.16861128  0.49909735  1
  Mn  Mn124  1  0.25008707  0.16756116  0.87514297  1
  Mn  Mn125  1  0.49926303  -0.00083696  0.49967293  1
  Mn  Mn126  1  0.49890464  0.83393878  0.24915594  1
  Mn  Mn127  1  0.50015361  0.16660102  0.74970366  1
  Mn  Mn128  1  0.49933611  0.16662119  0.50003951  1
  Mn  Mn129  1  0.75066744  0.49911110  0.37436956  1
  Mn  Mn130  1  0.74966976  0.33184536  0.37569173  1
  Mn  Mn131  1  0.75083659  0.33349453  0.62519629  1
  Mn  Mn132  1  0.00030218  0.66604739  -0.00035214  1
  Mn  Mn133  1  0.75013698  0.66687402  0.62589939  1
  Mn  Mn134  1  0.25010763  0.33371401  0.62444529  1
  Mn  Mn135  1  0.00001350  0.00131099  0.50070816  1
  Mn  Mn136  1  0.50045517  0.50016033  0.25028301  1
  Mn  Mn137  1  0.49971309  0.66728690  0.25061260  1
  Mn  Mn138  1  0.74985593  0.16602418  0.12448259  1
  Mn  Mn139  1  0.49987477  0.33236284  -0.00029465  1
  Mn  Mn140  1  0.00043776  0.49841229  0.25038597  1
  Mn  Mn141  1  0.00029039  0.83327380  0.75056164  1
  Mn  Mn142  1  0.00060617  0.16693130  0.24944859  1
  Mn  Mn143  1  0.75001162  0.33383308  0.87441853  1
  Fe  Fe144  1  0.75030204  0.16640389  0.87503486  1
  Fe  Fe145  1  0.24975699  0.83314293  0.87500181  1
  Fe  Fe146  1  0.00071474  0.49933989  -0.00047904  1
  Fe  Fe147  1  0.00061111  0.33341245  -0.00054736  1
  Fe  Fe148  1  0.25039325  0.49979514  0.37529514  1
  Fe  Fe149  1  0.75019328  0.50034476  0.62554706  1
  Fe  Fe150  1  0.74910999  0.83412154  0.12466604  1
  Fe  Fe151  1  0.75000435  0.83438452  0.87522041  1
  Fe  Fe152  1  0.49950759  0.83374455  -0.00017568  1
  Fe  Fe153  1  0.74978281  0.66782296  0.87443424  1
  Fe  Fe154  1  -0.00073790  0.66672700  0.75080179  1
  Fe  Fe155  1  0.25065278  0.49929064  0.12413843  1
  Fe  Fe156  1  0.49964151  0.66673191  0.49996731  1
  Fe  Fe157  1  0.25071229  0.49972883  0.87454757  1
  Fe  Fe158  1  0.25044556  0.33365540  0.87459890  1
  Fe  Fe159  1  0.74928518  -0.00010785  0.12473913  1
  Fe  Fe160  1  0.00048179  0.33332121  0.24935427  1
  Fe  Fe161  1  0.74988125  -0.00040787  0.37508543  1
  Fe  Fe162  1  0.25001578  0.83344277  0.62539845  1
  Fe  Fe163  1  0.50062197  0.33303210  0.50039505  1
  Fe  Fe164  1  0.25004538  0.16674560  0.62518573  1
  Fe  Fe165  1  0.74951889  0.83406446  0.62603708  1
  Fe  Fe166  1  0.24939992  0.16705714  0.12451848  1
  Fe  Fe167  1  0.25038707  0.33373211  0.12420428  1
  Fe  Fe168  1  0.49981082  0.00018796  -0.00027086  1
  Fe  Fe169  1  0.50017455  0.66706124  0.00014750  1
  Fe  Fe170  1  -0.00033637  0.83336646  -0.00026082  1
  Fe  Fe171  1  0.49984515  0.49962123  0.50055143  1
  Fe  Fe172  1  -0.00049490  0.00007418  -0.00038287  1
  Fe  Fe173  1  0.74956262  -0.00017360  0.62551982  1
  Fe  Fe174  1  0.49968659  0.00016931  0.75057053  1
  Fe  Fe175  1  0.24935574  0.00003859  0.37527020  1
  Fe  Fe176  1  0.24989498  0.50001796  0.62562552  1
  Fe  Fe177  1  0.74972478  0.50069574  0.87551771  1
  Fe  Fe178  1  0.74992688  -0.00026903  0.87524173  1
  Fe  Fe179  1  0.75015244  0.33268652  0.12462635  1
  Fe  Fe180  1  0.00007284  0.49985102  0.75033461  1
  Fe  Fe181  1  0.24963581  0.00045224  0.87474616  1
  Fe  Fe182  1  0.75038586  0.16532690  0.37451484  1
  Fe  Fe183  1  0.25022547  0.66642148  0.62567150  1
  Fe  Fe184  1  0.00009526  0.33381394  0.75074634  1
  Fe  Fe185  1  0.50027794  0.33301455  0.74981465  1
  Fe  Fe186  1  -0.00002699  0.00008877  0.24943855  1
  Fe  Fe187  1  0.50065630  0.16604318  -0.00033963  1
  Fe  Fe188  1  0.00066923  0.33365863  0.50063154  1
  Fe  Fe189  1  0.49989724  0.83342905  0.50011504  1
  Fe  Fe190  1  -0.00026779  0.16765107  0.75018441  1
  Fe  Fe191  1  0.49963249  -0.00056543  0.24948299  1
  P  P192  1  0.04250811  0.25135090  0.10221131  1
  P  P193  1  0.04308493  0.25193547  0.35210555  1
  P  P194  1  0.04242824  0.25189670  0.60354886  1
  P  P195  1  0.04163844  0.25045353  0.85197338  1
  P  P196  1  0.04282725  0.58127413  0.10186086  1
  P  P197  1  0.04295380  0.58287954  0.35323107  1
  P  P198  1  0.04201509  0.58327927  0.60477908  1
  P  P199  1  0.04124164  0.58303484  0.85186657  1
  P  P200  1  0.04108604  0.91709952  0.10125508  1
  P  P201  1  0.04218464  0.91828289  0.35224281  1
  P  P202  1  0.04262490  0.91706763  0.60361955  1
  P  P203  1  0.04240348  0.91694766  0.85441477  1
  P  P204  1  0.54269281  0.24769774  0.10211081  1
  P  P205  1  0.54315582  0.24995256  0.35368172  1
  P  P206  1  0.54242153  0.25077769  0.60288920  1
  P  P207  1  0.54252041  0.25069591  0.85248111  1
  P  P208  1  0.54276312  0.58466147  0.10225975  1
  P  P209  1  0.54239931  0.58363711  0.35452210  1
  P  P210  1  0.54128701  0.58349216  0.60143199  1
  P  P211  1  0.54276966  0.58420315  0.85346730  1
  P  P212  1  0.54114422  0.91709004  0.10124595  1
  P  P213  1  0.54177719  0.91723163  0.35232343  1
  P  P214  1  0.54195296  0.91558958  0.60289986  1
  P  P215  1  0.54129617  0.91816714  0.85335638  1
  P  P216  1  0.45821654  0.08142671  0.14638659  1
  P  P217  1  0.45683927  0.08289047  0.39640255  1
  P  P218  1  0.45727487  0.08174627  0.64790373  1
  P  P219  1  0.45859019  0.08337873  0.89799570  1
  P  P220  1  0.45764259  0.41641264  0.14679425  1
  P  P221  1  0.45869718  0.41615201  0.39901456  1
  P  P222  1  0.45850945  0.41517062  0.64693308  1
  P  P223  1  0.45746890  0.41624756  0.89625850  1
  P  P224  1  0.45685046  0.74998810  0.14583756  1
  P  P225  1  0.45766716  0.75042976  0.39877415  1
  P  P226  1  0.45722503  0.74996094  0.64588217  1
  P  P227  1  0.45844472  0.75014249  0.89851614  1
  P  P228  1  0.95796035  0.08191907  0.14684742  1
  P  P229  1  0.95750770  0.08396307  0.39623907  1
  P  P230  1  0.95763651  0.08568248  0.64802643  1
  P  P231  1  0.95777485  0.08317081  0.89736992  1
  P  P232  1  0.95832850  0.41500927  0.14624499  1
  P  P233  1  0.95804695  0.41468178  0.39761957  1
  P  P234  1  0.95862094  0.41630223  0.64891609  1
  P  P235  1  0.95923713  0.41650111  0.89753220  1
  P  P236  1  0.95726680  0.75015309  0.14577959  1
  P  P237  1  0.95643390  0.75047230  0.39681700  1
  P  P238  1  0.95707374  0.74889553  0.64837960  1
  P  P239  1  0.95806374  0.75056813  0.89732924  1
  P  P240  1  0.20736524  0.08472925  0.22719839  1
  P  P241  1  0.20751187  0.08239049  0.47779032  1
  P  P242  1  0.20792292  0.08472241  0.72820119  1
  P  P243  1  0.20796178  0.08310348  0.97738951  1
  P  P244  1  0.20916143  0.41691445  0.22617065  1
  P  P245  1  0.20836250  0.41802774  0.47780131  1
  P  P246  1  0.20832613  0.41792111  0.72823552  1
  P  P247  1  0.20911945  0.41657790  0.97645646  1
  P  P248  1  0.20639419  0.74970935  0.22845913  1
  P  P249  1  0.20719250  0.74955536  0.47973998  1
  P  P250  1  0.20895957  0.75041076  0.72720227  1
  P  P251  1  0.20750653  0.75054804  0.97730536  1
  P  P252  1  0.70767475  0.08174940  0.22771113  1
  P  P253  1  0.70828788  0.08240908  0.47679106  1
  P  P254  1  0.70781104  0.08181940  0.72851583  1
  P  P255  1  0.70882110  0.08303400  0.97661385  1
  P  P256  1  0.70789451  0.41462768  0.22706564  1
  P  P257  1  0.70781329  0.41680634  0.47887375  1
  P  P258  1  0.70825209  0.41836379  0.72790688  1
  P  P259  1  0.70793258  0.41754305  0.97756060  1
  P  P260  1  0.70721980  0.75161097  0.22690615  1
  P  P261  1  0.70729137  0.75039383  0.47910994  1
  P  P262  1  0.70770016  0.75190451  0.72866674  1
  P  P263  1  0.70875286  0.75130256  0.97649365  1
  P  P264  1  0.29128789  0.25020759  0.02282503  1
  P  P265  1  0.29293456  0.25013557  0.27046712  1
  P  P266  1  0.29249528  0.24859219  0.52240940  1
  P  P267  1  0.29225969  0.25141852  0.77206761  1
  P  P268  1  0.29228856  0.58162212  0.02189938  1
  P  P269  1  0.29234829  0.58146186  0.27267852  1
  P  P270  1  0.29125869  0.58260067  0.52385520  1
  P  P271  1  0.29228448  0.58227043  0.77191790  1
  P  P272  1  0.29183782  0.91667977  0.02064720  1
  P  P273  1  0.29177469  0.91821604  0.27274527  1
  P  P274  1  0.29181523  0.91576500  0.52279533  1
  P  P275  1  0.29130182  0.91636235  0.77351884  1
  P  P276  1  0.79223113  0.25073781  0.02191188  1
  P  P277  1  0.79231990  0.24796355  0.27206525  1
  P  P278  1  0.79305101  0.24891800  0.52160895  1
  P  P279  1  0.79244223  0.24861417  0.77271324  1
  P  P280  1  0.79271507  0.58375773  0.02045959  1
  P  P281  1  0.79314257  0.58348560  0.27146851  1
  P  P282  1  0.79269792  0.58226184  0.52322873  1
  P  P283  1  0.79097935  0.58346274  0.77353680  1
  P  P284  1  0.79073182  0.91699578  0.02266372  1
  P  P285  1  0.79156747  0.91810561  0.27179019  1
  P  P286  1  0.79145720  0.91711762  0.52388052  1
  P  P287  1  0.79120353  0.91675964  0.77316355  1
  O  O288  1  0.03748258  0.25136528  0.18214974  1
  O  O289  1  0.03799749  0.25215292  0.43213270  1
  O  O290  1  0.03677934  0.25132281  0.68341678  1
  O  O291  1  0.03660678  0.25061970  0.93196515  1
  O  O292  1  0.03772231  0.58137535  0.18181003  1
  O  O293  1  0.03764846  0.58275891  0.43323181  1
  O  O294  1  0.03657944  0.58353061  0.68470236  1
  O  O295  1  0.03663557  0.58231718  0.93187335  1
  O  O296  1  0.03603012  0.91760169  0.18128379  1
  O  O297  1  0.03707170  0.91800599  0.43223257  1
  O  O298  1  0.03779979  0.91695655  0.68365097  1
  O  O299  1  0.03687182  0.91670851  0.93432865  1
  O  O300  1  0.53787055  0.24770915  0.18210827  1
  O  O301  1  0.53772620  0.25041634  0.43363464  1
  O  O302  1  0.53715673  0.25076000  0.68287206  1
  O  O303  1  0.53711921  0.24967649  0.93241043  1
  O  O304  1  0.53779898  0.58444249  0.18232178  1
  O  O305  1  0.53679870  0.58351012  0.43442743  1
  O  O306  1  0.53677431  0.58314159  0.68148189  1
  O  O307  1  0.53742011  0.58472018  0.93338429  1
  O  O308  1  0.53640850  0.91712151  0.18123646  1
  O  O309  1  0.53662523  0.91622078  0.43228199  1
  O  O310  1  0.53670606  0.91633238  0.68283680  1
  O  O311  1  0.53595522  0.91782483  0.93324347  1
  O  O312  1  0.46381406  0.08180488  0.06646864  1
  O  O313  1  0.46211483  0.08240359  0.31643456  1
  O  O314  1  0.46207080  0.08197547  0.56792051  1
  O  O315  1  0.46344584  0.08322174  0.81799721  1
  O  O316  1  0.46254037  0.41636609  0.06681141  1
  O  O317  1  0.46338808  0.41675420  0.31898150  1
  O  O318  1  0.46411653  0.41544556  0.56704686  1
  O  O319  1  0.46300222  0.41580089  0.81633128  1
  O  O320  1  0.46220886  0.74986656  0.06592364  1
  O  O321  1  0.46245158  0.75052657  0.31869198  1
  O  O322  1  0.46256540  0.75015055  0.56599109  1
  O  O323  1  0.46303977  0.75046849  0.81847195  1
  O  O324  1  0.96323362  0.08181142  0.06687049  1
  O  O325  1  0.96282942  0.08334538  0.31628425  1
  O  O326  1  0.96269912  0.08565067  0.56802626  1
  O  O327  1  0.96317071  0.08420555  0.81746400  1
  O  O328  1  0.96393569  0.41542893  0.06635462  1
  O  O329  1  0.96320868  0.41458345  0.31762192  1
  O  O330  1  0.96325740  0.41624285  0.56892061  1
  O  O331  1  0.96430373  0.41657829  0.81760297  1
  O  O332  1  0.96283998  0.75058326  0.06581557  1
  O  O333  1  0.96163754  0.75058720  0.31680469  1
  O  O334  1  0.96184080  0.74919537  0.56833905  1
  O  O335  1  0.96316233  0.74997067  0.81736904  1
  O  O336  1  0.21301328  0.08389033  0.05733246  1
  O  O337  1  0.21247669  0.08373508  0.30713457  1
  O  O338  1  0.21269087  0.08296190  0.55777504  1
  O  O339  1  0.21338163  0.08419106  0.80812185  1
  O  O340  1  0.21420930  0.41648572  0.05635587  1
  O  O341  1  0.21382773  0.41680670  0.30614291  1
  O  O342  1  0.21348068  0.41787992  0.55775542  1
  O  O343  1  0.21393497  0.41749009  0.80806178  1
  O  O344  1  0.21227418  0.75009073  0.05729868  1
  O  O345  1  0.21147360  0.74964721  0.30846633  1
  O  O346  1  0.21277608  0.74972034  0.55964332  1
  O  O347  1  0.21401562  0.75049831  0.80720672  1
  O  O348  1  0.71345329  0.08237278  0.05660099  1
  O  O349  1  0.71311544  0.08202555  0.30756465  1
  O  O350  1  0.71345160  0.08197117  0.55677136  1
  O  O351  1  0.71338436  0.08246211  0.80835394  1
  O  O352  1  0.71336393  0.41650212  0.05745530  1
  O  O353  1  0.71305546  0.41463794  0.30707067  1
  O  O354  1  0.71313676  0.41751131  0.55882731  1
  O  O355  1  0.71353188  0.41859675  0.80788074  1
  O  O356  1  0.71361110  0.75127289  0.05643058  1
  O  O357  1  0.71230280  0.75145516  0.30688783  1
  O  O358  1  0.71247283  0.75072647  0.55908205  1
  O  O359  1  0.71323417  0.75174191  0.80854901  1
  O  O360  1  0.28742910  0.25008902  0.19057977  1
  O  O361  1  0.28757213  0.24891786  0.44242518  1
  O  O362  1  0.28715576  0.25059695  0.69214393  1
  O  O363  1  0.28647791  0.25091324  0.94283492  1
  O  O364  1  0.28713566  0.58148616  0.19270172  1
  O  O365  1  0.28653935  0.58250106  0.44389258  1
  O  O366  1  0.28678592  0.58265188  0.69207660  1
  O  O367  1  0.28701985  0.58185616  0.94194595  1
  O  O368  1  0.28682468  0.91798765  0.19272689  1
  O  O369  1  0.28637297  0.91662879  0.44291314  1
  O  O370  1  0.28634899  0.91606236  0.69350458  1
  O  O371  1  0.28634848  0.91669151  0.94076364  1
  O  O372  1  0.78697941  0.24873270  0.19210739  1
  O  O373  1  0.78777047  0.24835135  0.44165561  1
  O  O374  1  0.78729783  0.24878845  0.69277723  1
  O  O375  1  0.78696967  0.25022120  0.94198350  1
  O  O376  1  0.78794774  0.58360318  0.19147603  1
  O  O377  1  0.78784648  0.58258149  0.44321468  1
  O  O378  1  0.78618101  0.58320842  0.69352460  1
  O  O379  1  0.78706238  0.58372614  0.94054581  1
  O  O380  1  0.78602804  0.91784122  0.19194380  1
  O  O381  1  0.78630258  0.91755683  0.44390786  1
  O  O382  1  0.78624551  0.91693961  0.69328022  1
  O  O383  1  0.78571545  0.91694149  0.94275140  1
  O  O384  1  0.22715203  0.24974380  0.05878124  1
  O  O385  1  0.22880701  0.25028706  0.30645488  1
  O  O386  1  0.22815189  0.24879903  0.55793927  1
  O  O387  1  0.22799426  0.25170739  0.80776439  1
  O  O388  1  0.22802796  0.58103673  0.05773461  1
  O  O389  1  0.22800918  0.58124324  0.30835588  1
  O  O390  1  0.22719270  0.58243197  0.55998709  1
  O  O391  1  0.22819619  0.58209714  0.80820547  1
  O  O392  1  0.22774259  0.91710647  0.05666677  1
  O  O393  1  0.22738279  0.91829354  0.30814263  1
  O  O394  1  0.22765863  0.91536253  0.55885322  1
  O  O395  1  0.22714670  0.91600909  0.80944897  1
  O  O396  1  0.72799284  0.25090941  0.05774363  1
  O  O397  1  0.72818215  0.24717901  0.30818492  1
  O  O398  1  0.72876346  0.24949559  0.55706602  1
  O  O399  1  0.72814897  0.24858877  0.80830668  1
  O  O400  1  0.72861563  0.58352895  0.05648452  1
  O  O401  1  0.72872264  0.58324671  0.30664034  1
  O  O402  1  0.72828042  0.58209669  0.55865053  1
  O  O403  1  0.72685582  0.58317583  0.80942026  1
  O  O404  1  0.72663236  0.91693139  0.05898986  1
  O  O405  1  0.72744382  0.91858074  0.30812217  1
  O  O406  1  0.72726174  0.91691093  0.56002775  1
  O  O407  1  0.72713339  0.91613789  0.80942798  1
  O  O408  1  0.27168342  0.08571906  0.19153855  1
  O  O409  1  0.27178835  0.08161349  0.44196757  1
  O  O410  1  0.27205293  0.08464876  0.69214008  1
  O  O411  1  0.27220376  0.08285737  0.94178465  1
  O  O412  1  0.27333019  0.41732322  0.19023486  1
  O  O413  1  0.27268060  0.41810203  0.44209338  1
  O  O414  1  0.27232905  0.41797399  0.69173761  1
  O  O415  1  0.27319187  0.41661103  0.94015104  1
  O  O416  1  0.27085800  0.74946853  0.19343471  1
  O  O417  1  0.27129530  0.74969697  0.44365449  1
  O  O418  1  0.27298545  0.75084638  0.69102537  1
  O  O419  1  0.27189036  0.75078971  0.94194228  1
  O  O420  1  0.77176572  0.08147490  0.19138909  1
  O  O421  1  0.77238334  0.08245511  0.44044598  1
  O  O422  1  0.77193049  0.08110728  0.69227102  1
  O  O423  1  0.77298600  0.08371094  0.94081204  1
  O  O424  1  0.77225784  0.41450467  0.19154946  1
  O  O425  1  0.77210414  0.41594465  0.44340260  1
  O  O426  1  0.77256737  0.41867707  0.69220505  1
  O  O427  1  0.77212538  0.41794290  0.94165205  1
  O  O428  1  0.77156547  0.75229865  0.19135809  1
  O  O429  1  0.77154984  0.75064544  0.44353081  1
  O  O430  1  0.77178572  0.75203881  0.69237809  1
  O  O431  1  0.77281467  0.75173823  0.94033620  1
  O  O432  1  0.02217401  0.08191004  0.18265945  1
  O  O433  1  0.02180262  0.08434475  0.43166973  1
  O  O434  1  0.02201448  0.08583773  0.68339213  1
  O  O435  1  0.02195416  0.08235012  0.93319424  1
  O  O436  1  0.02250412  0.41451526  0.18243194  1
  O  O437  1  0.02237768  0.41500871  0.43327586  1
  O  O438  1  0.02282763  0.41603702  0.68457685  1
  O  O439  1  0.02330674  0.41633394  0.93380200  1
  O  O440  1  0.02147120  0.75038492  0.18141304  1
  O  O441  1  0.02086063  0.75061349  0.43191424  1
  O  O442  1  0.02155361  0.74822704  0.68346047  1
  O  O443  1  0.02227026  0.75087296  0.93294823  1
  O  O444  1  0.52229393  0.08070594  0.18267864  1
  O  O445  1  0.52115873  0.08308990  0.43170197  1
  O  O446  1  0.52171095  0.08160933  0.68309126  1
  O  O447  1  0.52280657  0.08335458  0.93379627  1
  O  O448  1  0.52213509  0.41653049  0.18167426  1
  O  O449  1  0.52292305  0.41580000  0.43457267  1
  O  O450  1  0.52259563  0.41453254  0.68325392  1
  O  O451  1  0.52169210  0.41638102  0.93177335  1
  O  O452  1  0.52110576  0.75046178  0.18143588  1
  O  O453  1  0.52194132  0.75046970  0.43444593  1
  O  O454  1  0.52142183  0.75053173  0.68160141  1
  O  O455  1  0.52267320  0.74961835  0.93405256  1
  O  O456  1  0.47825616  0.24738608  0.06691647  1
  O  O457  1  0.47889956  0.24947981  0.31816327  1
  O  O458  1  0.47813290  0.25117785  0.56723546  1
  O  O459  1  0.47831063  0.25121831  0.81660075  1
  O  O460  1  0.47833213  0.58512991  0.06699567  1
  O  O461  1  0.47819574  0.58334223  0.31867903  1
  O  O462  1  0.47706279  0.58410983  0.56592184  1
  O  O463  1  0.47849213  0.58333915  0.81808347  1
  O  O464  1  0.47696565  0.91756931  0.06553629  1
  O  O465  1  0.47744204  0.91808216  0.31667868  1
  O  O466  1  0.47767182  0.91473559  0.56721155  1
  O  O467  1  0.47715132  0.91858991  0.81726817  1
  O  O468  1  0.97822894  0.25159771  0.06663940  1
  O  O469  1  0.97878853  0.25178959  0.31644149  1
  O  O470  1  0.97833443  0.25242519  0.56720926  1
  O  O471  1  0.97746037  0.25045527  0.81606079  1
  O  O472  1  0.97852113  0.58131217  0.06636969  1
  O  O473  1  0.97861039  0.58255377  0.31798919  1
  O  O474  1  0.97789455  0.58278561  0.56885025  1
  O  O475  1  0.97702497  0.58376444  0.81622130  1
  O  O476  1  0.97692586  0.91705278  0.06527783  1
  O  O477  1  0.97778189  0.91880186  0.31684735  1
  O  O478  1  0.97805253  0.91748077  0.56897253  1
  O  O479  1  0.97824222  0.91711410  0.81865471  1
  O  O480  1  0.07368360  0.31435229  0.07306443  1
  O  O481  1  0.07403327  0.31513022  0.32313267  1
  O  O482  1  0.07357163  0.31532937  0.57516015  1
  O  O483  1  0.07272221  0.31394496  0.82374380  1
  O  O484  1  0.07394300  0.64494219  0.07411044  1
  O  O485  1  0.07371446  0.64653827  0.32512726  1
  O  O486  1  0.07305033  0.64666313  0.57613482  1
  O  O487  1  0.07235271  0.64675022  0.82406293  1
  O  O488  1  0.07220102  0.98049819  0.07275703  1
  O  O489  1  0.07312094  0.98166250  0.32363664  1
  O  O490  1  0.07377371  0.98059094  0.57571538  1
  O  O491  1  0.07372829  0.98034216  0.82619142  1
  O  O492  1  0.57344187  0.31152542  0.07429732  1
  O  O493  1  0.57419116  0.31331488  0.32508040  1
  O  O494  1  0.57370081  0.31387454  0.57422593  1
  O  O495  1  0.57340907  0.31433069  0.82440723  1
  O  O496  1  0.57363646  0.64811454  0.07371196  1
  O  O497  1  0.57334047  0.64725201  0.32618982  1
  O  O498  1  0.57263999  0.64692486  0.57358320  1
  O  O499  1  0.57354794  0.64764791  0.82478403  1
  O  O500  1  0.57275897  0.98010536  0.07273323  1
  O  O501  1  0.57257226  0.98087839  0.32410350  1
  O  O502  1  0.57273097  0.97924219  0.57455253  1
  O  O503  1  0.57227398  0.98159467  0.82467758  1
  O  O504  1  0.42689677  0.01817395  0.17500703  1
  O  O505  1  0.42558907  0.01970394  0.42501894  1
  O  O506  1  0.42660944  0.01825046  0.67656324  1
  O  O507  1  0.42737499  0.02008176  0.92642320  1
  O  O508  1  0.42688247  0.35275645  0.17498331  1
  O  O509  1  0.42762995  0.35248808  0.42678665  1
  O  O510  1  0.42716566  0.35196747  0.67552402  1
  O  O511  1  0.42609580  0.35304655  0.92472929  1
  O  O512  1  0.42587311  0.68668245  0.17483771  1
  O  O513  1  0.42702666  0.68653639  0.42674390  1
  O  O514  1  0.42651685  0.68622382  0.67421005  1
  O  O515  1  0.42719817  0.68666488  0.92641777  1
  O  O516  1  0.92694297  0.01869569  0.17563238  1
  O  O517  1  0.92628886  0.02085983  0.42514897  1
  O  O518  1  0.92678721  0.02185392  0.67577990  1
  O  O519  1  0.92665818  0.01957087  0.92530976  1
  O  O520  1  0.92718855  0.35170349  0.17491243  1
  O  O521  1  0.92741384  0.35130041  0.42661279  1
  O  O522  1  0.92716976  0.35315697  0.67740233  1
  O  O523  1  0.92811408  0.35292462  0.92575889  1
  O  O524  1  0.92660783  0.68619586  0.17350004  1
  O  O525  1  0.92561407  0.68686639  0.42497489  1
  O  O526  1  0.92602055  0.68562358  0.67710029  1
  O  O527  1  0.92682142  0.68712488  0.92532578  1
  O  O528  1  0.17660900  0.02122170  0.19870587  1
  O  O529  1  0.17670990  0.01877464  0.44954513  1
  O  O530  1  0.17629490  0.02142024  0.70053520  1
  O  O531  1  0.17741950  0.01938801  0.94904366  1
  O  O532  1  0.17903565  0.35292140  0.19748393  1
  O  O533  1  0.17758083  0.35425414  0.44986399  1
  O  O534  1  0.17697046  0.35459370  0.70003041  1
  O  O535  1  0.17838600  0.35289383  0.94794141  1
  O  O536  1  0.17534693  0.68627636  0.20030546  1
  O  O537  1  0.17609706  0.68604556  0.45158899  1
  O  O538  1  0.17885481  0.68616128  0.69924663  1
  O  O539  1  0.17662469  0.68685635  0.94938884  1
  O  O540  1  0.67658587  0.01854784  0.19884901  1
  O  O541  1  0.67715795  0.01901149  0.44855439  1
  O  O542  1  0.67655950  0.01857011  0.70007429  1
  O  O543  1  0.67836862  0.01938114  0.94782376  1
  O  O544  1  0.67726781  0.35107257  0.19855740  1
  O  O545  1  0.67639958  0.35327080  0.45140401  1
  O  O546  1  0.67776405  0.35418856  0.70055539  1
  O  O547  1  0.67658288  0.35430930  0.94918605  1
  O  O548  1  0.67658436  0.68782061  0.19897712  1
  O  O549  1  0.67666468  0.68660289  0.45112360  1
  O  O550  1  0.67654385  0.68826197  0.70081973  1
  O  O551  1  0.67860965  0.68724748  0.94806808  1
  O  O552  1  0.32190115  0.31383115  0.05147956  1
  O  O553  1  0.32420619  0.31346368  0.29894851  1
  O  O554  1  0.32370827  0.31210607  0.55010210  1
  O  O555  1  0.32285998  0.31509079  0.80032834  1
  O  O556  1  0.32272085  0.64556431  0.04990363  1
  O  O557  1  0.32310631  0.64528123  0.30061499  1
  O  O558  1  0.32149778  0.64664534  0.55216760  1
  O  O559  1  0.32353603  0.64579446  0.79997971  1
  O  O560  1  0.32340622  0.97992288  0.04877595  1
  O  O561  1  0.32231407  0.98183083  0.30108058  1
  O  O562  1  0.32306707  0.97906865  0.55112803  1
  O  O563  1  0.32126897  0.98071578  0.80144215  1
  O  O564  1  0.82279050  0.31443166  0.05023283  1
  O  O565  1  0.82330501  0.31142815  0.30027798  1
  O  O566  1  0.82426089  0.31237195  0.54965698  1
  O  O567  1  0.82348517  0.31236014  0.80012601  1
  O  O568  1  0.82379420  0.64729849  0.04844523  1
  O  O569  1  0.82391888  0.64703719  0.29967244  1
  O  O570  1  0.82354303  0.64590566  0.55124570  1
  O  O571  1  0.82104817  0.64781128  0.80136222  1
  O  O572  1  0.82164925  0.98059010  0.05092786  1
  O  O573  1  0.82274733  0.98125792  0.30060689  1
  O  O574  1  0.82231644  0.98066243  0.55219578  1
  O  O575  1  0.82146699  0.98060889  0.80204632  1
  O  O576  1  0.42733604  0.14511055  0.17446436  1
  O  O577  1  0.42583105  0.14650131  0.42440803  1
  O  O578  1  0.42638704  0.14545322  0.67575993  1
  O  O579  1  0.42816124  0.14738052  0.92613962  1
  O  O580  1  0.42670390  0.47989821  0.17497135  1
  O  O581  1  0.42827931  0.47993910  0.42778982  1
  O  O582  1  0.42775461  0.47905609  0.67483021  1
  O  O583  1  0.42643856  0.47990616  0.92399708  1
  O  O584  1  0.42540433  0.81334374  0.17404784  1
  O  O585  1  0.42694984  0.81414848  0.42676985  1
  O  O586  1  0.42557608  0.81288697  0.67472860  1
  O  O587  1  0.42827214  0.81424433  0.92669506  1
  O  O588  1  0.92714215  0.14590702  0.17425934  1
  O  O589  1  0.92656149  0.14769535  0.42396469  1
  O  O590  1  0.92685858  0.14911622  0.67656138  1
  O  O591  1  0.92686252  0.14660360  0.92588853  1
  O  O592  1  0.92731825  0.47859660  0.17448760  1
  O  O593  1  0.92688647  0.47837418  0.42532774  1
  O  O594  1  0.92842404  0.48030066  0.67754105  1
  O  O595  1  0.92849378  0.48016329  0.92605916  1
  O  O596  1  0.92563260  0.81321192  0.17405150  1
  O  O597  1  0.92539255  0.81397960  0.42500618  1
  O  O598  1  0.92655871  0.81283871  0.67619360  1
  O  O599  1  0.92734001  0.81429466  0.92555648  1
  O  O600  1  0.07314516  0.18732874  0.07458710  1
  O  O601  1  0.07391391  0.18803243  0.32446348  1
  O  O602  1  0.07340360  0.18841414  0.57500075  1
  O  O603  1  0.07220168  0.18655410  0.82391744  1
  O  O604  1  0.07350752  0.51780929  0.07318149  1
  O  O605  1  0.07420326  0.51947744  0.32523015  1
  O  O606  1  0.07352232  0.51994492  0.57668722  1
  O  O607  1  0.07158841  0.51929258  0.82305207  1
  O  O608  1  0.07165247  0.85302492  0.07355668  1
  O  O609  1  0.07293655  0.85451438  0.32429009  1
  O  O610  1  0.07317115  0.85340318  0.57533654  1
  O  O611  1  0.07367404  0.85364168  0.82598623  1
  O  O612  1  0.57351596  0.18429628  0.07344266  1
  O  O613  1  0.57434670  0.18642702  0.32581930  1
  O  O614  1  0.57298133  0.18665069  0.57532753  1
  O  O615  1  0.57367399  0.18729472  0.82418736  1
  O  O616  1  0.57347752  0.52083998  0.07447194  1
  O  O617  1  0.57389255  0.52044644  0.32600167  1
  O  O618  1  0.57136296  0.51934552  0.57321388  1
  O  O619  1  0.57420733  0.52079092  0.82561744  1
  O  O620  1  0.57111920  0.85292753  0.07271298  1
  O  O621  1  0.57264186  0.85377241  0.32376157  1
  O  O622  1  0.57299986  0.85219711  0.57456321  1
  O  O623  1  0.57228858  0.85457012  0.82519918  1
  O  O624  1  0.32221008  0.18641049  0.05061933  1
  O  O625  1  0.32423640  0.18681474  0.29890681  1
  O  O626  1  0.32280131  0.18480554  0.55097139  1
  O  O627  1  0.32360508  0.18812550  0.80052151  1
  O  O628  1  0.32367111  0.51843015  0.05028586  1
  O  O629  1  0.32337610  0.51822031  0.30159342  1
  O  O630  1  0.32258817  0.51928539  0.55218482  1
  O  O631  1  0.32334588  0.51885918  0.80044130  1
  O  O632  1  0.32282038  0.85320748  0.04921898  1
  O  O633  1  0.32278988  0.85448274  0.30052487  1
  O  O634  1  0.32265029  0.85210660  0.55094078  1
  O  O635  1  0.32284900  0.85320276  0.80191022  1
  O  O636  1  0.82350727  0.18730737  0.05006826  1
  O  O637  1  0.82324935  0.18426123  0.30000171  1
  O  O638  1  0.82403336  0.18554049  0.55010994  1
  O  O639  1  0.82310694  0.18508107  0.80122284  1
  O  O640  1  0.82422383  0.52051427  0.04884238  1
  O  O641  1  0.82427975  0.51985347  0.29925927  1
  O  O642  1  0.82345465  0.51870717  0.55173141  1
  O  O643  1  0.82252823  0.52034337  0.80199649  1
  O  O644  1  0.82159620  0.85339676  0.05121958  1
  O  O645  1  0.82257034  0.85449037  0.30010010  1
  O  O646  1  0.82216404  0.85330562  0.55204387  1
  O  O647  1  0.82288896  0.85364592  0.80163584  1
  O  O648  1  0.17631483  0.14825651  0.19899627  1
  O  O649  1  0.17663309  0.14597295  0.44947136  1
  O  O650  1  0.17755754  0.14858876  0.69977797  1
  O  O651  1  0.17649758  0.14643381  0.94921944  1
  O  O652  1  0.17774064  0.48010811  0.19773543  1
  O  O653  1  0.17745684  0.48139464  0.44915086  1
  O  O654  1  0.17741294  0.48150589  0.69988767  1
  O  O655  1  0.17806400  0.48008195  0.94791590  1
  O  O656  1  0.17561997  0.81339205  0.20033675  1
  O  O657  1  0.17569563  0.81278719  0.45126780  1
  O  O658  1  0.17734720  0.81362352  0.69909983  1
  O  O659  1  0.17674370  0.81403362  0.94879543  1
  O  O660  1  0.67655266  0.14530062  0.19941925  1
  O  O661  1  0.67782226  0.14642515  0.44881734  1
  O  O662  1  0.67687980  0.14542138  0.70000769  1
  O  O663  1  0.67780838  0.14678695  0.94878752  1
  O  O664  1  0.67686330  0.47841007  0.19949210  1
  O  O665  1  0.67694679  0.48011321  0.44994370  1
  O  O666  1  0.67690863  0.48143354  0.69914751  1
  O  O667  1  0.67710389  0.48132745  0.94965812  1
  O  O668  1  0.67617628  0.81501543  0.19835908  1
  O  O669  1  0.67581560  0.81353826  0.45064443  1
  O  O670  1  0.67667386  0.81524062  0.69992899  1
  O  O671  1  0.67720150  0.81457154  0.94844590  1
