# generated using pymatgen
data_Na2MnFe(PO4)2
_symmetry_space_group_name_H-M   'P 1'
_cell_length_a   22.34622525
_cell_length_b   20.09756800
_cell_length_c   19.44695283
_cell_angle_alpha   90.00275842
_cell_angle_beta   90.03027166
_cell_angle_gamma   90.02957217
_symmetry_Int_Tables_number   1
_chemical_formula_structural   Na2MnFe(PO4)2
_chemical_formula_sum   'Na96 Mn48 Fe48 P96 O384'
_cell_volume   8733.71710688
_cell_formula_units_Z   48
loop_
 _symmetry_equiv_pos_site_id
 _symmetry_equiv_pos_as_xyz
  1  'x, y, z'
loop_
 _atom_site_type_symbol
 _atom_site_label
 _atom_site_symmetry_multiplicity
 _atom_site_fract_x
 _atom_site_fract_y
 _atom_site_fract_z
 _atom_site_occupancy
  Na  Na0  1  0.14010920  0.25052511  0.24420156  1
  Na  Na1  1  0.13981355  0.25123096  0.49370686  1
  Na  Na2  1  0.14025338  0.24924554  0.74239033  1
  Na  Na3  1  0.14071846  0.24885979  0.99457125  1
  Na  Na4  1  0.13996659  0.58486663  0.24359692  1
  Na  Na5  1  0.13998003  0.58377671  0.49440407  1
  Na  Na6  1  0.13988077  0.58191891  0.74345031  1
  Na  Na7  1  0.13945200  0.58233390  0.99414663  1
  Na  Na8  1  0.13985551  0.91755946  0.24282271  1
  Na  Na9  1  0.13993686  0.91700256  0.49380063  1
  Na  Na10  1  0.13956699  0.91537961  0.74365507  1
  Na  Na11  1  0.13932837  0.91541948  0.99444258  1
  Na  Na12  1  0.64085106  0.25040298  0.24354755  1
  Na  Na13  1  0.64048924  0.25078328  0.49358300  1
  Na  Na14  1  0.64068715  0.25028218  0.74367514  1
  Na  Na15  1  0.64133218  0.25025505  0.99253755  1
  Na  Na16  1  0.64036302  0.58349171  0.24292477  1
  Na  Na17  1  0.64053965  0.58233066  0.49346551  1
  Na  Na18  1  0.64052910  0.58311556  0.74351698  1
  Na  Na19  1  0.64020822  0.58440769  0.99334867  1
  Na  Na20  1  0.64049062  0.91639651  0.24307493  1
  Na  Na21  1  0.64000025  0.91657189  0.49406739  1
  Na  Na22  1  0.64051296  0.91727236  0.74514953  1
  Na  Na23  1  0.64057985  0.91772596  0.99296920  1
  Na  Na24  1  0.36011497  0.08209189  0.00623617  1
  Na  Na25  1  0.36021247  0.08421862  0.25598407  1
  Na  Na26  1  0.36045986  0.08381244  0.50729166  1
  Na  Na27  1  0.36025775  0.08200483  0.75544067  1
  Na  Na28  1  0.35961408  0.41592897  0.00607307  1
  Na  Na29  1  0.35947806  0.41853011  0.25570309  1
  Na  Na30  1  0.35916463  0.41804466  0.50563295  1
  Na  Na31  1  0.35946288  0.41640652  0.75426570  1
  Na  Na32  1  0.35999002  0.74889836  0.00669601  1
  Na  Na33  1  0.35952172  0.74996479  0.25595539  1
  Na  Na34  1  0.35974877  0.74909241  0.50666189  1
  Na  Na35  1  0.35982063  0.74875457  0.75488617  1
  Na  Na36  1  0.85985988  0.08241182  0.00693344  1
  Na  Na37  1  0.86031085  0.08345490  0.25709064  1
  Na  Na38  1  0.86057412  0.08470434  0.50712672  1
  Na  Na39  1  0.85981683  0.08403389  0.75835852  1
  Na  Na40  1  0.85941593  0.41789978  0.00519793  1
  Na  Na41  1  0.85937886  0.41719945  0.25573745  1
  Na  Na42  1  0.85946857  0.41651481  0.50609864  1
  Na  Na43  1  0.85946164  0.41665976  0.75646920  1
  Na  Na44  1  0.85946579  0.75035681  0.00863718  1
  Na  Na45  1  0.85979856  0.74937178  0.25545697  1
  Na  Na46  1  0.85953063  0.74931749  0.50616720  1
  Na  Na47  1  0.85949861  0.75018405  0.75837806  1
  Na  Na48  1  0.10941394  0.08250434  0.11919229  1
  Na  Na49  1  0.10911061  0.08273437  0.36944168  1
  Na  Na50  1  0.10889820  0.08411840  0.61828752  1
  Na  Na51  1  0.10920454  0.08124683  0.86914388  1
  Na  Na52  1  0.10953092  0.41767048  0.11850086  1
  Na  Na53  1  0.10953229  0.41665382  0.36893087  1
  Na  Na54  1  0.10966371  0.41660970  0.61788843  1
  Na  Na55  1  0.10949555  0.41618303  0.86856047  1
  Na  Na56  1  0.10888433  0.75025325  0.11866369  1
  Na  Na57  1  0.10938274  0.75063773  0.36812220  1
  Na  Na58  1  0.10886175  0.75093924  0.61892656  1
  Na  Na59  1  0.10892366  0.74862404  0.86980006  1
  Na  Na60  1  0.61026780  0.08319050  0.11796024  1
  Na  Na61  1  0.60972586  0.08295709  0.36976588  1
  Na  Na62  1  0.60960589  0.08238858  0.61997220  1
  Na  Na63  1  0.61019499  0.08286667  0.86849454  1
  Na  Na64  1  0.60984013  0.41880953  0.11820360  1
  Na  Na65  1  0.61026347  0.41623437  0.36763022  1
  Na  Na66  1  0.61054821  0.41649366  0.61740430  1
  Na  Na67  1  0.61013644  0.41715453  0.86701952  1
  Na  Na68  1  0.60977593  0.75138018  0.11686688  1
  Na  Na69  1  0.60938567  0.74909281  0.36914243  1
  Na  Na70  1  0.60950675  0.75061134  0.61927248  1
  Na  Na71  1  0.60981585  0.75159931  0.86956991  1
  Na  Na72  1  0.39102301  0.25037000  0.13110055  1
  Na  Na73  1  0.39113271  0.24905948  0.38078131  1
  Na  Na74  1  0.39089232  0.24872879  0.63107533  1
  Na  Na75  1  0.39051852  0.24850373  0.88028327  1
  Na  Na76  1  0.39026969  0.58375948  0.13139484  1
  Na  Na77  1  0.38958188  0.58346615  0.38184490  1
  Na  Na78  1  0.38994233  0.58386211  0.63033329  1
  Na  Na79  1  0.39057747  0.58431362  0.88009069  1
  Na  Na80  1  0.39059825  0.91722193  0.13077348  1
  Na  Na81  1  0.39091538  0.91669223  0.38191291  1
  Na  Na82  1  0.39082359  0.91677895  0.63065752  1
  Na  Na83  1  0.39069971  0.91631368  0.88125455  1
  Na  Na84  1  0.89073358  0.24917630  0.13127202  1
  Na  Na85  1  0.89089407  0.24911918  0.38221586  1
  Na  Na86  1  0.89018624  0.25139057  0.63168968  1
  Na  Na87  1  0.89035129  0.24927144  0.88149696  1
  Na  Na88  1  0.88967183  0.58376229  0.13146215  1
  Na  Na89  1  0.88980053  0.58276127  0.38085145  1
  Na  Na90  1  0.88999196  0.58331088  0.63208641  1
  Na  Na91  1  0.89050297  0.58307462  0.88250770  1
  Na  Na92  1  0.89004205  0.91642693  0.13230206  1
  Na  Na93  1  0.89071824  0.91742483  0.37991903  1
  Na  Na94  1  0.89072088  0.91827636  0.63214349  1
  Na  Na95  1  0.89016996  0.91520784  0.88386114  1
  Mn  Mn96  1  0.49950949  0.50156649  -0.00155859  1
  Mn  Mn97  1  0.24991411  0.83254418  0.62455548  1
  Mn  Mn98  1  0.74968588  0.66548719  0.62602841  1
  Mn  Mn99  1  0.49997645  0.50038320  0.49939274  1
  Mn  Mn100  1  0.50096566  0.00059636  0.25088241  1
  Mn  Mn101  1  0.24985158  0.66531424  0.87532668  1
  Mn  Mn102  1  0.24987613  0.33247632  0.87513464  1
  Mn  Mn103  1  0.74995793  0.83287825  0.37450561  1
  Mn  Mn104  1  0.25026855  0.00073746  0.37398809  1
  Mn  Mn105  1  0.75058992  0.83334576  0.62597944  1
  Mn  Mn106  1  -0.00055637  0.33231961  0.24970833  1
  Mn  Mn107  1  0.50055240  0.33324858  0.24962175  1
  Mn  Mn108  1  0.24975558  0.33356498  0.12512567  1
  Mn  Mn109  1  0.25000218  0.16661436  0.62463231  1
  Mn  Mn110  1  0.25007497  0.49882880  0.87408366  1
  Mn  Mn111  1  0.75058196  0.00020111  0.37515520  1
  Mn  Mn112  1  0.25002284  0.16784507  0.37572849  1
  Mn  Mn113  1  0.75023217  0.66653595  0.87569381  1
  Mn  Mn114  1  0.49992718  0.33201233  0.49885640  1
  Mn  Mn115  1  0.75067225  0.00023962  0.62614943  1
  Mn  Mn116  1  0.75057746  0.33452163  0.12376373  1
  Mn  Mn117  1  0.49968644  0.83357277  0.74990778  1
  Mn  Mn118  1  0.00040279  0.33333022  0.75039074  1
  Mn  Mn119  1  0.50033344  0.83343698  0.24999730  1
  Mn  Mn120  1  0.49924586  0.66654655  0.24948838  1
  Mn  Mn121  1  0.25040329  0.83324061  0.37540646  1
  Mn  Mn122  1  0.00032745  0.49982782  0.49985537  1
  Mn  Mn123  1  0.24995928  -0.00140594  0.87552161  1
  Mn  Mn124  1  0.00076290  0.33330311  0.00013111  1
  Mn  Mn125  1  0.25001888  -0.00017667  0.12488461  1
  Mn  Mn126  1  -0.00089018  0.83479523  0.49901603  1
  Mn  Mn127  1  -0.00064851  0.50053491  0.24976119  1
  Mn  Mn128  1  -0.00087221  0.66756706  0.50059922  1
  Mn  Mn129  1  0.00053740  0.16517141  0.00075091  1
  Mn  Mn130  1  -0.00021694  -0.00016330  0.75040655  1
  Mn  Mn131  1  0.50064275  0.33386515  -0.00024629  1
  Mn  Mn132  1  0.74974188  0.16809268  0.37547328  1
  Mn  Mn133  1  0.24967088  0.66640297  0.12519866  1
  Mn  Mn134  1  0.74986884  0.16806818  0.62616653  1
  Mn  Mn135  1  0.50097427  0.16604126  -0.00000367  1
  Mn  Mn136  1  0.24995075  0.16548933  0.87373123  1
  Mn  Mn137  1  0.75136666  0.16652524  0.12454600  1
  Mn  Mn138  1  0.25072809  0.33536930  0.37369313  1
  Mn  Mn139  1  0.50001804  0.50114750  0.74880059  1
  Mn  Mn140  1  0.24990040  0.83184254  0.87396518  1
  Mn  Mn141  1  0.74956283  0.66555157  0.37504205  1
  Mn  Mn142  1  -0.00049940  0.66687488  0.75085330  1
  Mn  Mn143  1  0.49990943  0.33240966  0.74881556  1
  Fe  Fe144  1  0.75032907  0.49918445  0.62474873  1
  Fe  Fe145  1  0.24900195  0.50143317  0.37580791  1
  Fe  Fe146  1  0.50015210  0.66757123  -0.00003469  1
  Fe  Fe147  1  -0.00006378  0.49998074  0.75034381  1
  Fe  Fe148  1  0.50040162  0.16550315  0.75011030  1
  Fe  Fe149  1  0.24995793  -0.00049057  0.62476899  1
  Fe  Fe150  1  0.75072227  -0.00015232  0.87628668  1
  Fe  Fe151  1  0.50042446  -0.00038302  0.74980765  1
  Fe  Fe152  1  0.74999101  0.50007819  0.87468719  1
  Fe  Fe153  1  0.24927028  0.66681271  0.37516701  1
  Fe  Fe154  1  0.00008347  0.83345775  0.24939705  1
  Fe  Fe155  1  0.75016599  0.16708313  0.87512966  1
  Fe  Fe156  1  0.74958570  0.00028294  0.12469495  1
  Fe  Fe157  1  0.24921369  0.66592926  0.62473240  1
  Fe  Fe158  1  0.50062302  0.66662419  0.49946872  1
  Fe  Fe159  1  -0.00006322  -0.00019802  0.25036227  1
  Fe  Fe160  1  0.74980625  0.33423746  0.87474289  1
  Fe  Fe161  1  0.00003397  0.00047470  0.49996533  1
  Fe  Fe162  1  0.25041365  0.16655088  0.12483628  1
  Fe  Fe163  1  0.25010418  0.33384095  0.62393453  1
  Fe  Fe164  1  0.50073165  0.16624988  0.25000325  1
  Fe  Fe165  1  0.50004421  0.83305764  0.50057044  1
  Fe  Fe166  1  0.49975840  0.83415481  -0.00078759  1
  Fe  Fe167  1  -0.00041541  0.33306182  0.50030842  1
  Fe  Fe168  1  0.50009805  0.50053283  0.24955212  1
  Fe  Fe169  1  -0.00022802  0.16661425  0.50019043  1
  Fe  Fe170  1  0.75035868  0.33430012  0.37453844  1
  Fe  Fe171  1  0.49983044  0.00033636  -0.00029877  1
  Fe  Fe172  1  0.50019875  -0.00006006  0.50043875  1
  Fe  Fe173  1  0.74988280  0.83371677  0.12514267  1
  Fe  Fe174  1  -0.00015301  0.16690556  0.74967874  1
  Fe  Fe175  1  0.50058806  0.16545607  0.50048557  1
  Fe  Fe176  1  0.24976509  0.50010430  0.62438194  1
  Fe  Fe177  1  0.75007223  0.83359545  0.87657715  1
  Fe  Fe178  1  0.24957040  0.50039448  0.12551229  1
  Fe  Fe179  1  -0.00066103  -0.00097700  0.00076513  1
  Fe  Fe180  1  0.50015572  0.66776016  0.74974031  1
  Fe  Fe181  1  -0.00072726  0.83327647  0.75125017  1
  Fe  Fe182  1  -0.00044922  0.50030805  0.00013113  1
  Fe  Fe183  1  0.75017145  0.49966471  0.37459977  1
  Fe  Fe184  1  -0.00046952  0.66661581  0.00035819  1
  Fe  Fe185  1  -0.00048633  0.83286588  0.00098348  1
  Fe  Fe186  1  -0.00028765  0.66699497  0.24966931  1
  Fe  Fe187  1  0.24992255  0.83295104  0.12527034  1
  Fe  Fe188  1  0.74996603  0.33407364  0.62540067  1
  Fe  Fe189  1  0.74929470  0.50022822  0.12477104  1
  Fe  Fe190  1  0.74977408  0.66662072  0.12491131  1
  Fe  Fe191  1  0.00065880  0.16576735  0.25098995  1
  P  P192  1  0.04297737  0.24909712  0.10386711  1
  P  P193  1  0.04193323  0.24838907  0.35356267  1
  P  P194  1  0.04112030  0.24991472  0.60191111  1
  P  P195  1  0.04253802  0.24809868  0.85245059  1
  P  P196  1  0.04076404  0.58410410  0.10209681  1
  P  P197  1  0.04184059  0.58473731  0.35228640  1
  P  P198  1  0.04193658  0.58357674  0.60390876  1
  P  P199  1  0.04171877  0.58192168  0.85341355  1
  P  P200  1  0.04071092  0.91643821  0.10277544  1
  P  P201  1  0.04154718  0.91684729  0.35143144  1
  P  P202  1  0.04173929  0.91828117  0.60264926  1
  P  P203  1  0.04167497  0.91483463  0.85379324  1
  P  P204  1  0.54382486  0.25020793  0.10312862  1
  P  P205  1  0.54258404  0.24790827  0.35257654  1
  P  P206  1  0.54233369  0.24775530  0.60249110  1
  P  P207  1  0.54247081  0.24838841  0.85194041  1
  P  P208  1  0.54195574  0.58491441  0.10221236  1
  P  P209  1  0.54202734  0.58268481  0.35226499  1
  P  P210  1  0.54234062  0.58527583  0.60232875  1
  P  P211  1  0.54233295  0.58591346  0.85208582  1
  P  P212  1  0.54153762  0.91730346  0.10106730  1
  P  P213  1  0.54309107  0.91626885  0.35438145  1
  P  P214  1  0.54155084  0.91692991  0.60212622  1
  P  P215  1  0.54189631  0.91785699  0.85303815  1
  P  P216  1  0.45839349  0.08410485  0.14751899  1
  P  P217  1  0.45860109  0.08310419  0.39857304  1
  P  P218  1  0.45897972  0.08262852  0.64785410  1
  P  P219  1  0.45812818  0.08192930  0.89669582  1
  P  P220  1  0.45798950  0.41840374  0.14718555  1
  P  P221  1  0.45759812  0.41667431  0.39585961  1
  P  P222  1  0.45757585  0.41658754  0.64584001  1
  P  P223  1  0.45719430  0.41675170  0.89591869  1
  P  P224  1  0.45746381  0.75066985  0.14578938  1
  P  P225  1  0.45836561  0.74987451  0.39853449  1
  P  P226  1  0.45816085  0.74927005  0.64630131  1
  P  P227  1  0.45865649  0.75006724  0.89794806  1
  P  P228  1  0.95862897  0.08275129  0.14891660  1
  P  P229  1  0.95851310  0.08326792  0.39810899  1
  P  P230  1  0.95742902  0.08504660  0.64745382  1
  P  P231  1  0.95770080  0.08111947  0.89803586  1
  P  P232  1  0.95725765  0.41698892  0.14620486  1
  P  P233  1  0.95777051  0.41512252  0.39761597  1
  P  P234  1  0.95811204  0.41746439  0.64763657  1
  P  P235  1  0.95835853  0.41781727  0.89729141  1
  P  P236  1  0.95857310  0.75000276  0.14760045  1
  P  P237  1  0.95696051  0.75032833  0.39569748  1
  P  P238  1  0.95696028  0.75188929  0.64843881  1
  P  P239  1  0.95793606  0.74967342  0.89915406  1
  P  P240  1  0.20777987  0.08488792  0.22726816  1
  P  P241  1  0.20758698  0.08314875  0.47863611  1
  P  P242  1  0.20759787  0.08126372  0.72688493  1
  P  P243  1  0.20734701  0.08294957  0.97848359  1
  P  P244  1  0.20721678  0.41896702  0.22784929  1
  P  P245  1  0.20776382  0.41836375  0.47797064  1
  P  P246  1  0.20818169  0.41626844  0.72571659  1
  P  P247  1  0.20687109  0.41641864  0.97851859  1
  P  P248  1  0.20745351  0.75108886  0.22782015  1
  P  P249  1  0.20747241  0.74842999  0.47788282  1
  P  P250  1  0.20707731  0.74790506  0.72703838  1
  P  P251  1  0.20728250  0.74947735  0.97872686  1
  P  P252  1  0.70823030  0.08280715  0.22720628  1
  P  P253  1  0.70777607  0.08407320  0.47870303  1
  P  P254  1  0.70813779  0.08380830  0.72992859  1
  P  P255  1  0.70922893  0.08341903  0.97690813  1
  P  P256  1  0.70785694  0.41795027  0.22749431  1
  P  P257  1  0.70855186  0.41673702  0.47686441  1
  P  P258  1  0.70817923  0.41695743  0.72710214  1
  P  P259  1  0.70821911  0.41780944  0.97632365  1
  P  P260  1  0.70831654  0.74993755  0.22613634  1
  P  P261  1  0.70730135  0.74934475  0.47830364  1
  P  P262  1  0.70753981  0.75006675  0.72950337  1
  P  P263  1  0.70842254  0.75132825  0.97889357  1
  P  P264  1  0.29264953  0.24847274  0.02250209  1
  P  P265  1  0.29300641  0.25039032  0.27112524  1
  P  P266  1  0.29260159  0.25184955  0.52218583  1
  P  P267  1  0.29251434  0.25004929  0.77058807  1
  P  P268  1  0.29239395  0.58155947  0.02285064  1
  P  P269  1  0.29095498  0.58367749  0.27352053  1
  P  P270  1  0.29090462  0.58357972  0.52258768  1
  P  P271  1  0.29241048  0.58270143  0.77044724  1
  P  P272  1  0.29213445  0.91455578  0.02265173  1
  P  P273  1  0.29305300  0.91631265  0.27125982  1
  P  P274  1  0.29231718  0.91743876  0.52243866  1
  P  P275  1  0.29279237  0.91613306  0.77097388  1
  P  P276  1  0.79311479  0.25039799  0.02057976  1
  P  P277  1  0.79278358  0.25181339  0.27252203  1
  P  P278  1  0.79189916  0.25246810  0.52277081  1
  P  P279  1  0.79133423  0.25107139  0.77366374  1
  P  P280  1  0.79082082  0.58308082  0.02323824  1
  P  P281  1  0.79164092  0.58205875  0.27146733  1
  P  P282  1  0.79223008  0.58128457  0.52250458  1
  P  P283  1  0.79245691  0.58165202  0.77265030  1
  P  P284  1  0.79118094  0.91695712  0.02340665  1
  P  P285  1  0.79246134  0.91657657  0.27070938  1
  P  P286  1  0.79322509  0.91669133  0.52238823  1
  P  P287  1  0.79175213  0.91642967  0.77494559  1
  O  O288  1  0.03751205  0.24866090  0.18379748  1
  O  O289  1  0.03619693  0.24889761  0.43345729  1
  O  O290  1  0.03637442  0.24980263  0.68191654  1
  O  O291  1  0.03760892  0.24838893  0.93240228  1
  O  O292  1  0.03552092  0.58475600  0.18203993  1
  O  O293  1  0.03684157  0.58443033  0.43226586  1
  O  O294  1  0.03652240  0.58298252  0.68384822  1
  O  O295  1  0.03632794  0.58191971  0.93334064  1
  O  O296  1  0.03591672  0.91610852  0.18266644  1
  O  O297  1  0.03665106  0.91758565  0.43138743  1
  O  O298  1  0.03653417  0.91760762  0.68252581  1
  O  O299  1  0.03636538  0.91517829  0.93367606  1
  O  O300  1  0.53876754  0.24993620  0.18310420  1
  O  O301  1  0.53701856  0.24770583  0.43251772  1
  O  O302  1  0.53683465  0.24777544  0.68241709  1
  O  O303  1  0.53765375  0.24895381  0.93193766  1
  O  O304  1  0.53661710  0.58378021  0.18215596  1
  O  O305  1  0.53720267  0.58341312  0.43224615  1
  O  O306  1  0.53700188  0.58548862  0.68226021  1
  O  O307  1  0.53684523  0.58586253  0.93203487  1
  O  O308  1  0.53727164  0.91699494  0.18111764  1
  O  O309  1  0.53762071  0.91606334  0.43426296  1
  O  O310  1  0.53645497  0.91704333  0.68212445  1
  O  O311  1  0.53652216  0.91780561  0.93288240  1
  O  O312  1  0.46338151  0.08335604  0.06758408  1
  O  O313  1  0.46388388  0.08362633  0.31862761  1
  O  O314  1  0.46424316  0.08279271  0.56795012  1
  O  O315  1  0.46344685  0.08196466  0.81682075  1
  O  O316  1  0.46300776  0.41834949  0.06717104  1
  O  O317  1  0.46304053  0.41729367  0.31592297  1
  O  O318  1  0.46270973  0.41644987  0.56587519  1
  O  O319  1  0.46230781  0.41665348  0.81593212  1
  O  O320  1  0.46260988  0.75052267  0.06588734  1
  O  O321  1  0.46297013  0.75010446  0.31848370  1
  O  O322  1  0.46385981  0.74956070  0.56645651  1
  O  O323  1  0.46355642  0.74996530  0.81795736  1
  O  O324  1  0.96348004  0.08186536  0.06897248  1
  O  O325  1  0.96390066  0.08336782  0.31825056  1
  O  O326  1  0.96258020  0.08492293  0.56758540  1
  O  O327  1  0.96272604  0.08165565  0.81818324  1
  O  O328  1  0.96280985  0.41758091  0.06627814  1
  O  O329  1  0.96264068  0.41521237  0.31764362  1
  O  O330  1  0.96324592  0.41662417  0.56768193  1
  O  O331  1  0.96381197  0.41807004  0.81731533  1
  O  O332  1  0.96379341  0.74970187  0.06769422  1
  O  O333  1  0.96259833  0.75003967  0.31579793  1
  O  O334  1  0.96186275  0.75187306  0.56843933  1
  O  O335  1  0.96250678  0.75038695  0.81917986  1
  O  O336  1  0.21273382  0.08383918  0.05844209  1
  O  O337  1  0.21281469  0.08470025  0.30725861  1
  O  O338  1  0.21283518  0.08232021  0.55860251  1
  O  O339  1  0.21247416  0.08134052  0.80691346  1
  O  O340  1  0.21184800  0.41704270  0.05850400  1
  O  O341  1  0.21251635  0.41942035  0.30781788  1
  O  O342  1  0.21344141  0.41765006  0.55785230  1
  O  O343  1  0.21299489  0.41577829  0.80577242  1
  O  O344  1  0.21250738  0.75028178  0.05871331  1
  O  O345  1  0.21258455  0.75053715  0.30778011  1
  O  O346  1  0.21268289  0.74814716  0.55784376  1
  O  O347  1  0.21212744  0.74814052  0.80705133  1
  O  O348  1  0.71408510  0.08275566  0.05690142  1
  O  O349  1  0.71313628  0.08322867  0.30719172  1
  O  O350  1  0.71293791  0.08422895  0.55869057  1
  O  O351  1  0.71364247  0.08390363  0.80982363  1
  O  O352  1  0.71300077  0.41793566  0.05627265  1
  O  O353  1  0.71342325  0.41753100  0.30735756  1
  O  O354  1  0.71369384  0.41661030  0.55679938  1
  O  O355  1  0.71328487  0.41710195  0.80698792  1
  O  O356  1  0.71384439  0.75115117  0.05878609  1
  O  O357  1  0.71287196  0.74942668  0.30616952  1
  O  O358  1  0.71249709  0.74919565  0.55827429  1
  O  O359  1  0.71293556  0.75055960  0.80948853  1
  O  O360  1  0.28768524  0.24954341  0.19117384  1
  O  O361  1  0.28762115  0.25182889  0.44218328  1
  O  O362  1  0.28708804  0.25080347  0.69062537  1
  O  O363  1  0.28735140  0.24852032  0.94246835  1
  O  O364  1  0.28579529  0.58319674  0.19354451  1
  O  O365  1  0.28555032  0.58394836  0.44266679  1
  O  O366  1  0.28690063  0.58298836  0.69053985  1
  O  O367  1  0.28767082  0.58173337  0.94283930  1
  O  O368  1  0.28783302  0.91562549  0.19127947  1
  O  O369  1  0.28754679  0.91738235  0.44242272  1
  O  O370  1  0.28757148  0.91690827  0.69099393  1
  O  O371  1  0.28710321  0.91453375  0.94265906  1
  O  O372  1  0.78812549  0.25139780  0.19249380  1
  O  O373  1  0.78666234  0.25259441  0.44281898  1
  O  O374  1  0.78631407  0.25179989  0.69367557  1
  O  O375  1  0.78752644  0.24996541  0.94073213  1
  O  O376  1  0.78605736  0.58253317  0.19160626  1
  O  O377  1  0.78705566  0.58123210  0.44251496  1
  O  O378  1  0.78733989  0.58156041  0.69267900  1
  O  O379  1  0.78625914  0.58320181  0.94325329  1
  O  O380  1  0.78686501  0.91688443  0.19078763  1
  O  O381  1  0.78816646  0.91665323  0.44239312  1
  O  O382  1  0.78726514  0.91668644  0.69492447  1
  O  O383  1  0.78608123  0.91670698  0.94345820  1
  O  O384  1  0.22835377  0.24846107  0.05806376  1
  O  O385  1  0.22868754  0.25103463  0.30647771  1
  O  O386  1  0.22820429  0.25155200  0.55742486  1
  O  O387  1  0.22819256  0.24962010  0.80599931  1
  O  O388  1  0.22789660  0.58160120  0.05793673  1
  O  O389  1  0.22677747  0.58406359  0.30957699  1
  O  O390  1  0.22692000  0.58319067  0.55906698  1
  O  O391  1  0.22818561  0.58246720  0.80622143  1
  O  O392  1  0.22782140  0.91493005  0.05811553  1
  O  O393  1  0.22865437  0.91646048  0.30639294  1
  O  O394  1  0.22790744  0.91711379  0.55756063  1
  O  O395  1  0.22837290  0.91572198  0.80609598  1
  O  O396  1  0.72900872  0.25014635  0.05651221  1
  O  O397  1  0.72835953  0.25237496  0.30775073  1
  O  O398  1  0.72769082  0.25246601  0.55860580  1
  O  O399  1  0.72723088  0.25019518  0.80960973  1
  O  O400  1  0.72664135  0.58275065  0.05897177  1
  O  O401  1  0.72759914  0.58116272  0.30781648  1
  O  O402  1  0.72798282  0.58113179  0.55827408  1
  O  O403  1  0.72813919  0.58200478  0.80821181  1
  O  O404  1  0.72706630  0.91700953  0.05958128  1
  O  O405  1  0.72829897  0.91678201  0.30656937  1
  O  O406  1  0.72878298  0.91673075  0.55741958  1
  O  O407  1  0.72745770  0.91606224  0.81033381  1
  O  O408  1  0.27213911  0.08463724  0.19192201  1
  O  O409  1  0.27196757  0.08358526  0.44346250  1
  O  O410  1  0.27200924  0.08163751  0.69170896  1
  O  O411  1  0.27167174  0.08281386  0.94311627  1
  O  O412  1  0.27148485  0.41868909  0.19211689  1
  O  O413  1  0.27181985  0.41941037  0.44165494  1
  O  O414  1  0.27238672  0.41656798  0.68998699  1
  O  O415  1  0.27132558  0.41603504  0.94346465  1
  O  O416  1  0.27173174  0.75111699  0.19218300  1
  O  O417  1  0.27175091  0.74822903  0.44220933  1
  O  O418  1  0.27143846  0.74780073  0.69169497  1
  O  O419  1  0.27162905  0.74908123  0.94341821  1
  O  O420  1  0.77263221  0.08173156  0.19191342  1
  O  O421  1  0.77210605  0.08437305  0.44347209  1
  O  O422  1  0.77229708  0.08422243  0.69408093  1
  O  O423  1  0.77334382  0.08430450  0.94107521  1
  O  O424  1  0.77198792  0.41881711  0.19131487  1
  O  O425  1  0.77260434  0.41682452  0.44041656  1
  O  O426  1  0.77231241  0.41676962  0.69079979  1
  O  O427  1  0.77245585  0.41801880  0.94054835  1
  O  O428  1  0.77255787  0.75063562  0.19063671  1
  O  O429  1  0.77161736  0.74927077  0.44302716  1
  O  O430  1  0.77184576  0.74955575  0.69416327  1
  O  O431  1  0.77249705  0.75137625  0.94269502  1
  O  O432  1  0.02281334  0.08353663  0.18486420  1
  O  O433  1  0.02245786  0.08339724  0.43483286  1
  O  O434  1  0.02166838  0.08488634  0.68344345  1
  O  O435  1  0.02199254  0.08029286  0.93379105  1
  O  O436  1  0.02140500  0.41666996  0.18195558  1
  O  O437  1  0.02209237  0.41505221  0.43311094  1
  O  O438  1  0.02239090  0.41771064  0.68332467  1
  O  O439  1  0.02248468  0.41819378  0.93328867  1
  O  O440  1  0.02254128  0.74983990  0.18414303  1
  O  O441  1  0.02110984  0.75054323  0.43171423  1
  O  O442  1  0.02133804  0.75181232  0.68388577  1
  O  O443  1  0.02216701  0.74902388  0.93482801  1
  O  O444  1  0.52279169  0.08458374  0.18302798  1
  O  O445  1  0.52275786  0.08248335  0.43475387  1
  O  O446  1  0.52294872  0.08262910  0.68450760  1
  O  O447  1  0.52237004  0.08140426  0.93274144  1
  O  O448  1  0.52230795  0.41839046  0.18267751  1
  O  O449  1  0.52187813  0.41642601  0.43135991  1
  O  O450  1  0.52192974  0.41671465  0.68103074  1
  O  O451  1  0.52170109  0.41738958  0.93085625  1
  O  O452  1  0.52174100  0.75006033  0.18140824  1
  O  O453  1  0.52264266  0.74975481  0.43415235  1
  O  O454  1  0.52211158  0.74920377  0.68296617  1
  O  O455  1  0.52275786  0.74981423  0.93401142  1
  O  O456  1  0.47937243  0.25003313  0.06805418  1
  O  O457  1  0.47847198  0.24815124  0.31642192  1
  O  O458  1  0.47814805  0.24763277  0.56650841  1
  O  O459  1  0.47815136  0.24806032  0.81648846  1
  O  O460  1  0.47772346  0.58569869  0.06636371  1
  O  O461  1  0.47760512  0.58216748  0.31695139  1
  O  O462  1  0.47811456  0.58543881  0.56645337  1
  O  O463  1  0.47812754  0.58582673  0.81612045  1
  O  O464  1  0.47723245  0.91790382  0.06560377  1
  O  O465  1  0.47888846  0.91678733  0.31852236  1
  O  O466  1  0.47755426  0.91723031  0.56575320  1
  O  O467  1  0.47784998  0.91800344  0.81667539  1
  O  O468  1  0.97878030  0.24940836  0.06819250  1
  O  O469  1  0.97789539  0.24766467  0.31709918  1
  O  O470  1  0.97695903  0.24985675  0.56596904  1
  O  O471  1  0.97811155  0.24850470  0.81712490  1
  O  O472  1  0.97668149  0.58405504  0.06582924  1
  O  O473  1  0.97747086  0.58512305  0.31686874  1
  O  O474  1  0.97772707  0.58326729  0.56826550  1
  O  O475  1  0.97757027  0.58191861  0.81729394  1
  O  O476  1  0.97665316  0.91705939  0.06651059  1
  O  O477  1  0.97741528  0.91618567  0.31546162  1
  O  O478  1  0.97751551  0.91890508  0.56671894  1
  O  O479  1  0.97746319  0.91511441  0.81776337  1
  O  O480  1  0.07416385  0.31268219  0.07602692  1
  O  O481  1  0.07289866  0.31205102  0.32538443  1
  O  O482  1  0.07162784  0.31389363  0.57373726  1
  O  O483  1  0.07387684  0.31158540  0.82457659  1
  O  O484  1  0.07204740  0.64737059  0.07360640  1
  O  O485  1  0.07280300  0.64807611  0.32377440  1
  O  O486  1  0.07250273  0.64758740  0.57623524  1
  O  O487  1  0.07285525  0.64567142  0.82568451  1
  O  O488  1  0.07218063  0.97975630  0.07455586  1
  O  O489  1  0.07215816  0.98055626  0.32280270  1
  O  O490  1  0.07255750  0.98187631  0.57429419  1
  O  O491  1  0.07326655  0.97800114  0.82534829  1
  O  O492  1  0.57448903  0.31400400  0.07488174  1
  O  O493  1  0.57380908  0.31165064  0.32515400  1
  O  O494  1  0.57322406  0.31160919  0.57470504  1
  O  O495  1  0.57343228  0.31202572  0.82393221  1
  O  O496  1  0.57295316  0.64857188  0.07437774  1
  O  O497  1  0.57305977  0.64617575  0.32390915  1
  O  O498  1  0.57357177  0.64835290  0.57351769  1
  O  O499  1  0.57332704  0.64928840  0.82373760  1
  O  O500  1  0.57271506  0.98080894  0.07312571  1
  O  O501  1  0.57455602  0.97954178  0.32598011  1
  O  O502  1  0.57299999  0.98022255  0.57405066  1
  O  O503  1  0.57302740  0.98104577  0.82412009  1
  O  O504  1  0.42732898  0.02072327  0.17604056  1
  O  O505  1  0.42752011  0.01945569  0.42650319  1
  O  O506  1  0.42801012  0.01895310  0.67597781  1
  O  O507  1  0.42692965  0.01878129  0.92571548  1
  O  O508  1  0.42686807  0.35472705  0.17473937  1
  O  O509  1  0.42656911  0.35289369  0.42343766  1
  O  O510  1  0.42650831  0.35309398  0.67379896  1
  O  O511  1  0.42663597  0.35309699  0.92437016  1
  O  O512  1  0.42580914  0.68756842  0.17443217  1
  O  O513  1  0.42762807  0.68601691  0.42634038  1
  O  O514  1  0.42708122  0.68596312  0.67492420  1
  O  O515  1  0.42716672  0.68691626  0.92628621  1
  O  O516  1  0.92822902  0.01904823  0.17782925  1
  O  O517  1  0.92779418  0.01943864  0.42632563  1
  O  O518  1  0.92606394  0.02170139  0.67578714  1
  O  O519  1  0.92664157  0.01777478  0.92665929  1
  O  O520  1  0.92599627  0.35338780  0.17379355  1
  O  O521  1  0.92715593  0.35160691  0.42628667  1
  O  O522  1  0.92688438  0.35408992  0.67603207  1
  O  O523  1  0.92771372  0.35364223  0.92448079  1
  O  O524  1  0.92726580  0.68661402  0.17598361  1
  O  O525  1  0.92569859  0.68710080  0.42451322  1
  O  O526  1  0.92592490  0.68817829  0.67617392  1
  O  O527  1  0.92677742  0.68598265  0.92690024  1
  O  O528  1  0.17664452  0.02114885  0.19966698  1
  O  O529  1  0.17637249  0.02009459  0.44959906  1
  O  O530  1  0.17709355  0.01762394  0.69833091  1
  O  O531  1  0.17657862  0.01886911  0.95116207  1
  O  O532  1  0.17613009  0.35512043  0.20048004  1
  O  O533  1  0.17708230  0.35469292  0.44940291  1
  O  O534  1  0.17742227  0.35260600  0.69732150  1
  O  O535  1  0.17595275  0.35265770  0.95057650  1
  O  O536  1  0.17616324  0.68768238  0.19965697  1
  O  O537  1  0.17627427  0.68537808  0.44893275  1
  O  O538  1  0.17619214  0.68445121  0.69872400  1
  O  O539  1  0.17636777  0.68561486  0.95112109  1
  O  O540  1  0.67677272  0.01961843  0.19883940  1
  O  O541  1  0.67690748  0.02046151  0.45070534  1
  O  O542  1  0.67724041  0.02012918  0.70169974  1
  O  O543  1  0.67900447  0.01943768  0.94828285  1
  O  O544  1  0.67713219  0.35423736  0.19908609  1
  O  O545  1  0.67763103  0.35318625  0.44822005  1
  O  O546  1  0.67717744  0.35334325  0.69873639  1
  O  O547  1  0.67807297  0.35368694  0.94786341  1
  O  O548  1  0.67819572  0.68590167  0.19762734  1
  O  O549  1  0.67628248  0.68586889  0.44998867  1
  O  O550  1  0.67639347  0.68650781  0.70157372  1
  O  O551  1  0.67719754  0.68781137  0.95083861  1
  O  O552  1  0.32370448  0.31220274  0.05014258  1
  O  O553  1  0.32415090  0.31422447  0.29846207  1
  O  O554  1  0.32315515  0.31551929  0.55049950  1
  O  O555  1  0.32375295  0.31313547  0.79943199  1
  O  O556  1  0.32328435  0.64523791  0.05088713  1
  O  O557  1  0.32178684  0.64760288  0.30130607  1
  O  O558  1  0.32171967  0.64719049  0.55116750  1
  O  O559  1  0.32351786  0.64599359  0.79930739  1
  O  O560  1  0.32346000  0.97823067  0.05005543  1
  O  O561  1  0.32395859  0.98019446  0.29887320  1
  O  O562  1  0.32277731  0.98105259  0.55112812  1
  O  O563  1  0.32397241  0.97912035  0.80015661  1
  O  O564  1  0.82410105  0.31408618  0.04853439  1
  O  O565  1  0.82370562  0.31523959  0.30084812  1
  O  O566  1  0.82297288  0.31562190  0.55169217  1
  O  O567  1  0.82167407  0.31494375  0.80229925  1
  O  O568  1  0.82103462  0.64717114  0.05178992  1
  O  O569  1  0.82231288  0.64592045  0.29968090  1
  O  O570  1  0.82313350  0.64510446  0.55037504  1
  O  O571  1  0.82363411  0.64523766  0.80066483  1
  O  O572  1  0.82210525  0.98065016  0.05161039  1
  O  O573  1  0.82396114  0.97971745  0.29933914  1
  O  O574  1  0.82416241  0.98021725  0.55066851  1
  O  O575  1  0.82213827  0.98037498  0.80334012  1
  O  O576  1  0.42784176  0.14782730  0.17585385  1
  O  O577  1  0.42791689  0.14669737  0.42709215  1
  O  O578  1  0.42803830  0.14619697  0.67630561  1
  O  O579  1  0.42734097  0.14567639  0.92480568  1
  O  O580  1  0.42737284  0.48198396  0.17570388  1
  O  O581  1  0.42625690  0.47975204  0.42451621  1
  O  O582  1  0.42653149  0.48015252  0.67360900  1
  O  O583  1  0.42582392  0.48014030  0.92377157  1
  O  O584  1  0.42680379  0.81421752  0.17443674  1
  O  O585  1  0.42780083  0.81355890  0.42697362  1
  O  O586  1  0.42696002  0.81284538  0.67433255  1
  O  O587  1  0.42853166  0.81430700  0.92604786  1
  O  O588  1  0.92753314  0.14639345  0.17667230  1
  O  O589  1  0.92727190  0.14662026  0.42659639  1
  O  O590  1  0.92692323  0.14865788  0.67643478  1
  O  O591  1  0.92704532  0.14483854  0.92623241  1
  O  O592  1  0.92611572  0.48024857  0.17476086  1
  O  O593  1  0.92680953  0.47889767  0.42513796  1
  O  O594  1  0.92744167  0.48110461  0.67595127  1
  O  O595  1  0.92695827  0.48079731  0.92611006  1
  O  O596  1  0.92795792  0.81388601  0.17561823  1
  O  O597  1  0.92571532  0.81380694  0.42372063  1
  O  O598  1  0.92644658  0.81541148  0.67716463  1
  O  O599  1  0.92756303  0.81321431  0.92841945  1
  O  O600  1  0.07410282  0.18580039  0.07551164  1
  O  O601  1  0.07325468  0.18505650  0.32530972  1
  O  O602  1  0.07230472  0.18658759  0.57359513  1
  O  O603  1  0.07273405  0.18435337  0.82385500  1
  O  O604  1  0.07133211  0.52007414  0.07443272  1
  O  O605  1  0.07248512  0.52085235  0.32448629  1
  O  O606  1  0.07358801  0.52068109  0.57531345  1
  O  O607  1  0.07269613  0.51871793  0.82428939  1
  O  O608  1  0.07097579  0.85255079  0.07394599  1
  O  O609  1  0.07267228  0.85328326  0.32347893  1
  O  O610  1  0.07271926  0.85479874  0.57428188  1
  O  O611  1  0.07211835  0.85111889  0.82505828  1
  O  O612  1  0.57518763  0.18709485  0.07458177  1
  O  O613  1  0.57341873  0.18450220  0.32401605  1
  O  O614  1  0.57346400  0.18444475  0.57417437  1
  O  O615  1  0.57315033  0.18469285  0.82394712  1
  O  O616  1  0.57295817  0.52157227  0.07363889  1
  O  O617  1  0.57269015  0.51908109  0.32380365  1
  O  O618  1  0.57308300  0.52125626  0.57483745  1
  O  O619  1  0.57327611  0.52208514  0.82436871  1
  O  O620  1  0.57151180  0.85334578  0.07228725  1
  O  O621  1  0.57396884  0.85285143  0.32559181  1
  O  O622  1  0.57182808  0.85279011  0.57419979  1
  O  O623  1  0.57296792  0.85421009  0.82506042  1
  O  O624  1  0.32339556  0.18491186  0.05081299  1
  O  O625  1  0.32405025  0.18730850  0.30020898  1
  O  O626  1  0.32373096  0.18822351  0.54988783  1
  O  O627  1  0.32347758  0.18621316  0.79812407  1
  O  O628  1  0.32297593  0.51810678  0.05157706  1
  O  O629  1  0.32176789  0.52026636  0.30217401  1
  O  O630  1  0.32210893  0.52001649  0.55062971  1
  O  O631  1  0.32368950  0.51927288  0.79853385  1
  O  O632  1  0.32257829  0.85098420  0.05128729  1
  O  O633  1  0.32436937  0.85334548  0.30026377  1
  O  O634  1  0.32347429  0.85376552  0.54997941  1
  O  O635  1  0.32374173  0.85227276  0.79852935  1
  O  O636  1  0.82464419  0.18732682  0.04939177  1
  O  O637  1  0.82323858  0.18793658  0.30068740  1
  O  O638  1  0.82278875  0.18865817  0.55056505  1
  O  O639  1  0.82272149  0.18755727  0.80132497  1
  O  O640  1  0.82210650  0.51983636  0.05153223  1
  O  O641  1  0.82319105  0.51903459  0.30008370  1
  O  O642  1  0.82326424  0.51804744  0.55121656  1
  O  O643  1  0.82310403  0.51825639  0.80145733  1
  O  O644  1  0.82214725  0.85342579  0.05184021  1
  O  O645  1  0.82336142  0.85290472  0.29875446  1
  O  O646  1  0.82415110  0.85318065  0.55059164  1
  O  O647  1  0.82273688  0.85291908  0.80316010  1
  O  O648  1  0.17723644  0.14842272  0.19880170  1
  O  O649  1  0.17665670  0.14701381  0.45117148  1
  O  O650  1  0.17644395  0.14492579  0.69927129  1
  O  O651  1  0.17588317  0.14576507  0.94938774  1
  O  O652  1  0.17641710  0.48228882  0.19897295  1
  O  O653  1  0.17622166  0.48166424  0.44995294  1
  O  O654  1  0.17737740  0.48008694  0.69803443  1
  O  O655  1  0.17587404  0.47953662  0.94948719  1
  O  O656  1  0.17692268  0.81476976  0.19931383  1
  O  O657  1  0.17678298  0.81248548  0.45039876  1
  O  O658  1  0.17619130  0.81163699  0.69919321  1
  O  O659  1  0.17604467  0.81248566  0.94982509  1
  O  O660  1  0.67808337  0.14681393  0.19904009  1
  O  O661  1  0.67662220  0.14747632  0.45054519  1
  O  O662  1  0.67662002  0.14689132  0.70136982  1
  O  O663  1  0.67775860  0.14679583  0.94908431  1
  O  O664  1  0.67646780  0.48113790  0.19896695  1
  O  O665  1  0.67762918  0.48033297  0.44846731  1
  O  O666  1  0.67740736  0.48047640  0.69832606  1
  O  O667  1  0.67696469  0.48104934  0.94787295  1
  O  O668  1  0.67698140  0.81339154  0.19830680  1
  O  O669  1  0.67636081  0.81284612  0.45020553  1
  O  O670  1  0.67646454  0.81339508  0.70098656  1
  O  O671  1  0.67746537  0.81478918  0.95035148  1
