# generated using pymatgen
data_Na2MnFe(PO4)2
_symmetry_space_group_name_H-M   'P 1'
_cell_length_a   22.35095951
_cell_length_b   20.10034094
_cell_length_c   19.44466915
_cell_angle_alpha   90.00882523
_cell_angle_beta   90.01736992
_cell_angle_gamma   89.99682096
_symmetry_Int_Tables_number   1
_chemical_formula_structural   Na2MnFe(PO4)2
_chemical_formula_sum   'Na96 Mn48 Fe48 P96 O384'
_cell_volume   8735.74861397
_cell_formula_units_Z   48
loop_
 _symmetry_equiv_pos_site_id
 _symmetry_equiv_pos_as_xyz
  1  'x, y, z'
loop_
 _atom_site_type_symbol
 _atom_site_label
 _atom_site_symmetry_multiplicity
 _atom_site_fract_x
 _atom_site_fract_y
 _atom_site_fract_z
 _atom_site_occupancy
  Na  Na0  1  0.13969805  0.25084352  0.24353639  1
  Na  Na1  1  0.13948443  0.24978696  0.49429776  1
  Na  Na2  1  0.13979400  0.25016726  0.74243441  1
  Na  Na3  1  0.13988750  0.25041755  0.99292251  1
  Na  Na4  1  0.13969604  0.58347469  0.24463463  1
  Na  Na5  1  0.13962938  0.58404411  0.49343089  1
  Na  Na6  1  0.14041448  0.58333697  0.74431112  1
  Na  Na7  1  0.14038916  0.58382362  0.99383444  1
  Na  Na8  1  0.13916835  0.91624952  0.24247624  1
  Na  Na9  1  0.14023508  0.91600447  0.49255346  1
  Na  Na10  1  0.14080623  0.91570662  0.74289867  1
  Na  Na11  1  0.13976288  0.91666387  0.99337187  1
  Na  Na12  1  0.64046918  0.24959894  0.24540213  1
  Na  Na13  1  0.64036125  0.25027108  0.49428458  1
  Na  Na14  1  0.64106849  0.25147135  0.74391617  1
  Na  Na15  1  0.64063209  0.25010685  0.99493317  1
  Na  Na16  1  0.64073170  0.58386364  0.24419454  1
  Na  Na17  1  0.64036532  0.58340626  0.49368405  1
  Na  Na18  1  0.64115789  0.58297607  0.74388207  1
  Na  Na19  1  0.64066820  0.58255810  0.99454495  1
  Na  Na20  1  0.64003883  0.91529023  0.24266815  1
  Na  Na21  1  0.64113520  0.91663400  0.49195515  1
  Na  Na22  1  0.64074628  0.91703068  0.74373523  1
  Na  Na23  1  0.64020023  0.91499905  0.99350968  1
  Na  Na24  1  0.35986622  0.08253368  0.00557628  1
  Na  Na25  1  0.35907285  0.08239368  0.25520024  1
  Na  Na26  1  0.35930305  0.08266566  0.50589606  1
  Na  Na27  1  0.35968126  0.08164048  0.75500751  1
  Na  Na28  1  0.35950709  0.41792686  0.00714994  1
  Na  Na29  1  0.36007091  0.41708322  0.25714889  1
  Na  Na30  1  0.35977580  0.41719891  0.50735404  1
  Na  Na31  1  0.35930850  0.41795647  0.75592920  1
  Na  Na32  1  0.35949910  0.75017563  0.00478408  1
  Na  Na33  1  0.35947945  0.75006394  0.25534528  1
  Na  Na34  1  0.35908074  0.74974888  0.50475952  1
  Na  Na35  1  0.35888586  0.74887289  0.75578586  1
  Na  Na36  1  0.86060660  0.08249824  0.00717971  1
  Na  Na37  1  0.85970664  0.08226051  0.25745057  1
  Na  Na38  1  0.85941913  0.08457947  0.50598956  1
  Na  Na39  1  0.86018073  0.08563532  0.75623035  1
  Na  Na40  1  0.86043401  0.41679159  0.00751354  1
  Na  Na41  1  0.86072314  0.41707881  0.25819500  1
  Na  Na42  1  0.85982563  0.41674190  0.50897046  1
  Na  Na43  1  0.85988238  0.41723420  0.75675510  1
  Na  Na44  1  0.85933884  0.74961355  0.00652008  1
  Na  Na45  1  0.85969004  0.75113661  0.25717450  1
  Na  Na46  1  0.86013874  0.74960510  0.50596268  1
  Na  Na47  1  0.85986856  0.74952341  0.75470821  1
  Na  Na48  1  0.10879556  0.08402543  0.11803001  1
  Na  Na49  1  0.10910882  0.08430034  0.36867564  1
  Na  Na50  1  0.10968347  0.08396592  0.61773220  1
  Na  Na51  1  0.10943150  0.08459146  0.86861105  1
  Na  Na52  1  0.10899399  0.41602419  0.11903874  1
  Na  Na53  1  0.10881036  0.41672389  0.37039123  1
  Na  Na54  1  0.10897871  0.41650716  0.61839368  1
  Na  Na55  1  0.10958867  0.41655112  0.86903546  1
  Na  Na56  1  0.10955153  0.75023676  0.11841478  1
  Na  Na57  1  0.10968506  0.75010805  0.36764991  1
  Na  Na58  1  0.10959582  0.74866718  0.61704568  1
  Na  Na59  1  0.10980197  0.74986453  0.86836516  1
  Na  Na60  1  0.60949257  0.08192729  0.11988939  1
  Na  Na61  1  0.60971112  0.08320401  0.36780981  1
  Na  Na62  1  0.61007200  0.08395933  0.61813462  1
  Na  Na63  1  0.60994200  0.08286319  0.86912847  1
  Na  Na64  1  0.60956822  0.41623421  0.12057977  1
  Na  Na65  1  0.60936405  0.41656453  0.37072287  1
  Na  Na66  1  0.61005122  0.41639435  0.61842251  1
  Na  Na67  1  0.61010006  0.41698462  0.86956427  1
  Na  Na68  1  0.61029064  0.75012007  0.11812476  1
  Na  Na69  1  0.61019157  0.74934843  0.36715254  1
  Na  Na70  1  0.60999043  0.74867056  0.61807303  1
  Na  Na71  1  0.61014194  0.75035302  0.86905676  1
  Na  Na72  1  0.39045797  0.24955185  0.13149195  1
  Na  Na73  1  0.39040961  0.25057089  0.38081543  1
  Na  Na74  1  0.39043318  0.24942833  0.63115135  1
  Na  Na75  1  0.39058768  0.24953384  0.88127874  1
  Na  Na76  1  0.39028614  0.58354944  0.13109937  1
  Na  Na77  1  0.39031149  0.58278511  0.38112074  1
  Na  Na78  1  0.38942325  0.58292848  0.63126082  1
  Na  Na79  1  0.38986354  0.58417877  0.88189793  1
  Na  Na80  1  0.39052306  0.91600410  0.12983868  1
  Na  Na81  1  0.38980032  0.91617641  0.37951429  1
  Na  Na82  1  0.39019781  0.91651841  0.63020845  1
  Na  Na83  1  0.39080710  0.91647005  0.87994784  1
  Na  Na84  1  0.89103935  0.25001993  0.13149317  1
  Na  Na85  1  0.89071052  0.25091195  0.38291720  1
  Na  Na86  1  0.89001111  0.25029567  0.63190394  1
  Na  Na87  1  0.89107604  0.25069413  0.88156867  1
  Na  Na88  1  0.89065803  0.58316545  0.13232645  1
  Na  Na89  1  0.89068197  0.58378430  0.38296907  1
  Na  Na90  1  0.88966586  0.58291799  0.63160417  1
  Na  Na91  1  0.89031298  0.58308313  0.88196696  1
  Na  Na92  1  0.89059871  0.91688326  0.13238620  1
  Na  Na93  1  0.89013567  0.91685129  0.38155466  1
  Na  Na94  1  0.89064138  0.91693485  0.62966785  1
  Na  Na95  1  0.89096815  0.91771530  0.88137328  1
  Mn  Mn96  1  0.75070966  -0.00012106  0.87486303  1
  Mn  Mn97  1  0.25016461  0.33326504  0.37561149  1
  Mn  Mn98  1  0.24994797  0.00005799  0.12400430  1
  Mn  Mn99  1  0.24963527  0.83215694  0.12393116  1
  Mn  Mn100  1  0.24827722  -0.00063537  0.37435627  1
  Mn  Mn101  1  0.50013069  0.83414533  0.74892820  1
  Mn  Mn102  1  0.50049928  0.16551852  0.00107798  1
  Mn  Mn103  1  0.50033263  0.66676734  0.75027037  1
  Mn  Mn104  1  0.74941419  -0.00148853  0.12602084  1
  Mn  Mn105  1  0.50051460  -0.00038374  0.49891387  1
  Mn  Mn106  1  0.24940416  0.83252667  0.62420809  1
  Mn  Mn107  1  0.75086729  0.83195030  0.87405460  1
  Mn  Mn108  1  0.25077841  0.33434129  0.87396878  1
  Mn  Mn109  1  0.50063931  0.83299124  0.49933025  1
  Mn  Mn110  1  0.75004730  0.33299534  0.37673148  1
  Mn  Mn111  1  0.49913223  0.66549902  0.49857186  1
  Mn  Mn112  1  0.75023077  0.50100958  0.37638770  1
  Mn  Mn113  1  0.50025189  0.66603162  0.24927106  1
  Mn  Mn114  1  0.00038425  0.49901371  0.75029891  1
  Mn  Mn115  1  0.49920536  0.16715220  0.49901746  1
  Mn  Mn116  1  0.50057699  0.66667725  0.00053147  1
  Mn  Mn117  1  0.49966766  0.33346436  0.75059308  1
  Mn  Mn118  1  0.49966100  0.16644385  0.24994514  1
  Mn  Mn119  1  0.49990923  0.50004345  0.75009203  1
  Mn  Mn120  1  0.50091421  0.16570533  0.75050472  1
  Mn  Mn121  1  0.50033815  0.33404853  0.00105475  1
  Mn  Mn122  1  -0.00000769  0.83352687  0.74979326  1
  Mn  Mn123  1  0.75048483  0.16594786  0.12561186  1
  Mn  Mn124  1  -0.00003688  0.00051102  0.49985555  1
  Mn  Mn125  1  0.24968549  0.33359159  0.62528993  1
  Mn  Mn126  1  -0.00023826  0.83443476  -0.00025429  1
  Mn  Mn127  1  0.24920726  -0.00089832  0.87453581  1
  Mn  Mn128  1  0.75086644  0.50026264  0.87526447  1
  Mn  Mn129  1  0.24989339  0.16647210  0.87413996  1
  Mn  Mn130  1  -0.00040005  0.66628373  0.00065245  1
  Mn  Mn131  1  0.75037491  0.83285927  0.62400323  1
  Mn  Mn132  1  -0.00023117  0.66618412  0.74948628  1
  Mn  Mn133  1  0.75016932  0.16782336  0.87586923  1
  Mn  Mn134  1  0.24955691  0.16635409  0.37489557  1
  Mn  Mn135  1  0.00088853  0.00129720  0.74969791  1
  Mn  Mn136  1  0.24957210  0.50115081  0.37546550  1
  Mn  Mn137  1  0.75010935  0.50071839  0.12582135  1
  Mn  Mn138  1  0.00004199  0.66645454  0.25052252  1
  Mn  Mn139  1  0.24971198  0.50151858  0.12575078  1
  Mn  Mn140  1  0.24983066  0.33347230  0.12483901  1
  Mn  Mn141  1  0.75089842  0.33318268  0.12647045  1
  Mn  Mn142  1  0.75073303  0.00108073  0.62401132  1
  Mn  Mn143  1  -0.00007789  0.16767930  0.24949153  1
  Fe  Fe144  1  -0.00038273  0.16759834  0.49966034  1
  Fe  Fe145  1  -0.00051041  0.33298163  0.75037700  1
  Fe  Fe146  1  0.24982564  0.16696128  0.12462289  1
  Fe  Fe147  1  0.00026123  0.00074239  0.00026317  1
  Fe  Fe148  1  0.24997205  0.50102721  0.87541361  1
  Fe  Fe149  1  0.75046573  0.16672809  0.37589405  1
  Fe  Fe150  1  0.50028216  0.83380079  -0.00067542  1
  Fe  Fe151  1  0.00014802  0.33339189  0.00026658  1
  Fe  Fe152  1  0.75023963  0.50076506  0.62582263  1
  Fe  Fe153  1  -0.00021838  0.66648692  0.49936248  1
  Fe  Fe154  1  0.74947567  -0.00009635  0.37498326  1
  Fe  Fe155  1  -0.00046950  0.00074150  0.25021326  1
  Fe  Fe156  1  0.49997263  0.49987364  0.00082119  1
  Fe  Fe157  1  0.74960715  0.16718721  0.62522524  1
  Fe  Fe158  1  0.50086921  -0.00016666  0.74972440  1
  Fe  Fe159  1  0.75065627  0.33414828  0.87506830  1
  Fe  Fe160  1  0.50021414  -0.00077816  -0.00035060  1
  Fe  Fe161  1  0.74957839  0.66688109  0.62464999  1
  Fe  Fe162  1  -0.00005460  0.16738168  0.75005540  1
  Fe  Fe163  1  -0.00085181  0.49957792  0.50031038  1
  Fe  Fe164  1  0.24997374  -0.00093806  0.62426473  1
  Fe  Fe165  1  0.74956141  0.83274385  0.37454354  1
  Fe  Fe166  1  0.75072125  0.66696069  0.12527871  1
  Fe  Fe167  1  -0.00028053  0.33406410  0.25079761  1
  Fe  Fe168  1  0.24964553  0.66649881  0.87435344  1
  Fe  Fe169  1  0.75035315  0.66630778  0.87500729  1
  Fe  Fe170  1  0.24953998  0.83283911  0.37431214  1
  Fe  Fe171  1  -0.00024011  0.49937465  0.25122901  1
  Fe  Fe172  1  0.00036548  0.49937601  0.00085954  1
  Fe  Fe173  1  0.49973802  0.49937547  0.50004290  1
  Fe  Fe174  1  -0.00002992  0.16734527  -0.00007088  1
  Fe  Fe175  1  0.24929552  0.66631962  0.62544007  1
  Fe  Fe176  1  0.25011974  0.16626262  0.62467815  1
  Fe  Fe177  1  0.49991510  0.33380322  0.25075935  1
  Fe  Fe178  1  -0.00067690  0.33343999  0.50062599  1
  Fe  Fe179  1  0.00065470  0.83350363  0.49952213  1
  Fe  Fe180  1  0.49989027  0.49924748  0.25087587  1
  Fe  Fe181  1  0.49997662  0.83328047  0.24852617  1
  Fe  Fe182  1  0.25003462  0.66689101  0.37509700  1
  Fe  Fe183  1  0.24980187  0.66711802  0.12444978  1
  Fe  Fe184  1  0.75036873  0.83250293  0.12517456  1
  Fe  Fe185  1  0.24928384  0.50095784  0.62545335  1
  Fe  Fe186  1  0.49949966  -0.00086433  0.24898551  1
  Fe  Fe187  1  0.75029006  0.33354987  0.62581973  1
  Fe  Fe188  1  0.49951276  0.33353508  0.50020146  1
  Fe  Fe189  1  0.75056471  0.66713700  0.37482825  1
  Fe  Fe190  1  0.25000505  0.83242644  0.87400099  1
  Fe  Fe191  1  -0.00009179  0.83390455  0.25004587  1
  P  P192  1  0.04146199  0.25044483  0.10174293  1
  P  P193  1  0.04175872  0.25184397  0.35311365  1
  P  P194  1  0.04086477  0.25020216  0.60229271  1
  P  P195  1  0.04171020  0.25031038  0.85213627  1
  P  P196  1  0.04190660  0.58142661  0.10347595  1
  P  P197  1  0.04142211  0.58189017  0.35371504  1
  P  P198  1  0.04046725  0.58272191  0.60119933  1
  P  P199  1  0.04237647  0.58266417  0.85372545  1
  P  P200  1  0.04178646  0.91837844  0.10325228  1
  P  P201  1  0.04093698  0.91717117  0.35170715  1
  P  P202  1  0.04269447  0.91583861  0.60177310  1
  P  P203  1  0.04307924  0.91779295  0.85324785  1
  P  P204  1  0.54282444  0.25012793  0.10443041  1
  P  P205  1  0.54178555  0.25164475  0.35296900  1
  P  P206  1  0.54198663  0.25090637  0.60227453  1
  P  P207  1  0.54329639  0.24991538  0.85375680  1
  P  P208  1  0.54232835  0.58134757  0.10343130  1
  P  P209  1  0.54213117  0.58130618  0.35271672  1
  P  P210  1  0.54187824  0.58194380  0.60193961  1
  P  P211  1  0.54304297  0.58324540  0.85401064  1
  P  P212  1  0.54140200  0.91624112  0.10194165  1
  P  P213  1  0.54157267  0.91621878  0.35040459  1
  P  P214  1  0.54370368  0.91686659  0.60268197  1
  P  P215  1  0.54279602  0.91776122  0.85274844  1
  P  P216  1  0.45764484  0.08129177  0.14691604  1
  P  P217  1  0.45695332  0.08267208  0.39559489  1
  P  P218  1  0.45811760  0.08201276  0.64723286  1
  P  P219  1  0.45825884  0.08140709  0.89727407  1
  P  P220  1  0.45816271  0.41697985  0.14878225  1
  P  P221  1  0.45805806  0.41654848  0.39805128  1
  P  P222  1  0.45711319  0.41649428  0.64623899  1
  P  P223  1  0.45734666  0.41806727  0.89830185  1
  P  P224  1  0.45827245  0.75108953  0.14643198  1
  P  P225  1  0.45755570  0.75017051  0.39519109  1
  P  P226  1  0.45705132  0.74959440  0.64630385  1
  P  P227  1  0.45817473  0.75134433  0.89750764  1
  P  P228  1  0.95762851  0.08254856  0.14722237  1
  P  P229  1  0.95793825  0.08489933  0.39725036  1
  P  P230  1  0.95809372  0.08550727  0.64703490  1
  P  P231  1  0.95896440  0.08429112  0.89822203  1
  P  P232  1  0.95862020  0.41668923  0.14856382  1
  P  P233  1  0.95788294  0.41659053  0.39878881  1
  P  P234  1  0.95784760  0.41484192  0.64740260  1
  P  P235  1  0.95859785  0.41644362  0.89889869  1
  P  P236  1  0.95817354  0.75114208  0.14815284  1
  P  P237  1  0.95930702  0.75075533  0.39788254  1
  P  P238  1  0.95778058  0.75002896  0.64538392  1
  P  P239  1  0.95715313  0.75008130  0.89698064  1
  P  P240  1  0.20693281  0.08442592  0.22660125  1
  P  P241  1  0.20687361  0.08298768  0.47878243  1
  P  P242  1  0.20835475  0.08246536  0.72576337  1
  P  P243  1  0.20719229  0.08362342  0.97795770  1
  P  P244  1  0.20708646  0.41729221  0.22841992  1
  P  P245  1  0.20739160  0.41752172  0.47903100  1
  P  P246  1  0.20758219  0.41881720  0.72784662  1
  P  P247  1  0.20798104  0.41818412  0.97726281  1
  P  P248  1  0.20738631  0.74847677  0.22778688  1
  P  P249  1  0.20800321  0.74974476  0.47637125  1
  P  P250  1  0.20721455  0.74830203  0.72761550  1
  P  P251  1  0.20818838  0.74944756  0.97606876  1
  P  P252  1  0.70750265  0.08270429  0.22975743  1
  P  P253  1  0.70832713  0.08388347  0.47678542  1
  P  P254  1  0.70819218  0.08498677  0.72741121  1
  P  P255  1  0.70752727  0.08272775  0.97850231  1
  P  P256  1  0.70774444  0.41713322  0.22940498  1
  P  P257  1  0.70800448  0.41701879  0.48021210  1
  P  P258  1  0.70910670  0.41701053  0.72717393  1
  P  P259  1  0.70835606  0.41582056  0.97784882  1
  P  P260  1  0.70877464  0.74972245  0.22713704  1
  P  P261  1  0.70853080  0.74939168  0.47636819  1
  P  P262  1  0.70777835  0.74850944  0.72723131  1
  P  P263  1  0.70831515  0.74820958  0.97799019  1
  P  P264  1  0.29242844  0.24900771  0.02221821  1
  P  P265  1  0.29252258  0.24966384  0.27138463  1
  P  P266  1  0.29203578  0.24890820  0.52281789  1
  P  P267  1  0.29282313  0.24964809  0.77076956  1
  P  P268  1  0.29198805  0.58514211  0.02175269  1
  P  P269  1  0.29208794  0.58541642  0.27241429  1
  P  P270  1  0.29083098  0.58432350  0.52332742  1
  P  P271  1  0.29139017  0.58332118  0.77281993  1
  P  P272  1  0.29231229  0.91567146  0.02059808  1
  P  P273  1  0.29116317  0.91513310  0.27187316  1
  P  P274  1  0.29182340  0.91672437  0.52139498  1
  P  P275  1  0.29186058  0.91493197  0.77142972  1
  P  P276  1  0.79333061  0.25029782  0.02227959  1
  P  P277  1  0.79294228  0.24878093  0.27395732  1
  P  P278  1  0.79118502  0.24989452  0.52394362  1
  P  P279  1  0.79230304  0.25214604  0.77227315  1
  P  P280  1  0.79265950  0.58474329  0.02284039  1
  P  P281  1  0.79283100  0.58528559  0.27289031  1
  P  P282  1  0.79130565  0.58411606  0.52346546  1
  P  P283  1  0.79258176  0.58456901  0.77191465  1
  P  P284  1  0.79245532  0.91474859  0.02301547  1
  P  P285  1  0.79080699  0.91600691  0.27356410  1
  P  P286  1  0.79251439  0.91677701  0.52017995  1
  P  P287  1  0.79365051  0.91661449  0.77128744  1
  O  O288  1  0.03700686  0.25052704  0.18168666  1
  O  O289  1  0.03626848  0.25151427  0.43297040  1
  O  O290  1  0.03585428  0.24979766  0.68220974  1
  O  O291  1  0.03665162  0.25019410  0.93201918  1
  O  O292  1  0.03643746  0.58137347  0.18343252  1
  O  O293  1  0.03582860  0.58241964  0.43356644  1
  O  O294  1  0.03614544  0.58288066  0.68123379  1
  O  O295  1  0.03716308  0.58235613  0.93368308  1
  O  O296  1  0.03630179  0.91810776  0.18316809  1
  O  O297  1  0.03613732  0.91639505  0.43169031  1
  O  O298  1  0.03771227  0.91625257  0.68173415  1
  O  O299  1  0.03779001  0.91844284  0.93324437  1
  O  O300  1  0.53719604  0.25064668  0.18436160  1
  O  O301  1  0.53604630  0.25178396  0.43290907  1
  O  O302  1  0.53722538  0.25042437  0.68228959  1
  O  O303  1  0.53832857  0.24983086  0.93376584  1
  O  O304  1  0.53678189  0.58120277  0.18337293  1
  O  O305  1  0.53658483  0.58132866  0.43263938  1
  O  O306  1  0.53713969  0.58268553  0.68196101  1
  O  O307  1  0.53807513  0.58284417  0.93402601  1
  O  O308  1  0.53566657  0.91606325  0.18185094  1
  O  O309  1  0.53731959  0.91611657  0.43046409  1
  O  O310  1  0.53884110  0.91750859  0.68268333  1
  O  O311  1  0.53729067  0.91722633  0.93267136  1
  O  O312  1  0.46323723  0.08109020  0.06698125  1
  O  O313  1  0.46208955  0.08230324  0.31562396  1
  O  O314  1  0.46296118  0.08261978  0.56720199  1
  O  O315  1  0.46380111  0.08141581  0.81731322  1
  O  O316  1  0.46329730  0.41749360  0.06879268  1
  O  O317  1  0.46340886  0.41653828  0.31811524  1
  O  O318  1  0.46209749  0.41634960  0.56625481  1
  O  O319  1  0.46220478  0.41774947  0.81829140  1
  O  O320  1  0.46377689  0.75131663  0.06652191  1
  O  O321  1  0.46301828  0.75046300  0.31523313  1
  O  O322  1  0.46190598  0.74930538  0.56626861  1
  O  O323  1  0.46314732  0.75112462  0.81752270  1
  O  O324  1  0.96298171  0.08235943  0.06735165  1
  O  O325  1  0.96319912  0.08460244  0.31732769  1
  O  O326  1  0.96307288  0.08557183  0.56705803  1
  O  O327  1  0.96399928  0.08503894  0.81821687  1
  O  O328  1  0.96392657  0.41671275  0.06870464  1
  O  O329  1  0.96283017  0.41707974  0.31890213  1
  O  O330  1  0.96292411  0.41481648  0.56753726  1
  O  O331  1  0.96338954  0.41595201  0.81891144  1
  O  O332  1  0.96285989  0.75106394  0.06817935  1
  O  O333  1  0.96413366  0.75075836  0.31787611  1
  O  O334  1  0.96331382  0.75019128  0.56544181  1
  O  O335  1  0.96226584  0.74984865  0.81698493  1
  O  O336  1  0.21247783  0.08425316  0.05788302  1
  O  O337  1  0.21176071  0.08385807  0.30665287  1
  O  O338  1  0.21241341  0.08275528  0.55867765  1
  O  O339  1  0.21317287  0.08243176  0.80580789  1
  O  O340  1  0.21301796  0.41772940  0.05726214  1
  O  O341  1  0.21219214  0.41709755  0.30840762  1
  O  O342  1  0.21254404  0.41808858  0.55901052  1
  O  O343  1  0.21317659  0.41897871  0.80779443  1
  O  O344  1  0.21330175  0.74899976  0.05607165  1
  O  O345  1  0.21284095  0.74896740  0.30767825  1
  O  O346  1  0.21271681  0.74961162  0.55634508  1
  O  O347  1  0.21267957  0.74871434  0.80747757  1
  O  O348  1  0.71234650  0.08231494  0.05855079  1
  O  O349  1  0.71293444  0.08276716  0.30969910  1
  O  O350  1  0.71348475  0.08424498  0.55678444  1
  O  O351  1  0.71337472  0.08466044  0.80737820  1
  O  O352  1  0.71336961  0.41625546  0.05783246  1
  O  O353  1  0.71275251  0.41735527  0.30939551  1
  O  O354  1  0.71351922  0.41688772  0.56010102  1
  O  O355  1  0.71415248  0.41700002  0.80718838  1
  O  O356  1  0.71381062  0.74884318  0.05789712  1
  O  O357  1  0.71372104  0.74986990  0.30707314  1
  O  O358  1  0.71310405  0.74942917  0.55634066  1
  O  O359  1  0.71324238  0.74822046  0.80716518  1
  O  O360  1  0.28725568  0.24942752  0.19139395  1
  O  O361  1  0.28696819  0.24917333  0.44281318  1
  O  O362  1  0.28753790  0.24922655  0.69079848  1
  O  O363  1  0.28743149  0.24966955  0.94218062  1
  O  O364  1  0.28696781  0.58553871  0.19245783  1
  O  O365  1  0.28596196  0.58460220  0.44334355  1
  O  O366  1  0.28595592  0.58306212  0.69290463  1
  O  O367  1  0.28662518  0.58454914  0.94184235  1
  O  O368  1  0.28641213  0.91533078  0.19187288  1
  O  O369  1  0.28618158  0.91617210  0.44146132  1
  O  O370  1  0.28631937  0.91558785  0.69144821  1
  O  O371  1  0.28708375  0.91510451  0.94065153  1
  O  O372  1  0.78805783  0.24897699  0.19397413  1
  O  O373  1  0.78626137  0.24921420  0.44397689  1
  O  O374  1  0.78671617  0.25191615  0.69237490  1
  O  O375  1  0.78814492  0.25124855  0.94230482  1
  O  O376  1  0.78763840  0.58515033  0.19292438  1
  O  O377  1  0.78666330  0.58411285  0.44347292  1
  O  O378  1  0.78691993  0.58411155  0.69204095  1
  O  O379  1  0.78756753  0.58468447  0.94284946  1
  O  O380  1  0.78618710  0.91524259  0.19355308  1
  O  O381  1  0.78666887  0.91689456  0.44030831  1
  O  O382  1  0.78849420  0.91681011  0.69127663  1
  O  O383  1  0.78783741  0.91499881  0.94298957  1
  O  O384  1  0.22802307  0.24865115  0.05754047  1
  O  O385  1  0.22815349  0.25014905  0.30661093  1
  O  O386  1  0.22773713  0.24876884  0.55825524  1
  O  O387  1  0.22847317  0.25039249  0.80597681  1
  O  O388  1  0.22782446  0.58550866  0.05785210  1
  O  O389  1  0.22781546  0.58558989  0.30806615  1
  O  O390  1  0.22661510  0.58448537  0.55924234  1
  O  O391  1  0.22736220  0.58338078  0.80928000  1
  O  O392  1  0.22804298  0.91605977  0.05601486  1
  O  O393  1  0.22680340  0.91464693  0.30716283  1
  O  O394  1  0.22769830  0.91744068  0.55742516  1
  O  O395  1  0.22773167  0.91418463  0.80746929  1
  O  O396  1  0.72900217  0.25004975  0.05761350  1
  O  O397  1  0.72851118  0.24843469  0.30917774  1
  O  O398  1  0.72706030  0.25041863  0.55988420  1
  O  O399  1  0.72823925  0.25246826  0.80857648  1
  O  O400  1  0.72839745  0.58492397  0.05852158  1
  O  O401  1  0.72851528  0.58537581  0.30848184  1
  O  O402  1  0.72715375  0.58437703  0.55930095  1
  O  O403  1  0.72855521  0.58466344  0.80831851  1
  O  O404  1  0.72800137  0.91423925  0.05815987  1
  O  O405  1  0.72662995  0.91662241  0.30923664  1
  O  O406  1  0.72852373  0.91696468  0.55639242  1
  O  O407  1  0.72926880  0.91634451  0.80639207  1
  O  O408  1  0.27135758  0.08498706  0.19133817  1
  O  O409  1  0.27100598  0.08242416  0.44297633  1
  O  O410  1  0.27255696  0.08224229  0.68999815  1
  O  O411  1  0.27145500  0.08301007  0.94253087  1
  O  O412  1  0.27147188  0.41731162  0.19336063  1
  O  O413  1  0.27168181  0.41754296  0.44365554  1
  O  O414  1  0.27167884  0.41869161  0.69187793  1
  O  O415  1  0.27229174  0.41868094  0.94177415  1
  O  O416  1  0.27157526  0.74809918  0.19167594  1
  O  O417  1  0.27220191  0.74983612  0.44048641  1
  O  O418  1  0.27135424  0.74802459  0.69151622  1
  O  O419  1  0.27225402  0.74950265  0.93982765  1
  O  O420  1  0.77170620  0.08221549  0.19402557  1
  O  O421  1  0.77247478  0.08364378  0.44076636  1
  O  O422  1  0.77249188  0.08546124  0.69186835  1
  O  O423  1  0.77200369  0.08340206  0.94362572  1
  O  O424  1  0.77219044  0.41739421  0.19448414  1
  O  O425  1  0.77213979  0.41692633  0.44433407  1
  O  O426  1  0.77313805  0.41653291  0.69110481  1
  O  O427  1  0.77271498  0.41557633  0.94240446  1
  O  O428  1  0.77291652  0.74978870  0.19099560  1
  O  O429  1  0.77282303  0.74921599  0.44078173  1
  O  O430  1  0.77199109  0.74829554  0.69135677  1
  O  O431  1  0.77245261  0.74765176  0.94177863  1
  O  O432  1  0.02175769  0.08244058  0.18338897  1
  O  O433  1  0.02206435  0.08498544  0.43317573  1
  O  O434  1  0.02241227  0.08589327  0.68263111  1
  O  O435  1  0.02300185  0.08379043  0.93434301  1
  O  O436  1  0.02257639  0.41670491  0.18524810  1
  O  O437  1  0.02194224  0.41599070  0.43501690  1
  O  O438  1  0.02201185  0.41442207  0.68344455  1
  O  O439  1  0.02279237  0.41700723  0.93479618  1
  O  O440  1  0.02248875  0.75079260  0.18339955  1
  O  O441  1  0.02340910  0.75070422  0.43379594  1
  O  O442  1  0.02193326  0.74986808  0.68130829  1
  O  O443  1  0.02150722  0.75006802  0.93215938  1
  O  O444  1  0.52173866  0.08157129  0.18298959  1
  O  O445  1  0.52136188  0.08348515  0.43072056  1
  O  O446  1  0.52253604  0.08142286  0.68261807  1
  O  O447  1  0.52240667  0.08129962  0.93332596  1
  O  O448  1  0.52231925  0.41672864  0.18486593  1
  O  O449  1  0.52203408  0.41663751  0.43465979  1
  O  O450  1  0.52147727  0.41648195  0.68163375  1
  O  O451  1  0.52183663  0.41843277  0.93347092  1
  O  O452  1  0.52242346  0.75082475  0.18240640  1
  O  O453  1  0.52182137  0.74936395  0.43071633  1
  O  O454  1  0.52157525  0.74994421  0.68111683  1
  O  O455  1  0.52243938  0.75140604  0.93309896  1
  O  O456  1  0.47865635  0.24991162  0.06871104  1
  O  O457  1  0.47773031  0.25152019  0.31675556  1
  O  O458  1  0.47759438  0.25123297  0.56694588  1
  O  O459  1  0.47883725  0.24940850  0.81878648  1
  O  O460  1  0.47819836  0.58170358  0.06733284  1
  O  O461  1  0.47796055  0.58167712  0.31680486  1
  O  O462  1  0.47745719  0.58148556  0.56665205  1
  O  O463  1  0.47857151  0.58344117  0.81897711  1
  O  O464  1  0.47754055  0.91630193  0.06507536  1
  O  O465  1  0.47720423  0.91600914  0.31513462  1
  O  O466  1  0.47915367  0.91647579  0.56788354  1
  O  O467  1  0.47866587  0.91849389  0.81645313  1
  O  O468  1  0.97728369  0.25067291  0.06600499  1
  O  O469  1  0.97767378  0.25193654  0.31686502  1
  O  O470  1  0.97681802  0.25061500  0.56589468  1
  O  O471  1  0.97756846  0.25000184  0.81582508  1
  O  O472  1  0.97775176  0.58123898  0.06745885  1
  O  O473  1  0.97744218  0.58183378  0.31729119  1
  O  O474  1  0.97622829  0.58291822  0.56580244  1
  O  O475  1  0.97811643  0.58249864  0.81821604  1
  O  O476  1  0.97771388  0.91870579  0.06699066  1
  O  O477  1  0.97679723  0.91775086  0.31576451  1
  O  O478  1  0.97836459  0.91552102  0.56632221  1
  O  O479  1  0.97877824  0.91787747  0.81786167  1
  O  O480  1  0.07262270  0.31377430  0.07322083  1
  O  O481  1  0.07256418  0.31533812  0.32446926  1
  O  O482  1  0.07213682  0.31368349  0.57422327  1
  O  O483  1  0.07217957  0.31415258  0.82365603  1
  O  O484  1  0.07268186  0.64542361  0.07594826  1
  O  O485  1  0.07272085  0.64532481  0.32550231  1
  O  O486  1  0.07122166  0.64629331  0.57259122  1
  O  O487  1  0.07317274  0.64628183  0.82550569  1
  O  O488  1  0.07285526  0.98162073  0.07445321  1
  O  O489  1  0.07203967  0.98087211  0.32405512  1
  O  O490  1  0.07335318  0.97963985  0.57389333  1
  O  O491  1  0.07448407  0.98083746  0.82455198  1
  O  O492  1  0.57415424  0.31335009  0.07606170  1
  O  O493  1  0.57283896  0.31502291  0.32466779  1
  O  O494  1  0.57271247  0.31446651  0.57399160  1
  O  O495  1  0.57377567  0.31369856  0.82559378  1
  O  O496  1  0.57347266  0.64516268  0.07616657  1
  O  O497  1  0.57341967  0.64486743  0.32493570  1
  O  O498  1  0.57275080  0.64544463  0.57357086  1
  O  O499  1  0.57386205  0.64689663  0.82583467  1
  O  O500  1  0.57254338  0.97983437  0.07400321  1
  O  O501  1  0.57191452  0.98017652  0.32233605  1
  O  O502  1  0.57473994  0.97999040  0.57367994  1
  O  O503  1  0.57403554  0.98101071  0.82425897  1
  O  O504  1  0.42678486  0.01781981  0.17540007  1
  O  O505  1  0.42622333  0.01920175  0.42413265  1
  O  O506  1  0.42728102  0.01848412  0.67537341  1
  O  O507  1  0.42709568  0.01816080  0.92575157  1
  O  O508  1  0.42751102  0.35304402  0.17663241  1
  O  O509  1  0.42712838  0.35293914  0.42633100  1
  O  O510  1  0.42599167  0.35325305  0.67503714  1
  O  O511  1  0.42659639  0.35427739  0.92616667  1
  O  O512  1  0.42712222  0.68733988  0.17387151  1
  O  O513  1  0.42609769  0.68671333  0.42292850  1
  O  O514  1  0.42632672  0.68616328  0.67494521  1
  O  O515  1  0.42715290  0.68776407  0.92543719  1
  O  O516  1  0.92658544  0.01943521  0.17651347  1
  O  O517  1  0.92665544  0.02144838  0.42512807  1
  O  O518  1  0.92761716  0.02139627  0.67471160  1
  O  O519  1  0.92788141  0.02057930  0.92593680  1
  O  O520  1  0.92787544  0.35295539  0.17705204  1
  O  O521  1  0.92647085  0.35335609  0.42714523  1
  O  O522  1  0.92671772  0.35181510  0.67658611  1
  O  O523  1  0.92816866  0.35274127  0.92756578  1
  O  O524  1  0.92685070  0.68772245  0.17595498  1
  O  O525  1  0.92884585  0.68671361  0.42603131  1
  O  O526  1  0.92653920  0.68661028  0.67362707  1
  O  O527  1  0.92610498  0.68675329  0.92537970  1
  O  O528  1  0.17638940  0.02053388  0.19873976  1
  O  O529  1  0.17513870  0.02002680  0.45001672  1
  O  O530  1  0.17740775  0.01885286  0.69776498  1
  O  O531  1  0.17599032  0.02007916  0.95010257  1
  O  O532  1  0.17595887  0.35401663  0.19996086  1
  O  O533  1  0.17661407  0.35368179  0.45127186  1
  O  O534  1  0.17645617  0.35499554  0.70039672  1
  O  O535  1  0.17727992  0.35442199  0.94918264  1
  O  O536  1  0.17633515  0.68520450  0.19904200  1
  O  O537  1  0.17712454  0.68620845  0.44809232  1
  O  O538  1  0.17625798  0.68483456  0.69902850  1
  O  O539  1  0.17703006  0.68606877  0.94775809  1
  O  O540  1  0.67600077  0.01947524  0.20140210  1
  O  O541  1  0.67756778  0.02007402  0.44871708  1
  O  O542  1  0.67741820  0.02135522  0.69926307  1
  O  O543  1  0.67705830  0.01908084  0.94999729  1
  O  O544  1  0.67702397  0.35342449  0.20147515  1
  O  O545  1  0.67665122  0.35373505  0.45180004  1
  O  O546  1  0.67744352  0.35390572  0.69899377  1
  O  O547  1  0.67754955  0.35237617  0.94939720  1
  O  O548  1  0.67788452  0.68610919  0.19877270  1
  O  O549  1  0.67738355  0.68605181  0.44797920  1
  O  O550  1  0.67655615  0.68538504  0.69846212  1
  O  O551  1  0.67714430  0.68485957  0.94961827  1
  O  O552  1  0.32335554  0.31267942  0.05022974  1
  O  O553  1  0.32365053  0.31314605  0.29964063  1
  O  O554  1  0.32309787  0.31253063  0.55050603  1
  O  O555  1  0.32411488  0.31317527  0.79868487  1
  O  O556  1  0.32294051  0.64862065  0.05014237  1
  O  O557  1  0.32323566  0.64846964  0.30130553  1
  O  O558  1  0.32198146  0.64767351  0.55175635  1
  O  O559  1  0.32236668  0.64700558  0.80093425  1
  O  O560  1  0.32337613  0.97925653  0.04856758  1
  O  O561  1  0.32184223  0.97897630  0.29966160  1
  O  O562  1  0.32293292  0.98011372  0.54979725  1
  O  O563  1  0.32277670  0.97853852  0.79947270  1
  O  O564  1  0.82456489  0.31333168  0.05129339  1
  O  O565  1  0.82358890  0.31258749  0.30195156  1
  O  O566  1  0.82226777  0.31355765  0.55170390  1
  O  O567  1  0.82330753  0.31546969  0.80107013  1
  O  O568  1  0.82373986  0.64786733  0.05171793  1
  O  O569  1  0.82373574  0.64867457  0.30151115  1
  O  O570  1  0.82254850  0.64751456  0.55150519  1
  O  O571  1  0.82361530  0.64788748  0.80045111  1
  O  O572  1  0.82309749  0.97849393  0.05115843  1
  O  O573  1  0.82202797  0.97955397  0.30142352  1
  O  O574  1  0.82408343  0.98003650  0.54841260  1
  O  O575  1  0.82449699  0.98018444  0.79955960  1
  O  O576  1  0.42636920  0.14495864  0.17431366  1
  O  O577  1  0.42560862  0.14607457  0.42368677  1
  O  O578  1  0.42747509  0.14572310  0.67544122  1
  O  O579  1  0.42730530  0.14523888  0.92498868  1
  O  O580  1  0.42711285  0.48038878  0.17729226  1
  O  O581  1  0.42707604  0.48021542  0.42627759  1
  O  O582  1  0.42607369  0.47996716  0.67467383  1
  O  O583  1  0.42661988  0.48152239  0.92687621  1
  O  O584  1  0.42727334  0.81437224  0.17510719  1
  O  O585  1  0.42670455  0.81352294  0.42378257  1
  O  O586  1  0.42600552  0.81313212  0.67423154  1
  O  O587  1  0.42743217  0.81494010  0.92570459  1
  O  O588  1  0.92656829  0.14630960  0.17495303  1
  O  O589  1  0.92731246  0.14853932  0.42574652  1
  O  O590  1  0.92686497  0.14845585  0.67610630  1
  O  O591  1  0.92833854  0.14791405  0.92703991  1
  O  O592  1  0.92745953  0.48009418  0.17711293  1
  O  O593  1  0.92746559  0.48042574  0.42766750  1
  O  O594  1  0.92710558  0.47872606  0.67532974  1
  O  O595  1  0.92757928  0.48003276  0.92704787  1
  O  O596  1  0.92790505  0.81490359  0.17690887  1
  O  O597  1  0.92808310  0.81409469  0.42607689  1
  O  O598  1  0.92659601  0.81340722  0.67383499  1
  O  O599  1  0.92621864  0.81375069  0.92473780  1
  O  O600  1  0.07165939  0.18651119  0.07305293  1
  O  O601  1  0.07306471  0.18844089  0.32485515  1
  O  O602  1  0.07141605  0.18658975  0.57325128  1
  O  O603  1  0.07287341  0.18701786  0.82331905  1
  O  O604  1  0.07308401  0.51829932  0.07475794  1
  O  O605  1  0.07240632  0.51838690  0.32543432  1
  O  O606  1  0.07108439  0.51880319  0.57343889  1
  O  O607  1  0.07371363  0.51951009  0.82516361  1
  O  O608  1  0.07295629  0.85469869  0.07530811  1
  O  O609  1  0.07137216  0.85344962  0.32280442  1
  O  O610  1  0.07362691  0.85241807  0.57335089  1
  O  O611  1  0.07379856  0.85394449  0.82546151  1
  O  O612  1  0.57393181  0.18643648  0.07681767  1
  O  O613  1  0.57294493  0.18789193  0.32555147  1
  O  O614  1  0.57280630  0.18727764  0.57406790  1
  O  O615  1  0.57463663  0.18669283  0.82544880  1
  O  O616  1  0.57315964  0.51800137  0.07474474  1
  O  O617  1  0.57299447  0.51783975  0.32443218  1
  O  O618  1  0.57258568  0.51826276  0.57392058  1
  O  O619  1  0.57417604  0.52005363  0.82524808  1
  O  O620  1  0.57243993  0.85264674  0.07365883  1
  O  O621  1  0.57247487  0.85264972  0.32205738  1
  O  O622  1  0.57455033  0.85313484  0.57461084  1
  O  O623  1  0.57359098  0.85401587  0.82455326  1
  O  O624  1  0.32317109  0.18538522  0.05031956  1
  O  O625  1  0.32353247  0.18625606  0.29970524  1
  O  O626  1  0.32276050  0.18522329  0.55093722  1
  O  O627  1  0.32377193  0.18626654  0.79926689  1
  O  O628  1  0.32304016  0.52171792  0.05036882  1
  O  O629  1  0.32278302  0.52144895  0.30016374  1
  O  O630  1  0.32121835  0.52034509  0.55150215  1
  O  O631  1  0.32242342  0.51993292  0.80153118  1
  O  O632  1  0.32342256  0.85245617  0.04924219  1
  O  O633  1  0.32209672  0.85172970  0.30034068  1
  O  O634  1  0.32281553  0.85311606  0.54937171  1
  O  O635  1  0.32284681  0.85136695  0.79950027  1
  O  O636  1  0.82411297  0.18642037  0.04990220  1
  O  O637  1  0.82379005  0.18533253  0.30237648  1
  O  O638  1  0.82180057  0.18624209  0.55254364  1
  O  O639  1  0.82339374  0.18852041  0.80031446  1
  O  O640  1  0.82340826  0.52083817  0.05063808  1
  O  O641  1  0.82374297  0.52164314  0.30100143  1
  O  O642  1  0.82157591  0.52015289  0.55203459  1
  O  O643  1  0.82384968  0.52103783  0.80014280  1
  O  O644  1  0.82331486  0.85136879  0.05169446  1
  O  O645  1  0.82123646  0.85225347  0.30233493  1
  O  O646  1  0.82366475  0.85329397  0.54831711  1
  O  O647  1  0.82473493  0.85310878  0.79920842  1
  O  O648  1  0.17608172  0.14796361  0.19842705  1
  O  O649  1  0.17598238  0.14662474  0.45055799  1
  O  O650  1  0.17790494  0.14653704  0.69793319  1
  O  O651  1  0.17618592  0.14691042  0.94921803  1
  O  O652  1  0.17617602  0.48093172  0.20059601  1
  O  O653  1  0.17601363  0.48060819  0.45044601  1
  O  O654  1  0.17650157  0.48202210  0.69910237  1
  O  O655  1  0.17704006  0.48170765  0.94924368  1
  O  O656  1  0.17638678  0.81203093  0.19937112  1
  O  O657  1  0.17748811  0.81356627  0.44787861  1
  O  O658  1  0.17603505  0.81164787  0.69910422  1
  O  O659  1  0.17762663  0.81345374  0.94828834  1
  O  O660  1  0.67665303  0.14625680  0.20136047  1
  O  O661  1  0.67740411  0.14747494  0.44861988  1
  O  O662  1  0.67725417  0.14856048  0.69923135  1
  O  O663  1  0.67621519  0.14616367  0.95073235  1
  O  O664  1  0.67660340  0.48043287  0.20103139  1
  O  O665  1  0.67687139  0.48043054  0.45192108  1
  O  O666  1  0.67898899  0.48123618  0.69901582  1
  O  O667  1  0.67753481  0.47951167  0.94978134  1
  O  O668  1  0.67792792  0.81326145  0.19839055  1
  O  O669  1  0.67818486  0.81328780  0.44765090  1
  O  O670  1  0.67706843  0.81245514  0.69955848  1
  O  O671  1  0.67747310  0.81181226  0.94945385  1
