# generated using pymatgen
data_Na2MnFe(PO4)2
_symmetry_space_group_name_H-M   'P 1'
_cell_length_a   22.34505126
_cell_length_b   20.09919398
_cell_length_c   19.44873792
_cell_angle_alpha   89.98390855
_cell_angle_beta   89.92255159
_cell_angle_gamma   89.96779699
_symmetry_Int_Tables_number   1
_chemical_formula_structural   Na2MnFe(PO4)2
_chemical_formula_sum   'Na96 Mn48 Fe48 P96 O384'
_cell_volume   8734.75923779
_cell_formula_units_Z   48
loop_
 _symmetry_equiv_pos_site_id
 _symmetry_equiv_pos_as_xyz
  1  'x, y, z'
loop_
 _atom_site_type_symbol
 _atom_site_label
 _atom_site_symmetry_multiplicity
 _atom_site_fract_x
 _atom_site_fract_y
 _atom_site_fract_z
 _atom_site_occupancy
  Na  Na0  1  0.14129430  0.24970860  0.24330989  1
  Na  Na1  1  0.14120511  0.24983643  0.49327104  1
  Na  Na2  1  0.14135803  0.24933227  0.74376285  1
  Na  Na3  1  0.14106748  0.24992858  0.99496738  1
  Na  Na4  1  0.14124540  0.58246843  0.24346024  1
  Na  Na5  1  0.14058358  0.58360335  0.49284777  1
  Na  Na6  1  0.14053005  0.58219082  0.74265778  1
  Na  Na7  1  0.14093386  0.58234701  0.99315209  1
  Na  Na8  1  0.14122073  0.91583499  0.24353255  1
  Na  Na9  1  0.14158512  0.91683835  0.49350651  1
  Na  Na10  1  0.14109958  0.91654708  0.74308121  1
  Na  Na11  1  0.14069449  0.91731236  0.99353398  1
  Na  Na12  1  0.64038195  0.24916414  0.24587680  1
  Na  Na13  1  0.64035143  0.24965314  0.49299525  1
  Na  Na14  1  0.63967187  0.25047128  0.74264485  1
  Na  Na15  1  0.64027524  0.25063211  0.99361618  1
  Na  Na16  1  0.64059761  0.58369107  0.24518281  1
  Na  Na17  1  0.64003248  0.58466682  0.49373965  1
  Na  Na18  1  0.63987647  0.58400621  0.74414265  1
  Na  Na19  1  0.64031264  0.58389500  0.99339673  1
  Na  Na20  1  0.64005060  0.91715478  0.24449955  1
  Na  Na21  1  0.64033106  0.91841548  0.49369656  1
  Na  Na22  1  0.63969306  0.91709582  0.74279365  1
  Na  Na23  1  0.63992894  0.91571834  0.99411884  1
  Na  Na24  1  0.35926008  0.08367183  0.00665065  1
  Na  Na25  1  0.35948313  0.08257972  0.25780105  1
  Na  Na26  1  0.35950942  0.08344803  0.50872384  1
  Na  Na27  1  0.35992652  0.08306364  0.75649243  1
  Na  Na28  1  0.35885203  0.41638697  0.00642691  1
  Na  Na29  1  0.35909612  0.41629575  0.25690641  1
  Na  Na30  1  0.35917567  0.41556403  0.50735444  1
  Na  Na31  1  0.35940435  0.41567655  0.75662875  1
  Na  Na32  1  0.35901494  0.75124493  0.00580273  1
  Na  Na33  1  0.35884895  0.74937843  0.25638410  1
  Na  Na34  1  0.35947218  0.75051016  0.50788220  1
  Na  Na35  1  0.35937909  0.75036951  0.75688686  1
  Na  Na36  1  0.85937137  0.08218339  0.00664150  1
  Na  Na37  1  0.85931303  0.08296287  0.25697672  1
  Na  Na38  1  0.86006879  0.08342481  0.50478989  1
  Na  Na39  1  0.85975309  0.08377028  0.75496606  1
  Na  Na40  1  0.85972500  0.41734452  0.00520142  1
  Na  Na41  1  0.85965338  0.41567896  0.25682873  1
  Na  Na42  1  0.85974186  0.41733859  0.50580475  1
  Na  Na43  1  0.85951218  0.41805884  0.75597593  1
  Na  Na44  1  0.85899348  0.75003842  0.00561904  1
  Na  Na45  1  0.85919892  0.75057983  0.25576185  1
  Na  Na46  1  0.85944618  0.75035420  0.50492424  1
  Na  Na47  1  0.85960258  0.74885449  0.75496348  1
  Na  Na48  1  0.11064525  0.08352930  0.11891272  1
  Na  Na49  1  0.11054636  0.08389338  0.36822402  1
  Na  Na50  1  0.11101035  0.08343909  0.61812379  1
  Na  Na51  1  0.11027705  0.08224483  0.86932585  1
  Na  Na52  1  0.11079716  0.41554313  0.11822079  1
  Na  Na53  1  0.11014021  0.41584215  0.36812022  1
  Na  Na54  1  0.11008789  0.41735569  0.61873544  1
  Na  Na55  1  0.11074264  0.41669651  0.86867956  1
  Na  Na56  1  0.10975134  0.74925413  0.11776203  1
  Na  Na57  1  0.11100586  0.74899978  0.36856285  1
  Na  Na58  1  0.11054405  0.74983226  0.61670209  1
  Na  Na59  1  0.10971599  0.74970041  0.86801931  1
  Na  Na60  1  0.60974538  0.08136358  0.11974868  1
  Na  Na61  1  0.60977347  0.08324173  0.36959707  1
  Na  Na62  1  0.60928110  0.08483326  0.61807446  1
  Na  Na63  1  0.60903667  0.08374045  0.86750973  1
  Na  Na64  1  0.60967639  0.41643953  0.12003677  1
  Na  Na65  1  0.60971968  0.41605241  0.36974330  1
  Na  Na66  1  0.60895569  0.41649516  0.61824278  1
  Na  Na67  1  0.60918445  0.41739152  0.86788362  1
  Na  Na68  1  0.60951159  0.75030900  0.11898828  1
  Na  Na69  1  0.60934456  0.75106060  0.36910925  1
  Na  Na70  1  0.60972174  0.75098182  0.61896810  1
  Na  Na71  1  0.60895748  0.75112458  0.86830020  1
  Na  Na72  1  0.38962971  0.24887106  0.13276394  1
  Na  Na73  1  0.38966100  0.24892465  0.38366876  1
  Na  Na74  1  0.38996922  0.24953583  0.63221709  1
  Na  Na75  1  0.38987085  0.25019431  0.88067074  1
  Na  Na76  1  0.38917369  0.58325252  0.13164869  1
  Na  Na77  1  0.38999091  0.58351780  0.38207180  1
  Na  Na78  1  0.39021117  0.58449349  0.63201420  1
  Na  Na79  1  0.38962719  0.58420656  0.88189071  1
  Na  Na80  1  0.38969840  0.91674075  0.13111189  1
  Na  Na81  1  0.39014491  0.91695478  0.38331722  1
  Na  Na82  1  0.39022760  0.91755630  0.63366573  1
  Na  Na83  1  0.38941661  0.91709271  0.88063206  1
  Na  Na84  1  0.89047634  0.24986448  0.13181034  1
  Na  Na85  1  0.89033952  0.24994800  0.38150479  1
  Na  Na86  1  0.89017374  0.25045063  0.63028426  1
  Na  Na87  1  0.89084766  0.25003503  0.88042843  1
  Na  Na88  1  0.89047124  0.58173656  0.13011964  1
  Na  Na89  1  0.89065223  0.58280130  0.38136323  1
  Na  Na90  1  0.89019696  0.58406535  0.63014920  1
  Na  Na91  1  0.88990375  0.58290423  0.88037966  1
  Na  Na92  1  0.88955480  0.91779337  0.13192916  1
  Na  Na93  1  0.89004085  0.91625001  0.38083747  1
  Na  Na94  1  0.89087780  0.91693992  0.62879008  1
  Na  Na95  1  0.89030696  0.91650791  0.88102955  1
  Mn  Mn96  1  0.74960260  0.33336165  0.12523281  1
  Mn  Mn97  1  0.00024262  0.66569781  0.74894030  1
  Mn  Mn98  1  0.49986421  0.49961497  0.25121738  1
  Mn  Mn99  1  0.00025550  0.83297211  0.24970108  1
  Mn  Mn100  1  0.00056060  0.83337029  0.74876113  1
  Mn  Mn101  1  0.00073457  0.33363675  0.00002157  1
  Mn  Mn102  1  0.49904257  -0.00093069  -0.00102466  1
  Mn  Mn103  1  0.75064162  0.00118158  0.62364759  1
  Mn  Mn104  1  -0.00029214  0.66526673  -0.00130058  1
  Mn  Mn105  1  0.00113373  0.00043743  0.24997677  1
  Mn  Mn106  1  0.74975756  0.66756184  0.37429634  1
  Mn  Mn107  1  0.00014588  0.16643231  0.75012382  1
  Mn  Mn108  1  0.49880626  0.83409057  0.25081942  1
  Mn  Mn109  1  0.49996258  0.83425169  0.50094446  1
  Mn  Mn110  1  0.00107171  0.16653564  0.49982802  1
  Mn  Mn111  1  0.00080073  0.33400938  0.50039403  1
  Mn  Mn112  1  0.74952142  -0.00013832  0.87467046  1
  Mn  Mn113  1  0.24950513  0.66646963  0.87467092  1
  Mn  Mn114  1  0.74957981  0.49994495  0.12509842  1
  Mn  Mn115  1  0.00066943  0.33462980  0.75047001  1
  Mn  Mn116  1  0.00044403  0.66565140  0.24909833  1
  Mn  Mn117  1  0.75056747  0.83330739  0.62448400  1
  Mn  Mn118  1  0.49943854  0.50036761  -0.00039752  1
  Mn  Mn119  1  0.49929806  0.50074413  0.74966770  1
  Mn  Mn120  1  0.00056176  0.16602838  0.00059696  1
  Mn  Mn121  1  -0.00050940  0.83370315  -0.00091040  1
  Mn  Mn122  1  0.74947507  0.50121494  0.62516044  1
  Mn  Mn123  1  0.49985077  0.50029551  0.50090546  1
  Mn  Mn124  1  0.25029452  0.49992582  0.37489619  1
  Mn  Mn125  1  0.24996926  0.16653549  0.87559987  1
  Mn  Mn126  1  0.00037068  -0.00005221  0.74961804  1
  Mn  Mn127  1  0.25069509  -0.00001697  0.37582403  1
  Mn  Mn128  1  0.49977894  0.66679849  0.25017645  1
  Mn  Mn129  1  0.00094653  0.49875837  0.25024564  1
  Mn  Mn130  1  0.74961322  0.16686421  0.87517053  1
  Mn  Mn131  1  0.75021372  0.16581743  0.12508619  1
  Mn  Mn132  1  0.49982648  0.16619412  -0.00007114  1
  Mn  Mn133  1  0.49959950  0.33248031  0.25070572  1
  Mn  Mn134  1  0.00080917  0.83316234  0.49901932  1
  Mn  Mn135  1  0.74953826  0.33336553  0.62473543  1
  Mn  Mn136  1  0.75029428  0.83256233  0.87407618  1
  Mn  Mn137  1  0.49955703  0.66790981  0.00070860  1
  Mn  Mn138  1  0.25024588  0.49918727  0.62464317  1
  Mn  Mn139  1  0.24972116  0.83317089  0.12482691  1
  Mn  Mn140  1  0.49996950  0.16526162  0.25153886  1
  Mn  Mn141  1  0.75055282  0.66724660  0.12523801  1
  Mn  Mn142  1  0.75035142  0.33411968  0.87411214  1
  Mn  Mn143  1  0.49963876  0.33291423  0.00016718  1
  Fe  Fe144  1  0.49968756  0.16650397  0.50108582  1
  Fe  Fe145  1  0.25029851  0.49950766  0.87489948  1
  Fe  Fe146  1  0.00009669  0.66618692  0.49939096  1
  Fe  Fe147  1  0.00018311  0.50044659  0.74904199  1
  Fe  Fe148  1  0.25057675  0.16655455  0.12548597  1
  Fe  Fe149  1  0.25051705  0.66669435  0.37482997  1
  Fe  Fe150  1  0.49975857  0.66755871  0.50122327  1
  Fe  Fe151  1  0.74963740  0.66694269  0.62445559  1
  Fe  Fe152  1  0.25044394  0.83284681  0.37517765  1
  Fe  Fe153  1  0.25028946  0.33275151  0.37518168  1
  Fe  Fe154  1  0.74912848  0.83373807  0.12508267  1
  Fe  Fe155  1  0.75021021  0.00012384  0.37449405  1
  Fe  Fe156  1  0.25024882  0.66645353  0.62491822  1
  Fe  Fe157  1  0.25057907  0.33301097  0.12549754  1
  Fe  Fe158  1  0.00016328  0.49997753  0.49922004  1
  Fe  Fe159  1  0.49962080  0.66802693  0.75073458  1
  Fe  Fe160  1  0.49977420  0.83419517  0.74978631  1
  Fe  Fe161  1  0.75026774  0.16708891  0.62386172  1
  Fe  Fe162  1  -0.00013742  0.16662384  0.24985952  1
  Fe  Fe163  1  0.74944945  0.83412800  0.37477161  1
  Fe  Fe164  1  0.49938341  0.83386705  -0.00050797  1
  Fe  Fe165  1  0.49955413  0.33297979  0.50051338  1
  Fe  Fe166  1  0.25057113  -0.00010289  0.12554181  1
  Fe  Fe167  1  0.74934962  -0.00063176  0.12574870  1
  Fe  Fe168  1  0.74929719  0.50063297  0.87492471  1
  Fe  Fe169  1  0.25023966  0.16662529  0.37579451  1
  Fe  Fe170  1  0.24929218  0.83340650  0.87481773  1
  Fe  Fe171  1  0.24983175  0.00005344  0.87505599  1
  Fe  Fe172  1  0.49999881  0.16726167  0.74915893  1
  Fe  Fe173  1  0.49948639  -0.00029501  0.25070343  1
  Fe  Fe174  1  0.74937115  0.66662366  0.87527981  1
  Fe  Fe175  1  0.25004042  -0.00032877  0.62552112  1
  Fe  Fe176  1  -0.00008972  0.33294206  0.24951455  1
  Fe  Fe177  1  0.24955254  0.66644378  0.12471494  1
  Fe  Fe178  1  0.75014842  0.33315506  0.37558566  1
  Fe  Fe179  1  0.25017472  0.16652071  0.62573131  1
  Fe  Fe180  1  0.49948618  0.33326389  0.74939925  1
  Fe  Fe181  1  0.75033685  0.50033095  0.37508611  1
  Fe  Fe182  1  0.00033107  0.49914007  -0.00005060  1
  Fe  Fe183  1  -0.00007664  0.00013730  0.00037093  1
  Fe  Fe184  1  0.25010305  0.49966370  0.12471049  1
  Fe  Fe185  1  0.25020067  0.83315989  0.62524533  1
  Fe  Fe186  1  0.25001394  0.33297526  0.87538144  1
  Fe  Fe187  1  0.49998034  0.00060412  0.50154542  1
  Fe  Fe188  1  0.00083028  0.00010002  0.49915720  1
  Fe  Fe189  1  0.24968050  0.33271891  0.62529291  1
  Fe  Fe190  1  0.75025625  0.16639940  0.37448297  1
  Fe  Fe191  1  0.49979004  0.00071076  0.75019660  1
  P  P192  1  0.04280879  0.24987332  0.10424464  1
  P  P193  1  0.04175531  0.25000835  0.35119390  1
  P  P194  1  0.04360535  0.25038104  0.60316897  1
  P  P195  1  0.04355577  0.24998317  0.85325428  1
  P  P196  1  0.04287214  0.58127482  0.10175610  1
  P  P197  1  0.04324014  0.58294376  0.35363628  1
  P  P198  1  0.04174437  0.58267853  0.60097559  1
  P  P199  1  0.04273804  0.58144465  0.85210453  1
  P  P200  1  0.04236553  0.91780655  0.10216823  1
  P  P201  1  0.04345049  0.91657250  0.35317257  1
  P  P202  1  0.04327320  0.91788960  0.60144947  1
  P  P203  1  0.04305922  0.91665264  0.85305229  1
  P  P204  1  0.54268364  0.24901006  0.10355526  1
  P  P205  1  0.54195276  0.24937261  0.35509643  1
  P  P206  1  0.54097461  0.25027964  0.60228754  1
  P  P207  1  0.54113407  0.25026731  0.85086948  1
  P  P208  1  0.54265085  0.58332579  0.10328544  1
  P  P209  1  0.54256889  0.58382794  0.35449755  1
  P  P210  1  0.54170180  0.58554453  0.60349218  1
  P  P211  1  0.54136346  0.58529965  0.85239969  1
  P  P212  1  0.54152822  0.91563919  0.10254195  1
  P  P213  1  0.54164011  0.91857335  0.35362077  1
  P  P214  1  0.54203536  0.91862980  0.60385381  1
  P  P215  1  0.54098248  0.91695341  0.85134316  1
  P  P216  1  0.45726724  0.08147958  0.14833901  1
  P  P217  1  0.45825468  0.08271531  0.39970207  1
  P  P218  1  0.45885474  0.08364010  0.64812192  1
  P  P219  1  0.45691022  0.08347453  0.89568320  1
  P  P220  1  0.45663979  0.41640391  0.14750880  1
  P  P221  1  0.45726843  0.41541411  0.39869816  1
  P  P222  1  0.45755305  0.41541471  0.64719517  1
  P  P223  1  0.45694398  0.41629752  0.89618461  1
  P  P224  1  0.45652238  0.75078154  0.14691689  1
  P  P225  1  0.45758645  0.74956114  0.39875258  1
  P  P226  1  0.45848902  0.75055232  0.64868328  1
  P  P227  1  0.45738076  0.75190760  0.89680689  1
  P  P228  1  0.95785827  0.08427258  0.14758640  1
  P  P229  1  0.95860545  0.08265927  0.39678969  1
  P  P230  1  0.95788492  0.08314606  0.64589323  1
  P  P231  1  0.95751033  0.08212295  0.89782772  1
  P  P232  1  0.95786583  0.41537433  0.14722184  1
  P  P233  1  0.95822250  0.41703068  0.39710975  1
  P  P234  1  0.95778810  0.41858036  0.64683128  1
  P  P235  1  0.95816490  0.41823063  0.89692035  1
  P  P236  1  0.95709593  0.74962273  0.14617958  1
  P  P237  1  0.95821452  0.74845389  0.39699968  1
  P  P238  1  0.95790463  0.74948507  0.64530908  1
  P  P239  1  0.95697398  0.74948363  0.89596623  1
  P  P240  1  0.20947797  0.08327288  0.22730857  1
  P  P241  1  0.20843963  0.08453510  0.47848685  1
  P  P242  1  0.20918049  0.08291723  0.72716769  1
  P  P243  1  0.20836233  0.08213518  0.97843804  1
  P  P244  1  0.20929678  0.41636676  0.22668941  1
  P  P245  1  0.20829479  0.41491339  0.47739491  1
  P  P246  1  0.20824141  0.41506530  0.72800035  1
  P  P247  1  0.20925166  0.41628920  0.97727084  1
  P  P248  1  0.20749190  0.74811116  0.22759993  1
  P  P249  1  0.20955668  0.74979931  0.47734297  1
  P  P250  1  0.20848750  0.74989833  0.72644264  1
  P  P251  1  0.20752164  0.75099703  0.97728698  1
  P  P252  1  0.70811994  0.08181925  0.22854831  1
  P  P253  1  0.70908981  0.08386435  0.47621833  1
  P  P254  1  0.70747690  0.08502916  0.72647054  1
  P  P255  1  0.70660767  0.08252657  0.97862588  1
  P  P256  1  0.70742497  0.41649063  0.22972362  1
  P  P257  1  0.70866880  0.41721152  0.47666656  1
  P  P258  1  0.70662802  0.41759645  0.72816549  1
  P  P259  1  0.70723071  0.41796577  0.97693136  1
  P  P260  1  0.70745383  0.75195638  0.22787633  1
  P  P261  1  0.70742329  0.75172944  0.47731075  1
  P  P262  1  0.70778873  0.74848872  0.72741835  1
  P  P263  1  0.70731995  0.74953285  0.97759207  1
  P  P264  1  0.29142439  0.25015892  0.02376687  1
  P  P265  1  0.29173969  0.24931737  0.27350484  1
  P  P266  1  0.29123714  0.24948683  0.52359291  1
  P  P267  1  0.29176967  0.25078407  0.77234757  1
  P  P268  1  0.29096863  0.58319514  0.02293102  1
  P  P269  1  0.29244188  0.58444027  0.27205232  1
  P  P270  1  0.29214131  0.58453523  0.52241168  1
  P  P271  1  0.29184450  0.58208032  0.77234750  1
  P  P272  1  0.29183961  0.91829176  0.02211048  1
  P  P273  1  0.29220368  0.91532814  0.27301802  1
  P  P274  1  0.29191287  0.91649852  0.52411700  1
  P  P275  1  0.29075478  0.91641337  0.77288884  1
  P  P276  1  0.79288534  0.25010124  0.02197174  1
  P  P277  1  0.79148162  0.24989960  0.27361859  1
  P  P278  1  0.79211927  0.24927362  0.52114352  1
  P  P279  1  0.79294279  0.24983277  0.77095695  1
  P  P280  1  0.79225981  0.58354322  0.02102941  1
  P  P281  1  0.79276778  0.58245600  0.27269223  1
  P  P282  1  0.79171535  0.58478165  0.52170388  1
  P  P283  1  0.79092578  0.58408024  0.77304830  1
  P  P284  1  0.79111014  0.91644536  0.02354425  1
  P  P285  1  0.79123342  0.91671645  0.27258118  1
  P  P286  1  0.79277083  0.91704803  0.52023447  1
  P  P287  1  0.79296439  0.91677252  0.77124123  1
  O  O288  1  0.03724663  0.24989909  0.18417392  1
  O  O289  1  0.03722072  0.25007374  0.43125937  1
  O  O290  1  0.03859437  0.25045659  0.68309426  1
  O  O291  1  0.03841286  0.24997465  0.93325160  1
  O  O292  1  0.03810573  0.58151731  0.18175426  1
  O  O293  1  0.03779882  0.58314683  0.43356863  1
  O  O294  1  0.03679399  0.58234069  0.68101525  1
  O  O295  1  0.03755323  0.58128992  0.93205057  1
  O  O296  1  0.03771085  0.91734049  0.18220710  1
  O  O297  1  0.03837470  0.91705366  0.43313384  1
  O  O298  1  0.03811585  0.91739396  0.68143557  1
  O  O299  1  0.03777625  0.91718063  0.93301366  1
  O  O300  1  0.53766378  0.24877281  0.18357095  1
  O  O301  1  0.53670393  0.24966877  0.43501246  1
  O  O302  1  0.53624293  0.25030724  0.68223875  1
  O  O303  1  0.53658555  0.24982740  0.93089759  1
  O  O304  1  0.53778946  0.58314541  0.18332425  1
  O  O305  1  0.53728686  0.58447467  0.43450106  1
  O  O306  1  0.53608629  0.58563777  0.68341605  1
  O  O307  1  0.53639902  0.58506209  0.93236517  1
  O  O308  1  0.53629640  0.91633522  0.18248087  1
  O  O309  1  0.53667856  0.91870025  0.43358299  1
  O  O310  1  0.53680640  0.91846673  0.68372973  1
  O  O311  1  0.53592144  0.91594482  0.93128092  1
  O  O312  1  0.46191527  0.08183625  0.06834256  1
  O  O313  1  0.46278107  0.08241671  0.31969948  1
  O  O314  1  0.46379903  0.08352391  0.56822548  1
  O  O315  1  0.46215537  0.08378486  0.81578725  1
  O  O316  1  0.46154261  0.41648532  0.06746565  1
  O  O317  1  0.46224226  0.41565092  0.31870538  1
  O  O318  1  0.46320466  0.41523864  0.56729510  1
  O  O319  1  0.46214076  0.41603969  0.81618341  1
  O  O320  1  0.46155204  0.75150179  0.06692890  1
  O  O321  1  0.46241881  0.74976908  0.31877698  1
  O  O322  1  0.46321755  0.75038162  0.56869128  1
  O  O323  1  0.46298106  0.75147514  0.81691490  1
  O  O324  1  0.96262958  0.08341984  0.06760950  1
  O  O325  1  0.96399066  0.08370759  0.31687119  1
  O  O326  1  0.96337091  0.08260125  0.56595529  1
  O  O327  1  0.96252802  0.08252594  0.81781653  1
  O  O328  1  0.96290019  0.41609110  0.06724014  1
  O  O329  1  0.96336918  0.41594222  0.31716522  1
  O  O330  1  0.96304417  0.41861743  0.56685408  1
  O  O331  1  0.96336117  0.41859820  0.81694498  1
  O  O332  1  0.96201850  0.74971182  0.06616786  1
  O  O333  1  0.96298189  0.74865850  0.31698728  1
  O  O334  1  0.96328518  0.74889123  0.56535688  1
  O  O335  1  0.96233442  0.74956023  0.81597538  1
  O  O336  1  0.21377525  0.08209044  0.05827302  1
  O  O337  1  0.21452179  0.08398803  0.30725872  1
  O  O338  1  0.21348512  0.08433960  0.55835031  1
  O  O339  1  0.21378981  0.08228724  0.80712659  1
  O  O340  1  0.21432024  0.41687596  0.05713041  1
  O  O341  1  0.21398100  0.41614372  0.30661914  1
  O  O342  1  0.21337380  0.41463190  0.55730239  1
  O  O343  1  0.21368671  0.41560502  0.80783558  1
  O  O344  1  0.21272483  0.75039530  0.05716468  1
  O  O345  1  0.21283300  0.74807864  0.30743325  1
  O  O346  1  0.21456304  0.75007611  0.55724750  1
  O  O347  1  0.21307818  0.75000697  0.80641487  1
  O  O348  1  0.71181575  0.08183974  0.05861789  1
  O  O349  1  0.71379542  0.08196515  0.30840275  1
  O  O350  1  0.71412576  0.08472771  0.55613649  1
  O  O351  1  0.71218490  0.08464936  0.80647705  1
  O  O352  1  0.71199301  0.41755275  0.05696154  1
  O  O353  1  0.71320283  0.41643369  0.30960652  1
  O  O354  1  0.71347469  0.41717401  0.55668025  1
  O  O355  1  0.71162814  0.41800225  0.80811403  1
  O  O356  1  0.71260927  0.75043442  0.05752570  1
  O  O357  1  0.71272162  0.75217980  0.30781544  1
  O  O358  1  0.71287609  0.75091675  0.55720902  1
  O  O359  1  0.71290028  0.74826949  0.80736838  1
  O  O360  1  0.28690834  0.24945106  0.19362844  1
  O  O361  1  0.28631091  0.24885717  0.44370328  1
  O  O362  1  0.28625469  0.25057103  0.69253741  1
  O  O363  1  0.28667253  0.25044072  0.94384933  1
  O  O364  1  0.28718430  0.58434733  0.19221222  1
  O  O365  1  0.28707021  0.58487894  0.44248241  1
  O  O366  1  0.28703940  0.58247544  0.69239767  1
  O  O367  1  0.28577086  0.58249178  0.94296742  1
  O  O368  1  0.28682876  0.91591293  0.19314507  1
  O  O369  1  0.28769700  0.91682063  0.44418593  1
  O  O370  1  0.28562764  0.91602944  0.69300903  1
  O  O371  1  0.28631730  0.91835161  0.94229930  1
  O  O372  1  0.78684503  0.24980267  0.19363888  1
  O  O373  1  0.78662064  0.24972283  0.44125890  1
  O  O374  1  0.78773348  0.24941774  0.69095804  1
  O  O375  1  0.78785434  0.25016954  0.94198864  1
  O  O376  1  0.78769711  0.58260747  0.19274347  1
  O  O377  1  0.78642722  0.58408181  0.44181029  1
  O  O378  1  0.78609744  0.58435620  0.69303173  1
  O  O379  1  0.78656962  0.58352027  0.94113556  1
  O  O380  1  0.78568118  0.91669833  0.19267765  1
  O  O381  1  0.78731095  0.91697531  0.44035396  1
  O  O382  1  0.78821883  0.91690962  0.69126397  1
  O  O383  1  0.78636199  0.91645191  0.94353263  1
  O  O384  1  0.22737106  0.25000903  0.05988215  1
  O  O385  1  0.22757872  0.24897021  0.30975276  1
  O  O386  1  0.22713098  0.24977954  0.55981295  1
  O  O387  1  0.22779787  0.25117803  0.80898552  1
  O  O388  1  0.22699267  0.58351617  0.05942549  1
  O  O389  1  0.22830177  0.58449466  0.30833389  1
  O  O390  1  0.22788976  0.58405701  0.55816148  1
  O  O391  1  0.22756629  0.58208049  0.80798595  1
  O  O392  1  0.22783083  0.91859846  0.05872540  1
  O  O393  1  0.22808672  0.91534217  0.30917149  1
  O  O394  1  0.22754060  0.91600181  0.55955016  1
  O  O395  1  0.22683237  0.91642405  0.80958167  1
  O  O396  1  0.72839974  0.24967007  0.05699755  1
  O  O397  1  0.72731070  0.25041472  0.30942044  1
  O  O398  1  0.72796638  0.24872306  0.55747270  1
  O  O399  1  0.72849536  0.25034083  0.80614601  1
  O  O400  1  0.72813637  0.58404976  0.05714406  1
  O  O401  1  0.72837733  0.58243062  0.30812353  1
  O  O402  1  0.72748204  0.58541271  0.55766611  1
  O  O403  1  0.72675541  0.58425601  0.80912434  1
  O  O404  1  0.72682694  0.91667784  0.05938130  1
  O  O405  1  0.72724815  0.91706310  0.30931626  1
  O  O406  1  0.72864078  0.91706735  0.55623478  1
  O  O407  1  0.72839312  0.91635545  0.80605059  1
  O  O408  1  0.27351787  0.08257178  0.19103472  1
  O  O409  1  0.27269520  0.08489226  0.44256179  1
  O  O410  1  0.27328183  0.08319897  0.69116829  1
  O  O411  1  0.27237470  0.08206383  0.94192609  1
  O  O412  1  0.27338619  0.41680456  0.19070537  1
  O  O413  1  0.27252813  0.41507922  0.44159086  1
  O  O414  1  0.27231794  0.41468103  0.69159655  1
  O  O415  1  0.27316334  0.41547069  0.94057446  1
  O  O416  1  0.27163649  0.74815759  0.19132538  1
  O  O417  1  0.27354312  0.74956469  0.44082711  1
  O  O418  1  0.27282210  0.74998131  0.69079306  1
  O  O419  1  0.27168941  0.75124306  0.94125733  1
  O  O420  1  0.77214922  0.08135515  0.19206056  1
  O  O421  1  0.77314877  0.08313096  0.44003307  1
  O  O422  1  0.77196257  0.08563550  0.69117396  1
  O  O423  1  0.77106176  0.08294725  0.94338924  1
  O  O424  1  0.77157558  0.41645781  0.19362295  1
  O  O425  1  0.77285435  0.41720159  0.44080678  1
  O  O426  1  0.77103994  0.41724362  0.69295977  1
  O  O427  1  0.77166873  0.41835432  0.94161507  1
  O  O428  1  0.77167731  0.75223522  0.19194870  1
  O  O429  1  0.77160676  0.75211608  0.44128388  1
  O  O430  1  0.77206033  0.74836867  0.69156110  1
  O  O431  1  0.77159209  0.74845302  0.94168562  1
  O  O432  1  0.02233217  0.08510711  0.18262037  1
  O  O433  1  0.02284256  0.08175277  0.43255086  1
  O  O434  1  0.02220913  0.08338426  0.68121138  1
  O  O435  1  0.02195604  0.08145931  0.93304847  1
  O  O436  1  0.02229457  0.41453406  0.18246079  1
  O  O437  1  0.02253300  0.41797485  0.43261282  1
  O  O438  1  0.02211034  0.41888027  0.68242138  1
  O  O439  1  0.02249606  0.41814770  0.93248650  1
  O  O440  1  0.02165849  0.74956953  0.18085571  1
  O  O441  1  0.02258390  0.74837053  0.43213382  1
  O  O442  1  0.02221094  0.74936085  0.68065643  1
  O  O443  1  0.02132134  0.74960050  0.93107464  1
  O  O444  1  0.52170674  0.08120813  0.18353999  1
  O  O445  1  0.52254475  0.08252952  0.43519718  1
  O  O446  1  0.52284156  0.08292475  0.68430984  1
  O  O447  1  0.52115834  0.08305124  0.93126724  1
  O  O448  1  0.52115695  0.41620940  0.18229275  1
  O  O449  1  0.52164551  0.41545999  0.43391221  1
  O  O450  1  0.52165385  0.41579524  0.68315426  1
  O  O451  1  0.52127753  0.41647525  0.93147633  1
  O  O452  1  0.52089572  0.75092975  0.18205793  1
  O  O453  1  0.52194992  0.74959899  0.43399992  1
  O  O454  1  0.52266696  0.75032368  0.68426184  1
  O  O455  1  0.52146078  0.75225064  0.93306841  1
  O  O456  1  0.47813850  0.24930167  0.06878888  1
  O  O457  1  0.47774710  0.24898131  0.31946087  1
  O  O458  1  0.47681029  0.25066847  0.56649099  1
  O  O459  1  0.47689229  0.25058597  0.81538135  1
  O  O460  1  0.47810308  0.58367965  0.06856861  1
  O  O461  1  0.47820956  0.58361070  0.31926404  1
  O  O462  1  0.47753460  0.58514939  0.56765813  1
  O  O463  1  0.47705889  0.58519189  0.81706569  1
  O  O464  1  0.47725772  0.91495194  0.06676553  1
  O  O465  1  0.47726811  0.91862380  0.31820161  1
  O  O466  1  0.47779817  0.91879109  0.56808455  1
  O  O467  1  0.47685205  0.91791985  0.81543914  1
  O  O468  1  0.97870394  0.24999406  0.06839224  1
  O  O469  1  0.97743178  0.25011233  0.31576761  1
  O  O470  1  0.97919392  0.25020823  0.56822565  1
  O  O471  1  0.97912856  0.25034536  0.81827793  1
  O  O472  1  0.97839943  0.58090457  0.06667421  1
  O  O473  1  0.97899935  0.58248308  0.31809261  1
  O  O474  1  0.97756706  0.58258219  0.56515948  1
  O  O475  1  0.97839335  0.58147975  0.81654554  1
  O  O476  1  0.97785743  0.91824127  0.06723444  1
  O  O477  1  0.97903783  0.91679788  0.31818547  1
  O  O478  1  0.97898807  0.91823439  0.56596574  1
  O  O479  1  0.97868062  0.91638012  0.81791633  1
  O  O480  1  0.07419398  0.31308859  0.07573492  1
  O  O481  1  0.07254768  0.31366519  0.32300936  1
  O  O482  1  0.07438961  0.31396131  0.57489143  1
  O  O483  1  0.07462846  0.31341646  0.82517168  1
  O  O484  1  0.07350832  0.64499165  0.07359443  1
  O  O485  1  0.07416356  0.64627839  0.32482562  1
  O  O486  1  0.07219324  0.64675516  0.57306589  1
  O  O487  1  0.07356583  0.64535134  0.82426305  1
  O  O488  1  0.07296204  0.98152969  0.07396710  1
  O  O489  1  0.07506606  0.97956521  0.32465399  1
  O  O490  1  0.07410099  0.98140222  0.57326815  1
  O  O491  1  0.07431088  0.97984525  0.82447555  1
  O  O492  1  0.57372351  0.31248589  0.07536735  1
  O  O493  1  0.57301566  0.31269515  0.32643931  1
  O  O494  1  0.57243004  0.31347033  0.57371830  1
  O  O495  1  0.57214102  0.31386396  0.82287284  1
  O  O496  1  0.57364655  0.64689499  0.07527521  1
  O  O497  1  0.57380298  0.64693034  0.32565266  1
  O  O498  1  0.57241906  0.64893709  0.57469338  1
  O  O499  1  0.57198728  0.64897008  0.82411094  1
  O  O500  1  0.57236620  0.97916841  0.07408404  1
  O  O501  1  0.57237091  0.98181985  0.32446143  1
  O  O502  1  0.57309751  0.98186414  0.57496215  1
  O  O503  1  0.57237750  0.98050050  0.82375320  1
  O  O504  1  0.42672518  0.01790553  0.17697758  1
  O  O505  1  0.42688721  0.01962722  0.42845640  1
  O  O506  1  0.42711383  0.02065405  0.67668192  1
  O  O507  1  0.42561404  0.02012151  0.92397981  1
  O  O508  1  0.42572040  0.35286480  0.17570893  1
  O  O509  1  0.42665228  0.35179506  0.42707220  1
  O  O510  1  0.42672082  0.35206437  0.67591118  1
  O  O511  1  0.42587258  0.35302417  0.92480798  1
  O  O512  1  0.42596955  0.68682735  0.17474821  1
  O  O513  1  0.42699860  0.68604935  0.42741337  1
  O  O514  1  0.42708710  0.68742011  0.67724887  1
  O  O515  1  0.42620028  0.68838093  0.92501071  1
  O  O516  1  0.92709293  0.02075558  0.17612239  1
  O  O517  1  0.92759228  0.01905073  0.42464688  1
  O  O518  1  0.92651284  0.01998698  0.67435541  1
  O  O519  1  0.92666858  0.01864078  0.92629733  1
  O  O520  1  0.92691215  0.35188395  0.17567742  1
  O  O521  1  0.92739721  0.35357233  0.42571902  1
  O  O522  1  0.92719032  0.35464115  0.67472832  1
  O  O523  1  0.92726537  0.35433909  0.92447495  1
  O  O524  1  0.92624125  0.68603011  0.17427743  1
  O  O525  1  0.92753869  0.68492623  0.42557334  1
  O  O526  1  0.92644139  0.68645276  0.67397306  1
  O  O527  1  0.92612330  0.68585257  0.92388201  1
  O  O528  1  0.17823273  0.01959961  0.19988601  1
  O  O529  1  0.17770440  0.02083682  0.45018833  1
  O  O530  1  0.17846286  0.01944008  0.69827133  1
  O  O531  1  0.17726422  0.01909318  0.94927899  1
  O  O532  1  0.17886430  0.35256997  0.19818243  1
  O  O533  1  0.17744476  0.35171012  0.44829020  1
  O  O534  1  0.17707918  0.35175589  0.69962272  1
  O  O535  1  0.17768703  0.35286702  0.94954776  1
  O  O536  1  0.17662847  0.68487180  0.19847245  1
  O  O537  1  0.17829173  0.68640367  0.44917629  1
  O  O538  1  0.17823702  0.68587766  0.69807491  1
  O  O539  1  0.17629834  0.68762821  0.94910256  1
  O  O540  1  0.67686910  0.01859440  0.19998580  1
  O  O541  1  0.67789217  0.02019711  0.44871091  1
  O  O542  1  0.67701617  0.02114065  0.69851569  1
  O  O543  1  0.67564252  0.01932607  0.94970635  1
  O  O544  1  0.67617200  0.35312691  0.20134286  1
  O  O545  1  0.67800311  0.35332047  0.44892646  1
  O  O546  1  0.67561113  0.35414263  0.69987461  1
  O  O547  1  0.67639413  0.35430114  0.94897867  1
  O  O548  1  0.67687970  0.68784199  0.20052382  1
  O  O549  1  0.67623481  0.68837843  0.44911819  1
  O  O550  1  0.67688186  0.68533964  0.69841485  1
  O  O551  1  0.67612437  0.68615510  0.94954066  1
  O  O552  1  0.32245090  0.31344442  0.05250174  1
  O  O553  1  0.32196197  0.31324164  0.30230005  1
  O  O554  1  0.32230180  0.31307174  0.55160093  1
  O  O555  1  0.32293410  0.31392265  0.80106319  1
  O  O556  1  0.32181132  0.64716103  0.05026142  1
  O  O557  1  0.32338703  0.64768329  0.30101710  1
  O  O558  1  0.32278483  0.64778599  0.55166880  1
  O  O559  1  0.32312838  0.64543577  0.80047781  1
  O  O560  1  0.32312606  0.98131374  0.05114097  1
  O  O561  1  0.32358303  0.97853885  0.30129152  1
  O  O562  1  0.32186084  0.98051695  0.55300187  1
  O  O563  1  0.32175726  0.98009902  0.80076302  1
  O  O564  1  0.82354269  0.31375557  0.05007538  1
  O  O565  1  0.82273974  0.31315586  0.30190458  1
  O  O566  1  0.82297564  0.31296327  0.54932695  1
  O  O567  1  0.82406302  0.31350354  0.79866860  1
  O  O568  1  0.82381829  0.64671122  0.04933463  1
  O  O569  1  0.82369645  0.64627138  0.30011128  1
  O  O570  1  0.82248457  0.64838132  0.54992178  1
  O  O571  1  0.82215711  0.64730096  0.80146058  1
  O  O572  1  0.82193471  0.97998898  0.05188154  1
  O  O573  1  0.82259334  0.98011407  0.30070333  1
  O  O574  1  0.82395990  0.98048748  0.54836810  1
  O  O575  1  0.82355347  0.98034602  0.79965359  1
  O  O576  1  0.42640949  0.14503842  0.17670150  1
  O  O577  1  0.42807355  0.14679530  0.42823768  1
  O  O578  1  0.42872826  0.14785315  0.67642886  1
  O  O579  1  0.42596649  0.14686401  0.92458671  1
  O  O580  1  0.42586015  0.47991343  0.17594525  1
  O  O581  1  0.42610958  0.47900052  0.42654296  1
  O  O582  1  0.42620613  0.47921355  0.67440567  1
  O  O583  1  0.42595411  0.47999643  0.92414417  1
  O  O584  1  0.42500211  0.81368442  0.17587789  1
  O  O585  1  0.42667665  0.81330641  0.42663431  1
  O  O586  1  0.42825916  0.81475904  0.67681750  1
  O  O587  1  0.42637254  0.81537320  0.92523813  1
  O  O588  1  0.92693259  0.14777473  0.17612389  1
  O  O589  1  0.92777231  0.14627884  0.42508122  1
  O  O590  1  0.92690432  0.14684197  0.67384254  1
  O  O591  1  0.92683290  0.14594303  0.92572755  1
  O  O592  1  0.92697575  0.47885582  0.17570462  1
  O  O593  1  0.92720586  0.48061248  0.42517830  1
  O  O594  1  0.92656261  0.48177026  0.67546414  1
  O  O595  1  0.92722743  0.48139581  0.92597890  1
  O  O596  1  0.92629014  0.81317151  0.17460409  1
  O  O597  1  0.92711906  0.81213679  0.42467817  1
  O  O598  1  0.92706330  0.81335480  0.67297654  1
  O  O599  1  0.92565621  0.81281130  0.92410595  1
  O  O600  1  0.07406882  0.18645523  0.07601125  1
  O  O601  1  0.07231168  0.18609196  0.32317531  1
  O  O602  1  0.07478711  0.18708211  0.57480269  1
  O  O603  1  0.07430497  0.18625113  0.82527054  1
  O  O604  1  0.07362946  0.51768609  0.07344153  1
  O  O605  1  0.07475947  0.51961825  0.32540113  1
  O  O606  1  0.07299624  0.51936336  0.57256354  1
  O  O607  1  0.07378280  0.51836832  0.82306948  1
  O  O608  1  0.07323213  0.85417134  0.07406740  1
  O  O609  1  0.07397951  0.85266881  0.32510958  1
  O  O610  1  0.07419909  0.85412885  0.57369122  1
  O  O611  1  0.07400260  0.85304482  0.82479403  1
  O  O612  1  0.57343948  0.18547094  0.07509955  1
  O  O613  1  0.57328029  0.18596311  0.32683400  1
  O  O614  1  0.57121381  0.18624399  0.57362712  1
  O  O615  1  0.57154933  0.18642511  0.82222937  1
  O  O616  1  0.57347385  0.51986361  0.07478504  1
  O  O617  1  0.57344019  0.51998234  0.32681932  1
  O  O618  1  0.57303230  0.52179944  0.57606883  1
  O  O619  1  0.57254182  0.52175796  0.82451739  1
  O  O620  1  0.57246807  0.85217928  0.07408171  1
  O  O621  1  0.57245517  0.85474828  0.32575427  1
  O  O622  1  0.57304292  0.85499586  0.57560301  1
  O  O623  1  0.57138998  0.85326456  0.82231510  1
  O  O624  1  0.32198562  0.18619556  0.05196762  1
  O  O625  1  0.32308009  0.18605294  0.30211013  1
  O  O626  1  0.32194056  0.18596858  0.55283148  1
  O  O627  1  0.32267512  0.18698898  0.80032236  1
  O  O628  1  0.32182019  0.51966211  0.05154805  1
  O  O629  1  0.32351433  0.52081130  0.30027748  1
  O  O630  1  0.32336595  0.52074826  0.54974685  1
  O  O631  1  0.32228065  0.51833492  0.80093704  1
  O  O632  1  0.32272187  0.85442302  0.04990628  1
  O  O633  1  0.32266125  0.85146466  0.30126438  1
  O  O634  1  0.32324246  0.85324143  0.55250774  1
  O  O635  1  0.32156991  0.85276539  0.80147583  1
  O  O636  1  0.82412900  0.18675454  0.05016998  1
  O  O637  1  0.82176556  0.18570835  0.30145287  1
  O  O638  1  0.82334073  0.18591016  0.54945313  1
  O  O639  1  0.82407743  0.18669424  0.79974992  1
  O  O640  1  0.82325486  0.51999633  0.04931302  1
  O  O641  1  0.82345547  0.51897790  0.30133122  1
  O  O642  1  0.82272948  0.52126922  0.54991653  1
  O  O643  1  0.82124289  0.51992823  0.80107446  1
  O  O644  1  0.82166943  0.85255422  0.05150461  1
  O  O645  1  0.82202587  0.85299996  0.30089509  1
  O  O646  1  0.82413508  0.85378132  0.54862395  1
  O  O647  1  0.82411655  0.85331274  0.79930170  1
  O  O648  1  0.17909940  0.14701385  0.19844965  1
  O  O649  1  0.17723024  0.14764636  0.44942962  1
  O  O650  1  0.17834168  0.14677031  0.69936727  1
  O  O651  1  0.17728749  0.14593385  0.95062045  1
  O  O652  1  0.17816063  0.47988508  0.19843369  1
  O  O653  1  0.17735935  0.47876364  0.44982647  1
  O  O654  1  0.17727630  0.47861398  0.69940433  1
  O  O655  1  0.17901493  0.48013467  0.94817130  1
  O  O656  1  0.17630409  0.81178287  0.19968892  1
  O  O657  1  0.17907524  0.81367493  0.44860803  1
  O  O658  1  0.17730724  0.81319535  0.69790106  1
  O  O659  1  0.17687369  0.81471770  0.94903575  1
  O  O660  1  0.67708376  0.14559024  0.20079300  1
  O  O661  1  0.67840230  0.14748024  0.44756700  1
  O  O662  1  0.67652551  0.14835895  0.69788471  1
  O  O663  1  0.67552333  0.14618627  0.95079667  1
  O  O664  1  0.67612829  0.47986830  0.20143737  1
  O  O665  1  0.67780832  0.48097988  0.44888436  1
  O  O666  1  0.67553830  0.48090562  0.69964341  1
  O  O667  1  0.67647075  0.48156030  0.94859842  1
  O  O668  1  0.67616176  0.81501796  0.19912643  1
  O  O669  1  0.67653233  0.81542977  0.44935210  1
  O  O670  1  0.67696352  0.81245122  0.69990710  1
  O  O671  1  0.67662519  0.81315407  0.94903857  1
