# generated using pymatgen
data_Na2MnFe(PO4)2
_symmetry_space_group_name_H-M   'P 1'
_cell_length_a   22.34535153
_cell_length_b   20.09854221
_cell_length_c   19.44875995
_cell_angle_alpha   90.04546783
_cell_angle_beta   89.94185182
_cell_angle_gamma   90.04103333
_symmetry_Int_Tables_number   1
_chemical_formula_structural   Na2MnFe(PO4)2
_chemical_formula_sum   'Na96 Mn48 Fe48 P96 O384'
_cell_volume   8734.60347700
_cell_formula_units_Z   48
loop_
 _symmetry_equiv_pos_site_id
 _symmetry_equiv_pos_as_xyz
  1  'x, y, z'
loop_
 _atom_site_type_symbol
 _atom_site_label
 _atom_site_symmetry_multiplicity
 _atom_site_fract_x
 _atom_site_fract_y
 _atom_site_fract_z
 _atom_site_occupancy
  Na  Na0  1  0.14098188  0.24832190  0.24433041  1
  Na  Na1  1  0.14149225  0.24988755  0.49350726  1
  Na  Na2  1  0.14164223  0.25040464  0.74409725  1
  Na  Na3  1  0.14105967  0.24944065  0.99342013  1
  Na  Na4  1  0.14053750  0.58322027  0.24427935  1
  Na  Na5  1  0.14088393  0.58268697  0.49316302  1
  Na  Na6  1  0.14078001  0.58297513  0.74333103  1
  Na  Na7  1  0.14124535  0.58270745  0.99363112  1
  Na  Na8  1  0.14124870  0.91520209  0.24266643  1
  Na  Na9  1  0.14132911  0.91671312  0.49382072  1
  Na  Na10  1  0.14073436  0.91724628  0.74452795  1
  Na  Na11  1  0.14038325  0.91525415  0.99355575  1
  Na  Na12  1  0.64016367  0.24882306  0.24394213  1
  Na  Na13  1  0.64025332  0.25154009  0.49468623  1
  Na  Na14  1  0.64045468  0.25110233  0.74357859  1
  Na  Na15  1  0.64011242  0.24908256  0.99232072  1
  Na  Na16  1  0.63921429  0.58358570  0.24338848  1
  Na  Na17  1  0.63986332  0.58401607  0.49346357  1
  Na  Na18  1  0.64052039  0.58278582  0.74282115  1
  Na  Na19  1  0.63985735  0.58323570  0.99385759  1
  Na  Na20  1  0.64045801  0.91642826  0.24369856  1
  Na  Na21  1  0.63985059  0.91734470  0.49496744  1
  Na  Na22  1  0.63968821  0.91769922  0.74382080  1
  Na  Na23  1  0.64006619  0.91837059  0.99279774  1
  Na  Na24  1  0.36062399  0.08221674  0.00705933  1
  Na  Na25  1  0.35986874  0.08253877  0.25671702  1
  Na  Na26  1  0.35968364  0.08335154  0.50741468  1
  Na  Na27  1  0.36018498  0.08416048  0.75727533  1
  Na  Na28  1  0.35979277  0.41806427  0.00642947  1
  Na  Na29  1  0.35961917  0.41653483  0.25864321  1
  Na  Na30  1  0.35979689  0.41696360  0.50734079  1
  Na  Na31  1  0.35964128  0.41769046  0.75707210  1
  Na  Na32  1  0.35908334  0.75002768  0.00678845  1
  Na  Na33  1  0.35906876  0.74837198  0.25643513  1
  Na  Na34  1  0.35905133  0.75008937  0.50621901  1
  Na  Na35  1  0.35920308  0.74988877  0.75656950  1
  Na  Na36  1  0.85999239  0.08260429  0.00621759  1
  Na  Na37  1  0.85984495  0.08207924  0.25493262  1
  Na  Na38  1  0.85939143  0.08402838  0.50604152  1
  Na  Na39  1  0.85937143  0.08396869  0.75768969  1
  Na  Na40  1  0.85940391  0.41609205  0.00470917  1
  Na  Na41  1  0.85948570  0.41718308  0.25619994  1
  Na  Na42  1  0.85908637  0.41784840  0.50673912  1
  Na  Na43  1  0.85951557  0.41659164  0.75498955  1
  Na  Na44  1  0.85915097  0.75155268  0.00578755  1
  Na  Na45  1  0.85896201  0.74971797  0.25487378  1
  Na  Na46  1  0.85882221  0.74959499  0.50525338  1
  Na  Na47  1  0.85896665  0.75035171  0.75564882  1
  Na  Na48  1  0.10990054  0.08227185  0.11824281  1
  Na  Na49  1  0.11025722  0.08344980  0.36906447  1
  Na  Na50  1  0.11069471  0.08346012  0.61875882  1
  Na  Na51  1  0.11065026  0.08258345  0.86965088  1
  Na  Na52  1  0.11009473  0.41596364  0.11999590  1
  Na  Na53  1  0.11038959  0.41598368  0.36868625  1
  Na  Na54  1  0.11062943  0.41734557  0.61871631  1
  Na  Na55  1  0.11073635  0.41657041  0.86817174  1
  Na  Na56  1  0.11033842  0.75002663  0.11767501  1
  Na  Na57  1  0.11030556  0.74864644  0.36800251  1
  Na  Na58  1  0.10996866  0.74819686  0.61816357  1
  Na  Na59  1  0.10995318  0.74925179  0.86923148  1
  Na  Na60  1  0.60961637  0.08363759  0.11776442  1
  Na  Na61  1  0.60941344  0.08310932  0.36974379  1
  Na  Na62  1  0.60995616  0.08493558  0.62009926  1
  Na  Na63  1  0.60954783  0.08417462  0.86783006  1
  Na  Na64  1  0.60893000  0.41647824  0.11912206  1
  Na  Na65  1  0.60938571  0.41702852  0.36936341  1
  Na  Na66  1  0.60977067  0.41659989  0.61794969  1
  Na  Na67  1  0.60942341  0.41637165  0.86778203  1
  Na  Na68  1  0.60921268  0.75030843  0.11840462  1
  Na  Na69  1  0.60915236  0.74994966  0.36819952  1
  Na  Na70  1  0.60901110  0.75080440  0.61847683  1
  Na  Na71  1  0.60937819  0.75170044  0.86838655  1
  Na  Na72  1  0.39061857  0.25033745  0.13147955  1
  Na  Na73  1  0.39036137  0.24906500  0.38268282  1
  Na  Na74  1  0.39041526  0.24964086  0.63214341  1
  Na  Na75  1  0.39082600  0.25081663  0.88171787  1
  Na  Na76  1  0.39014537  0.58341135  0.13209078  1
  Na  Na77  1  0.38975485  0.58211881  0.38246989  1
  Na  Na78  1  0.38932308  0.58289884  0.63215229  1
  Na  Na79  1  0.38979585  0.58380042  0.88185020  1
  Na  Na80  1  0.38989897  0.91745811  0.13228645  1
  Na  Na81  1  0.38995969  0.91616944  0.38133489  1
  Na  Na82  1  0.39037720  0.91874667  0.63235301  1
  Na  Na83  1  0.39009856  0.91827727  0.88165286  1
  Na  Na84  1  0.89074323  0.24994561  0.12959545  1
  Na  Na85  1  0.89071205  0.25018667  0.38103440  1
  Na  Na86  1  0.88999476  0.25082511  0.63203237  1
  Na  Na87  1  0.89020979  0.24952201  0.88118323  1
  Na  Na88  1  0.89029082  0.58315568  0.13057366  1
  Na  Na89  1  0.88963548  0.58222058  0.38108109  1
  Na  Na90  1  0.88941661  0.58283066  0.63057589  1
  Na  Na91  1  0.89031610  0.58347709  0.87957225  1
  Na  Na92  1  0.88925956  0.91699866  0.13052732  1
  Na  Na93  1  0.88999563  0.91613561  0.37988974  1
  Na  Na94  1  0.89037134  0.91654414  0.63100192  1
  Na  Na95  1  0.88998470  0.91738570  0.88290566  1
  Mn  Mn96  1  0.49999991  0.33310521  0.25014966  1
  Mn  Mn97  1  0.50030449  0.49959376  0.75016951  1
  Mn  Mn98  1  0.00063298  0.33396865  0.50004791  1
  Mn  Mn99  1  -0.00080671  0.66495368  0.49905971  1
  Mn  Mn100  1  0.74946555  -0.00055371  0.37550312  1
  Mn  Mn101  1  -0.00047403  0.66566403  0.74927927  1
  Mn  Mn102  1  0.00089348  0.66672427  -0.00010092  1
  Mn  Mn103  1  0.00012919  0.83313002  0.24929488  1
  Mn  Mn104  1  0.49911727  0.83447552  -0.00022186  1
  Mn  Mn105  1  0.74979393  0.16688899  0.37490324  1
  Mn  Mn106  1  0.75004151  0.83334409  0.62515325  1
  Mn  Mn107  1  0.25035968  0.33318776  0.12576095  1
  Mn  Mn108  1  0.00001985  0.33299593  0.24966786  1
  Mn  Mn109  1  0.75019447  0.49946195  0.87363124  1
  Mn  Mn110  1  0.49931270  0.83436297  0.49979000  1
  Mn  Mn111  1  0.00043536  0.83258047  0.49959113  1
  Mn  Mn112  1  0.50029072  0.83311975  0.25034144  1
  Mn  Mn113  1  0.25027831  -0.00056973  0.37511891  1
  Mn  Mn114  1  0.25053324  0.33366368  0.62486288  1
  Mn  Mn115  1  0.75067371  0.16550513  0.12377148  1
  Mn  Mn116  1  0.00047828  0.16651217  0.75028047  1
  Mn  Mn117  1  0.74929848  0.49966764  0.12396930  1
  Mn  Mn118  1  0.25075752  0.16620174  0.87518615  1
  Mn  Mn119  1  0.74997415  0.66750919  0.12435059  1
  Mn  Mn120  1  0.25129983  0.16531076  0.12456138  1
  Mn  Mn121  1  -0.00039733  0.66554219  0.24904230  1
  Mn  Mn122  1  0.50027798  0.66749474  0.75017228  1
  Mn  Mn123  1  0.25028216  0.83289240  0.87507488  1
  Mn  Mn124  1  0.49878204  0.66615154  0.50006672  1
  Mn  Mn125  1  -0.00014026  0.16668325  0.49997194  1
  Mn  Mn126  1  0.00026757  -0.00010888  0.75061965  1
  Mn  Mn127  1  0.00108469  0.33386945  0.75037343  1
  Mn  Mn128  1  0.00004693  -0.00027624  0.49960147  1
  Mn  Mn129  1  0.49967804  0.66645782  -0.00060352  1
  Mn  Mn130  1  0.00043313  0.49957698  -0.00033712  1
  Mn  Mn131  1  0.25009861  0.83315481  0.62524047  1
  Mn  Mn132  1  0.74951899  0.33280646  0.12463965  1
  Mn  Mn133  1  0.75039287  0.33432497  0.37482946  1
  Mn  Mn134  1  0.49987350  0.16665546  0.50112535  1
  Mn  Mn135  1  0.50036800  0.00103077  0.25017712  1
  Mn  Mn136  1  0.24966997  0.50032723  0.12597160  1
  Mn  Mn137  1  0.74899352  0.66709461  0.37457303  1
  Mn  Mn138  1  0.74994586  0.66745825  0.87443517  1
  Mn  Mn139  1  0.00014504  0.33280610  -0.00031656  1
  Mn  Mn140  1  0.00026701  0.83304408  0.75008083  1
  Mn  Mn141  1  0.00075820  0.00045869  0.24970004  1
  Mn  Mn142  1  0.50005623  0.33381151  0.00067604  1
  Mn  Mn143  1  0.75072498  0.00102421  0.62512694  1
  Fe  Fe144  1  -0.00003172  0.49930233  0.24971227  1
  Fe  Fe145  1  0.25044245  0.00040093  0.62467074  1
  Fe  Fe146  1  0.75010534  0.00019316  0.87504745  1
  Fe  Fe147  1  0.25022823  0.50019750  0.62561989  1
  Fe  Fe148  1  0.49978975  0.16676924  0.25050958  1
  Fe  Fe149  1  0.24999092  0.16594638  0.37537289  1
  Fe  Fe150  1  -0.00062602  0.83343100  -0.00046553  1
  Fe  Fe151  1  0.74917576  0.83401701  0.87501122  1
  Fe  Fe152  1  0.50000801  0.50024450  0.00039274  1
  Fe  Fe153  1  0.50035165  0.16720407  -0.00025008  1
  Fe  Fe154  1  0.49914823  0.83493388  0.74982213  1
  Fe  Fe155  1  0.74945581  0.83342027  0.37483392  1
  Fe  Fe156  1  0.74950348  0.33317090  0.87382902  1
  Fe  Fe157  1  0.24986874  0.83224406  0.12475196  1
  Fe  Fe158  1  0.25006447  0.83241810  0.37430962  1
  Fe  Fe159  1  -0.00001920  0.16648186  0.24949456  1
  Fe  Fe160  1  0.75024366  0.16689654  0.87462087  1
  Fe  Fe161  1  0.74945658  0.50038894  0.62455716  1
  Fe  Fe162  1  0.00111983  0.16644203  0.00023984  1
  Fe  Fe163  1  0.49910568  0.49973074  0.25049864  1
  Fe  Fe164  1  0.49981901  0.00130850  0.75089322  1
  Fe  Fe165  1  0.74917205  -0.00031244  0.12435518  1
  Fe  Fe166  1  0.25010954  0.50001849  0.37580725  1
  Fe  Fe167  1  0.74912862  0.50080390  0.37520369  1
  Fe  Fe168  1  0.49934677  0.33365494  0.75024971  1
  Fe  Fe169  1  0.25089365  0.33274778  0.37611823  1
  Fe  Fe170  1  0.25076504  0.16671757  0.62523409  1
  Fe  Fe171  1  0.00019045  0.49989692  0.74950191  1
  Fe  Fe172  1  0.25032082  0.66630210  0.12551955  1
  Fe  Fe173  1  0.49993781  0.00066140  0.50104299  1
  Fe  Fe174  1  0.00028299  0.00015984  0.00026433  1
  Fe  Fe175  1  0.74868582  0.66715915  0.62462412  1
  Fe  Fe176  1  0.50022576  0.16736204  0.75031839  1
  Fe  Fe177  1  0.25052052  0.50036681  0.87524265  1
  Fe  Fe178  1  0.75014993  0.33375386  0.62477775  1
  Fe  Fe179  1  -0.00003727  0.49942737  0.49961868  1
  Fe  Fe180  1  0.24994773  0.66641604  0.62504230  1
  Fe  Fe181  1  0.74914159  0.83389819  0.12474154  1
  Fe  Fe182  1  0.49975747  0.49960457  0.50028629  1
  Fe  Fe183  1  0.49947964  0.66583447  0.24975906  1
  Fe  Fe184  1  0.49994285  0.00090125  -0.00009501  1
  Fe  Fe185  1  0.25051291  -0.00033843  0.87516790  1
  Fe  Fe186  1  0.24984875  0.66648652  0.37533923  1
  Fe  Fe187  1  0.25074647  0.33372072  0.87470412  1
  Fe  Fe188  1  0.24988177  0.66627541  0.87535281  1
  Fe  Fe189  1  0.49986928  0.33303796  0.50035630  1
  Fe  Fe190  1  0.75006177  0.16765234  0.62595075  1
  Fe  Fe191  1  0.25006889  -0.00140727  0.12574198  1
  P  P192  1  0.04299852  0.24861262  0.10270882  1
  P  P193  1  0.04245362  0.24875157  0.35211316  1
  P  P194  1  0.04346286  0.25040779  0.60309661  1
  P  P195  1  0.04371676  0.24940428  0.85372346  1
  P  P196  1  0.04338103  0.58254663  0.10333336  1
  P  P197  1  0.04189701  0.58093100  0.35236290  1
  P  P198  1  0.04220439  0.58125229  0.60207757  1
  P  P199  1  0.04279445  0.58202746  0.85186676  1
  P  P200  1  0.04128753  0.91639365  0.10112060  1
  P  P201  1  0.04353411  0.91640189  0.35254209  1
  P  P202  1  0.04349874  0.91631057  0.60306924  1
  P  P203  1  0.04264932  0.91643322  0.85447522  1
  P  P204  1  0.54233757  0.24888489  0.10261975  1
  P  P205  1  0.54197513  0.24895131  0.35311534  1
  P  P206  1  0.54176805  0.25166486  0.60360672  1
  P  P207  1  0.54116479  0.25055000  0.85188748  1
  P  P208  1  0.54164450  0.58236432  0.10323393  1
  P  P209  1  0.54054355  0.58257285  0.35195596  1
  P  P210  1  0.54158227  0.58212204  0.60231454  1
  P  P211  1  0.54291751  0.58341897  0.85336905  1
  P  P212  1  0.54170894  0.91846313  0.10210425  1
  P  P213  1  0.54265256  0.91728653  0.35368857  1
  P  P214  1  0.54145372  0.91873919  0.60378092  1
  P  P215  1  0.54086464  0.91816120  0.85194609  1
  P  P216  1  0.45800273  0.08535070  0.14708411  1
  P  P217  1  0.45759138  0.08233347  0.39828011  1
  P  P218  1  0.45877970  0.08375896  0.64905835  1
  P  P219  1  0.45896111  0.08417343  0.89795430  1
  P  P220  1  0.45721433  0.41792201  0.14798714  1
  P  P221  1  0.45861633  0.41632562  0.39872542  1
  P  P222  1  0.45784710  0.41525962  0.64714152  1
  P  P223  1  0.45796486  0.41781641  0.89780702  1
  P  P224  1  0.45781093  0.74889665  0.14774809  1
  P  P225  1  0.45709474  0.74929409  0.39641071  1
  P  P226  1  0.45747324  0.75179470  0.64780139  1
  P  P227  1  0.45691772  0.75120523  0.89627702  1
  P  P228  1  0.95838225  0.08443571  0.14633971  1
  P  P229  1  0.95700489  0.08352498  0.39612127  1
  P  P230  1  0.95701785  0.08315648  0.64722564  1
  P  P231  1  0.95902322  0.08357641  0.89889039  1
  P  P232  1  0.95732524  0.41726862  0.14729674  1
  P  P233  1  0.95770853  0.41758606  0.39706506  1
  P  P234  1  0.95824502  0.41806650  0.64704026  1
  P  P235  1  0.95747838  0.41667742  0.89593942  1
  P  P236  1  0.95730062  0.75019842  0.14566329  1
  P  P237  1  0.95695475  0.74905348  0.39610466  1
  P  P238  1  0.95694923  0.74935902  0.64644501  1
  P  P239  1  0.95757539  0.75063801  0.89741533  1
  P  P240  1  0.20830279  0.08164852  0.22770119  1
  P  P241  1  0.20839518  0.08421281  0.47829347  1
  P  P242  1  0.20941250  0.08345556  0.72693782  1
  P  P243  1  0.20892877  0.08097561  0.97806876  1
  P  P244  1  0.20798597  0.41637848  0.22987061  1
  P  P245  1  0.20921945  0.41685109  0.47724186  1
  P  P246  1  0.20877831  0.41801402  0.72821854  1
  P  P247  1  0.20912656  0.41657933  0.97659947  1
  P  P248  1  0.20868033  0.74915569  0.22713835  1
  P  P249  1  0.20863298  0.74986110  0.47674306  1
  P  P250  1  0.20807282  0.74828093  0.72776592  1
  P  P251  1  0.20817043  0.74836852  0.97813608  1
  P  P252  1  0.70754382  0.08173404  0.22692614  1
  P  P253  1  0.70711504  0.08431834  0.47905420  1
  P  P254  1  0.70858824  0.08520179  0.72865848  1
  P  P255  1  0.70866585  0.08332732  0.97615099  1
  P  P256  1  0.70668469  0.41690795  0.22830997  1
  P  P257  1  0.70792104  0.41870180  0.47816393  1
  P  P258  1  0.70851630  0.41645676  0.72615973  1
  P  P259  1  0.70723549  0.41526777  0.97628646  1
  P  P260  1  0.70714912  0.75156946  0.22726704  1
  P  P261  1  0.70682958  0.75134577  0.47755911  1
  P  P262  1  0.70688207  0.74954430  0.72761872  1
  P  P263  1  0.70728964  0.75224651  0.97753059  1
  P  P264  1  0.29307594  0.25030741  0.02156667  1
  P  P265  1  0.29173752  0.24907703  0.27415679  1
  P  P266  1  0.29249068  0.24868023  0.52219838  1
  P  P267  1  0.29275477  0.25117409  0.77247349  1
  P  P268  1  0.29215925  0.58441755  0.02259625  1
  P  P269  1  0.29120262  0.58329819  0.27406339  1
  P  P270  1  0.29100562  0.58329590  0.52320014  1
  P  P271  1  0.29143296  0.58372640  0.77314889  1
  P  P272  1  0.29140588  0.91614939  0.02351531  1
  P  P273  1  0.29215665  0.91455687  0.27182953  1
  P  P274  1  0.29244647  0.91748813  0.52259798  1
  P  P275  1  0.29216112  0.91806199  0.77234494  1
  P  P276  1  0.79244718  0.24965803  0.02019054  1
  P  P277  1  0.79300431  0.24980529  0.27159810  1
  P  P278  1  0.79153153  0.25047002  0.52364244  1
  P  P279  1  0.79153039  0.25019367  0.77246874  1
  P  P280  1  0.79268383  0.58369253  0.02109034  1
  P  P281  1  0.79153163  0.58246733  0.27236836  1
  P  P282  1  0.79048367  0.58396310  0.52287351  1
  P  P283  1  0.79222332  0.58358561  0.77019331  1
  P  P284  1  0.79061269  0.91700744  0.02236648  1
  P  P285  1  0.79169831  0.91511291  0.27168473  1
  P  P286  1  0.79271965  0.91649154  0.52164805  1
  P  P287  1  0.79148424  0.91678354  0.77369743  1
  O  O288  1  0.03748353  0.24862753  0.18264092  1
  O  O289  1  0.03736177  0.24943278  0.43208234  1
  O  O290  1  0.03874252  0.25061188  0.68311126  1
  O  O291  1  0.03857979  0.24896512  0.93370724  1
  O  O292  1  0.03792869  0.58210311  0.18328900  1
  O  O293  1  0.03659979  0.58086494  0.43233879  1
  O  O294  1  0.03733308  0.58145037  0.68206128  1
  O  O295  1  0.03801405  0.58258313  0.93184571  1
  O  O296  1  0.03713848  0.91671698  0.18114743  1
  O  O297  1  0.03861850  0.91626497  0.43252450  1
  O  O298  1  0.03845722  0.91645474  0.68313055  1
  O  O299  1  0.03713579  0.91630775  0.93440674  1
  O  O300  1  0.53716038  0.24875940  0.18256656  1
  O  O301  1  0.53664692  0.24964278  0.43304900  1
  O  O302  1  0.53646759  0.25186949  0.68346404  1
  O  O303  1  0.53639893  0.25010293  0.93186278  1
  O  O304  1  0.53591992  0.58286643  0.18313256  1
  O  O305  1  0.53543001  0.58222781  0.43193052  1
  O  O306  1  0.53699312  0.58253158  0.68228996  1
  O  O307  1  0.53779943  0.58293659  0.93334457  1
  O  O308  1  0.53700825  0.91820574  0.18206717  1
  O  O309  1  0.53736180  0.91774082  0.43364295  1
  O  O310  1  0.53568238  0.91829789  0.68367303  1
  O  O311  1  0.53608739  0.91831287  0.93193657  1
  O  O312  1  0.46331227  0.08520122  0.06718492  1
  O  O313  1  0.46270127  0.08311943  0.31835775  1
  O  O314  1  0.46344712  0.08336178  0.56911858  1
  O  O315  1  0.46420276  0.08377306  0.81806856  1
  O  O316  1  0.46246749  0.41796724  0.06805423  1
  O  O317  1  0.46337579  0.41668374  0.31872250  1
  O  O318  1  0.46318069  0.41536691  0.56724450  1
  O  O319  1  0.46317571  0.41689689  0.81787265  1
  O  O320  1  0.46269247  0.74911493  0.06774292  1
  O  O321  1  0.46270748  0.74849118  0.31649942  1
  O  O322  1  0.46235839  0.75153303  0.56777764  1
  O  O323  1  0.46227515  0.75186565  0.81634757  1
  O  O324  1  0.96421504  0.08416396  0.06646558  1
  O  O325  1  0.96223159  0.08410651  0.31613572  1
  O  O326  1  0.96170071  0.08304425  0.56721123  1
  O  O327  1  0.96325765  0.08312699  0.81885346  1
  O  O328  1  0.96247835  0.41676252  0.06732534  1
  O  O329  1  0.96261936  0.41743848  0.31708648  1
  O  O330  1  0.96324731  0.41810186  0.56703104  1
  O  O331  1  0.96281193  0.41709711  0.81597258  1
  O  O332  1  0.96268797  0.75071745  0.06571015  1
  O  O333  1  0.96193691  0.74890794  0.31609859  1
  O  O334  1  0.96200878  0.74922816  0.56646067  1
  O  O335  1  0.96252255  0.75028185  0.81740847  1
  O  O336  1  0.21425462  0.08078443  0.05795452  1
  O  O337  1  0.21335131  0.08226663  0.30765021  1
  O  O338  1  0.21398010  0.08424871  0.55815939  1
  O  O339  1  0.21443608  0.08279903  0.80691751  1
  O  O340  1  0.21377392  0.41684112  0.05663324  1
  O  O341  1  0.21353060  0.41633982  0.30971511  1
  O  O342  1  0.21399830  0.41699542  0.55721635  1
  O  O343  1  0.21412398  0.41761903  0.80806610  1
  O  O344  1  0.21350676  0.74852495  0.05799015  1
  O  O345  1  0.21350001  0.74987584  0.30704447  1
  O  O346  1  0.21345771  0.74934716  0.55669311  1
  O  O347  1  0.21343593  0.74812302  0.80767185  1
  O  O348  1  0.71318400  0.08250468  0.05613534  1
  O  O349  1  0.71233672  0.08210634  0.30690067  1
  O  O350  1  0.71271039  0.08518902  0.55898915  1
  O  O351  1  0.71408368  0.08499360  0.80854320  1
  O  O352  1  0.71214792  0.41548244  0.05627182  1
  O  O353  1  0.71187482  0.41754882  0.30829220  1
  O  O354  1  0.71342274  0.41872959  0.55802345  1
  O  O355  1  0.71338692  0.41570765  0.80609574  1
  O  O356  1  0.71266438  0.75250638  0.05748797  1
  O  O357  1  0.71221717  0.75157258  0.30723471  1
  O  O358  1  0.71220347  0.75034686  0.55749657  1
  O  O359  1  0.71205805  0.75016472  0.80755005  1
  O  O360  1  0.28718135  0.24953841  0.19413570  1
  O  O361  1  0.28691338  0.24841075  0.44235871  1
  O  O362  1  0.28731377  0.25069361  0.69255801  1
  O  O363  1  0.28775325  0.25076682  0.94163949  1
  O  O364  1  0.28642661  0.58390764  0.19413341  1
  O  O365  1  0.28577889  0.58264072  0.44336610  1
  O  O366  1  0.28662834  0.58354053  0.69323559  1
  O  O367  1  0.28683670  0.58411256  0.94274649  1
  O  O368  1  0.28646288  0.91491370  0.19197689  1
  O  O369  1  0.28752565  0.91702234  0.44269577  1
  O  O370  1  0.28678714  0.91829095  0.69246441  1
  O  O371  1  0.28694212  0.91618132  0.94350814  1
  O  O372  1  0.78797459  0.24964640  0.19162315  1
  O  O373  1  0.78682177  0.25075611  0.44365141  1
  O  O374  1  0.78627547  0.24985710  0.69255241  1
  O  O375  1  0.78704184  0.24989262  0.94027808  1
  O  O376  1  0.78671829  0.58272745  0.19240353  1
  O  O377  1  0.78512418  0.58364085  0.44289342  1
  O  O378  1  0.78637755  0.58370333  0.69031691  1
  O  O379  1  0.78765748  0.58381292  0.94111536  1
  O  O380  1  0.78602096  0.91541100  0.19179607  1
  O  O381  1  0.78728565  0.91595236  0.44175577  1
  O  O382  1  0.78716522  0.91717209  0.69369705  1
  O  O383  1  0.78570534  0.91698357  0.94244495  1
  O  O384  1  0.22886094  0.24953301  0.05723141  1
  O  O385  1  0.22752084  0.24902500  0.30986763  1
  O  O386  1  0.22849286  0.24830936  0.55871752  1
  O  O387  1  0.22864650  0.25127655  0.80862125  1
  O  O388  1  0.22801961  0.58490338  0.05887834  1
  O  O389  1  0.22704814  0.58224906  0.31000749  1
  O  O390  1  0.22705754  0.58376573  0.55984838  1
  O  O391  1  0.22738148  0.58387487  0.80945235  1
  O  O392  1  0.22716766  0.91641543  0.05925542  1
  O  O393  1  0.22812849  0.91459977  0.30829754  1
  O  O394  1  0.22820695  0.91754721  0.55837942  1
  O  O395  1  0.22805827  0.91786830  0.80854456  1
  O  O396  1  0.72821960  0.24922093  0.05599305  1
  O  O397  1  0.72852483  0.25042044  0.30664313  1
  O  O398  1  0.72730131  0.25036682  0.55937899  1
  O  O399  1  0.72744996  0.24991858  0.80894382  1
  O  O400  1  0.72820452  0.58385659  0.05609560  1
  O  O401  1  0.72710978  0.58244040  0.30776598  1
  O  O402  1  0.72644183  0.58396132  0.55928945  1
  O  O403  1  0.72812866  0.58357295  0.80630447  1
  O  O404  1  0.72652893  0.91739904  0.05871011  1
  O  O405  1  0.72760225  0.91487192  0.30818530  1
  O  O406  1  0.72848957  0.91711075  0.55729998  1
  O  O407  1  0.72705571  0.91640399  0.80897139  1
  O  O408  1  0.27264473  0.08084139  0.19206874  1
  O  O409  1  0.27246215  0.08430424  0.44190650  1
  O  O410  1  0.27353201  0.08391734  0.69078902  1
  O  O411  1  0.27312666  0.08132023  0.94208537  1
  O  O412  1  0.27215581  0.41679995  0.19390038  1
  O  O413  1  0.27336998  0.41748979  0.44128092  1
  O  O414  1  0.27284389  0.41803106  0.69193391  1
  O  O415  1  0.27331773  0.41629197  0.94079939  1
  O  O416  1  0.27276803  0.74869948  0.19089542  1
  O  O417  1  0.27278422  0.75053008  0.44075182  1
  O  O418  1  0.27225148  0.74826943  0.69171319  1
  O  O419  1  0.27224478  0.74812526  0.94179176  1
  O  O420  1  0.77191198  0.08108782  0.19140173  1
  O  O421  1  0.77131554  0.08370131  0.44329138  1
  O  O422  1  0.77265271  0.08553260  0.69233083  1
  O  O423  1  0.77295114  0.08401899  0.94056927  1
  O  O424  1  0.77105729  0.41658609  0.19295236  1
  O  O425  1  0.77199168  0.41921821  0.44174314  1
  O  O426  1  0.77261029  0.41736772  0.69011196  1
  O  O427  1  0.77162617  0.41476974  0.94084857  1
  O  O428  1  0.77142977  0.75168929  0.19154559  1
  O  O429  1  0.77101140  0.75162111  0.44148974  1
  O  O430  1  0.77118034  0.74852240  0.69190521  1
  O  O431  1  0.77151191  0.75245939  0.94159474  1
  O  O432  1  0.02243871  0.08506205  0.18274186  1
  O  O433  1  0.02145070  0.08338036  0.43119486  1
  O  O434  1  0.02170509  0.08307467  0.68160272  1
  O  O435  1  0.02336540  0.08361860  0.93407218  1
  O  O436  1  0.02168743  0.41757231  0.18271724  1
  O  O437  1  0.02216071  0.41779718  0.43229782  1
  O  O438  1  0.02258145  0.41839107  0.68253827  1
  O  O439  1  0.02187869  0.41620142  0.93104751  1
  O  O440  1  0.02163871  0.74950979  0.18091305  1
  O  O441  1  0.02145051  0.74854744  0.43087978  1
  O  O442  1  0.02142331  0.74927716  0.68133753  1
  O  O443  1  0.02199076  0.75133940  0.93256497  1
  O  O444  1  0.52219302  0.08571695  0.18307841  1
  O  O445  1  0.52185533  0.08200397  0.43401250  1
  O  O446  1  0.52294791  0.08352939  0.68482719  1
  O  O447  1  0.52298021  0.08420842  0.93431112  1
  O  O448  1  0.52148433  0.41799502  0.18361801  1
  O  O449  1  0.52273727  0.41655172  0.43460460  1
  O  O450  1  0.52204169  0.41493507  0.68307690  1
  O  O451  1  0.52216134  0.41841964  0.93363019  1
  O  O452  1  0.52209667  0.74850287  0.18311974  1
  O  O453  1  0.52121781  0.74973204  0.43213377  1
  O  O454  1  0.52179102  0.75207972  0.68306614  1
  O  O455  1  0.52117420  0.75097732  0.93169079  1
  O  O456  1  0.47807729  0.24890026  0.06698508  1
  O  O457  1  0.47776231  0.24870310  0.31725029  1
  O  O458  1  0.47768413  0.25149417  0.56744554  1
  O  O459  1  0.47702288  0.25092309  0.81607010  1
  O  O460  1  0.47757807  0.58191445  0.06688893  1
  O  O461  1  0.47638622  0.58277665  0.31601000  1
  O  O462  1  0.47712173  0.58164349  0.56732402  1
  O  O463  1  0.47854080  0.58353884  0.81828696  1
  O  O464  1  0.47728251  0.91896058  0.06699411  1
  O  O465  1  0.47841926  0.91711174  0.31824810  1
  O  O466  1  0.47743419  0.91913265  0.56735077  1
  O  O467  1  0.47669428  0.91847682  0.81618145  1
  O  O468  1  0.97878532  0.24829897  0.06684747  1
  O  O469  1  0.97815630  0.24830024  0.31656925  1
  O  O470  1  0.97886911  0.25063025  0.56859660  1
  O  O471  1  0.97930010  0.24995999  0.81865203  1
  O  O472  1  0.97904881  0.58298637  0.06813444  1
  O  O473  1  0.97766248  0.58088482  0.31658785  1
  O  O474  1  0.97774046  0.58103319  0.56690495  1
  O  O475  1  0.97830670  0.58143526  0.81677712  1
  O  O476  1  0.97693832  0.91622920  0.06597597  1
  O  O477  1  0.97900653  0.91674597  0.31784650  1
  O  O478  1  0.97897190  0.91614256  0.56828617  1
  O  O479  1  0.97837107  0.91642330  0.81892649  1
  O  O480  1  0.07375359  0.31261996  0.07508408  1
  O  O481  1  0.07329052  0.31252387  0.32426951  1
  O  O482  1  0.07459890  0.31378236  0.57468658  1
  O  O483  1  0.07492981  0.31287453  0.82569617  1
  O  O484  1  0.07453660  0.64607392  0.07530887  1
  O  O485  1  0.07284350  0.64483507  0.32483622  1
  O  O486  1  0.07299152  0.64503503  0.57391860  1
  O  O487  1  0.07336174  0.64585266  0.82377154  1
  O  O488  1  0.07170347  0.98034222  0.07279757  1
  O  O489  1  0.07468342  0.97981554  0.32438975  1
  O  O490  1  0.07433886  0.97984347  0.57483503  1
  O  O491  1  0.07384318  0.97992169  0.82618405  1
  O  O492  1  0.57318986  0.31284943  0.07501019  1
  O  O493  1  0.57330420  0.31230008  0.32491842  1
  O  O494  1  0.57262343  0.31484804  0.57420412  1
  O  O495  1  0.57216432  0.31415993  0.82382134  1
  O  O496  1  0.57288186  0.64586626  0.07502858  1
  O  O497  1  0.57140278  0.64637202  0.32387367  1
  O  O498  1  0.57224835  0.64593049  0.57432657  1
  O  O499  1  0.57382340  0.64712749  0.82540423  1
  O  O500  1  0.57259114  0.98185852  0.07343329  1
  O  O501  1  0.57407415  0.98038050  0.32517504  1
  O  O502  1  0.57262084  0.98222857  0.57561029  1
  O  O503  1  0.57233418  0.98143597  0.82372966  1
  O  O504  1  0.42697446  0.02166764  0.17516562  1
  O  O505  1  0.42684482  0.01868057  0.42651380  1
  O  O506  1  0.42719116  0.02080967  0.67769953  1
  O  O507  1  0.42811978  0.02059961  0.92680941  1
  O  O508  1  0.42639917  0.35400170  0.17579327  1
  O  O509  1  0.42813981  0.35228991  0.42661283  1
  O  O510  1  0.42667171  0.35211117  0.67615015  1
  O  O511  1  0.42695314  0.35437968  0.92620332  1
  O  O512  1  0.42685235  0.68545162  0.17618641  1
  O  O513  1  0.42579882  0.68613095  0.42506864  1
  O  O514  1  0.42659772  0.68792932  0.67536674  1
  O  O515  1  0.42588456  0.68757785  0.92414238  1
  O  O516  1  0.92750698  0.02056900  0.17420397  1
  O  O517  1  0.92611628  0.01976934  0.42396249  1
  O  O518  1  0.92599002  0.01980967  0.67574059  1
  O  O519  1  0.92844501  0.01981145  0.92748799  1
  O  O520  1  0.92644404  0.35353086  0.17513921  1
  O  O521  1  0.92694383  0.35375132  0.42510879  1
  O  O522  1  0.92756579  0.35414538  0.67489383  1
  O  O523  1  0.92637677  0.35314115  0.92401891  1
  O  O524  1  0.92594083  0.68667704  0.17342331  1
  O  O525  1  0.92555107  0.68572544  0.42420986  1
  O  O526  1  0.92595261  0.68582322  0.67451522  1
  O  O527  1  0.92693767  0.68676599  0.92522534  1
  O  O528  1  0.17721561  0.01810903  0.19954091  1
  O  O529  1  0.17714567  0.02061524  0.45038275  1
  O  O530  1  0.17862220  0.01990730  0.69820121  1
  O  O531  1  0.17808325  0.01764670  0.94923589  1
  O  O532  1  0.17700388  0.35285620  0.20132327  1
  O  O533  1  0.17934087  0.35243079  0.44912914  1
  O  O534  1  0.17732106  0.35465748  0.69997053  1
  O  O535  1  0.17813438  0.35293543  0.94862428  1
  O  O536  1  0.17742907  0.68557291  0.19926030  1
  O  O537  1  0.17818075  0.68599595  0.44806136  1
  O  O538  1  0.17701941  0.68513993  0.69877382  1
  O  O539  1  0.17691079  0.68517765  0.94938901  1
  O  O540  1  0.67652976  0.01833500  0.19848994  1
  O  O541  1  0.67590502  0.02063186  0.45156140  1
  O  O542  1  0.67755523  0.02147336  0.70071313  1
  O  O543  1  0.67831567  0.01960405  0.94706228  1
  O  O544  1  0.67564543  0.35317168  0.20050052  1
  O  O545  1  0.67712256  0.35474578  0.45042804  1
  O  O546  1  0.67818492  0.35264848  0.69734653  1
  O  O547  1  0.67625607  0.35186151  0.94780324  1
  O  O548  1  0.67633939  0.68763302  0.19951895  1
  O  O549  1  0.67548476  0.68798749  0.44921407  1
  O  O550  1  0.67563399  0.68623588  0.69915655  1
  O  O551  1  0.67643644  0.68829908  0.95006713  1
  O  O552  1  0.32402778  0.31363305  0.05031315  1
  O  O553  1  0.32231689  0.31284392  0.30284103  1
  O  O554  1  0.32338270  0.31264961  0.54971502  1
  O  O555  1  0.32345066  0.31487756  0.80070432  1
  O  O556  1  0.32345265  0.64760356  0.05130384  1
  O  O557  1  0.32125417  0.64722356  0.30299966  1
  O  O558  1  0.32238043  0.64687069  0.55105527  1
  O  O559  1  0.32265961  0.64713333  0.80157311  1
  O  O560  1  0.32273107  0.97940093  0.05199999  1
  O  O561  1  0.32368978  0.97794870  0.29987183  1
  O  O562  1  0.32296818  0.98127211  0.55107098  1
  O  O563  1  0.32311583  0.98134204  0.80123616  1
  O  O564  1  0.82354812  0.31300880  0.04881722  1
  O  O565  1  0.82429307  0.31314719  0.29981229  1
  O  O566  1  0.82212152  0.31440687  0.55185307  1
  O  O567  1  0.82206564  0.31426897  0.80032482  1
  O  O568  1  0.82372681  0.64715011  0.04934040  1
  O  O569  1  0.82257825  0.64615775  0.30020014  1
  O  O570  1  0.82111738  0.64796555  0.55062480  1
  O  O571  1  0.82363939  0.64681486  0.79866035  1
  O  O572  1  0.82171086  0.98054974  0.05084807  1
  O  O573  1  0.82282804  0.97878472  0.29966580  1
  O  O574  1  0.82405985  0.98001178  0.54951086  1
  O  O575  1  0.82180992  0.98068290  0.80238106  1
  O  O576  1  0.42703337  0.14856822  0.17626820  1
  O  O577  1  0.42660373  0.14574473  0.42683809  1
  O  O578  1  0.42877223  0.14802628  0.67728089  1
  O  O579  1  0.42793762  0.14782727  0.92597304  1
  O  O580  1  0.42612753  0.48101785  0.17697464  1
  O  O581  1  0.42747509  0.47965486  0.42743676  1
  O  O582  1  0.42687003  0.47896960  0.67524257  1
  O  O583  1  0.42715447  0.48151044  0.92581231  1
  O  O584  1  0.42710462  0.81279155  0.17540726  1
  O  O585  1  0.42592093  0.81293344  0.42403988  1
  O  O586  1  0.42669986  0.81534668  0.67621077  1
  O  O587  1  0.42571556  0.81442878  0.92497159  1
  O  O588  1  0.92701603  0.14761677  0.17484814  1
  O  O589  1  0.92581199  0.14667893  0.42495447  1
  O  O590  1  0.92638640  0.14678528  0.67563730  1
  O  O591  1  0.92830432  0.14730624  0.92682422  1
  O  O592  1  0.92656321  0.48081332  0.17556611  1
  O  O593  1  0.92676392  0.48075808  0.42613058  1
  O  O594  1  0.92713201  0.48124918  0.67576332  1
  O  O595  1  0.92631152  0.47995375  0.92434251  1
  O  O596  1  0.92634014  0.81355474  0.17420279  1
  O  O597  1  0.92639563  0.81272850  0.42432229  1
  O  O598  1  0.92599422  0.81281708  0.67471296  1
  O  O599  1  0.92655083  0.81405376  0.92581951  1
  O  O600  1  0.07427940  0.18549263  0.07402805  1
  O  O601  1  0.07333334  0.18525698  0.32395401  1
  O  O602  1  0.07418143  0.18683805  0.57482003  1
  O  O603  1  0.07468253  0.18603066  0.82514861  1
  O  O604  1  0.07456291  0.51924341  0.07489622  1
  O  O605  1  0.07288967  0.51768076  0.32366558  1
  O  O606  1  0.07314574  0.51804878  0.57312848  1
  O  O607  1  0.07358645  0.51856000  0.82344979  1
  O  O608  1  0.07214785  0.85278260  0.07295031  1
  O  O609  1  0.07422500  0.85283655  0.32406153  1
  O  O610  1  0.07447164  0.85272583  0.57506249  1
  O  O611  1  0.07399291  0.85322427  0.82586881  1
  O  O612  1  0.57337918  0.18587507  0.07334450  1
  O  O613  1  0.57251554  0.18516716  0.32485760  1
  O  O614  1  0.57298417  0.18798391  0.57590139  1
  O  O615  1  0.57165094  0.18680944  0.82316018  1
  O  O616  1  0.57264658  0.51888299  0.07473241  1
  O  O617  1  0.57144921  0.51906869  0.32347423  1
  O  O618  1  0.57238137  0.51864737  0.57383785  1
  O  O619  1  0.57419929  0.52027987  0.82469561  1
  O  O620  1  0.57231809  0.85462484  0.07416619  1
  O  O621  1  0.57348873  0.85355427  0.32562173  1
  O  O622  1  0.57252026  0.85517134  0.57551765  1
  O  O623  1  0.57102843  0.85415199  0.82343990  1
  O  O624  1  0.32436622  0.18675409  0.04923368  1
  O  O625  1  0.32258480  0.18532376  0.30176439  1
  O  O626  1  0.32381210  0.18570966  0.55125535  1
  O  O627  1  0.32399856  0.18773511  0.80032441  1
  O  O628  1  0.32285406  0.52068998  0.05087864  1
  O  O629  1  0.32276766  0.52003716  0.30198240  1
  O  O630  1  0.32157627  0.51969433  0.55220744  1
  O  O631  1  0.32200489  0.52000681  0.80198173  1
  O  O632  1  0.32151369  0.85204826  0.05186228  1
  O  O633  1  0.32290566  0.85102485  0.30029162  1
  O  O634  1  0.32365970  0.85415513  0.55082473  1
  O  O635  1  0.32311091  0.85422114  0.79978329  1
  O  O636  1  0.82379091  0.18631038  0.04836520  1
  O  O637  1  0.82350113  0.18613021  0.29978750  1
  O  O638  1  0.82244548  0.18695699  0.55172957  1
  O  O639  1  0.82289072  0.18704663  0.80112695  1
  O  O640  1  0.82346097  0.52003820  0.04896809  1
  O  O641  1  0.82208303  0.51900171  0.30102414  1
  O  O642  1  0.82168508  0.52058045  0.55098614  1
  O  O643  1  0.82343146  0.52010771  0.79819990  1
  O  O644  1  0.82124335  0.85338756  0.05093213  1
  O  O645  1  0.82271871  0.85176889  0.30020705  1
  O  O646  1  0.82373123  0.85320002  0.55017381  1
  O  O647  1  0.82234002  0.85319934  0.80168213  1
  O  O648  1  0.17769013  0.14523979  0.19928661  1
  O  O649  1  0.17738331  0.14747921  0.44945576  1
  O  O650  1  0.17850644  0.14732041  0.69942146  1
  O  O651  1  0.17783044  0.14468509  0.95046998  1
  O  O652  1  0.17655972  0.47951303  0.20135875  1
  O  O653  1  0.17754821  0.47983629  0.44899559  1
  O  O654  1  0.17808842  0.48153187  0.69950224  1
  O  O655  1  0.17874904  0.48047179  0.94834298  1
  O  O656  1  0.17827154  0.81274469  0.19778870  1
  O  O657  1  0.17755383  0.81332142  0.44860845  1
  O  O658  1  0.17722659  0.81219215  0.70033203  1
  O  O659  1  0.17730909  0.81207001  0.95004092  1
  O  O660  1  0.67705157  0.14553272  0.19884203  1
  O  O661  1  0.67599556  0.14750234  0.45036001  1
  O  O662  1  0.67739726  0.14848175  0.70017077  1
  O  O663  1  0.67745460  0.14678577  0.94822959  1
  O  O664  1  0.67560323  0.48005047  0.19951759  1
  O  O665  1  0.67661639  0.48180132  0.44940006  1
  O  O666  1  0.67709065  0.47994038  0.69856009  1
  O  O667  1  0.67663040  0.47912386  0.94853849  1
  O  O668  1  0.67609615  0.81469183  0.19844626  1
  O  O669  1  0.67617208  0.81505349  0.44963678  1
  O  O670  1  0.67631041  0.81334606  0.69956859  1
  O  O671  1  0.67615609  0.81541725  0.94878242  1
