# generated using pymatgen
data_Na2MnFe(PO4)2
_symmetry_space_group_name_H-M   'P 1'
_cell_length_a   22.34543601
_cell_length_b   20.09804787
_cell_length_c   19.44757123
_cell_angle_alpha   90.03623314
_cell_angle_beta   89.98574328
_cell_angle_gamma   89.99978773
_symmetry_Int_Tables_number   1
_chemical_formula_structural   Na2MnFe(PO4)2
_chemical_formula_sum   'Na96 Mn48 Fe48 P96 O384'
_cell_volume   8733.89527547
_cell_formula_units_Z   48
loop_
 _symmetry_equiv_pos_site_id
 _symmetry_equiv_pos_as_xyz
  1  'x, y, z'
loop_
 _atom_site_type_symbol
 _atom_site_label
 _atom_site_symmetry_multiplicity
 _atom_site_fract_x
 _atom_site_fract_y
 _atom_site_fract_z
 _atom_site_occupancy
  Na  Na0  1  0.14052464  0.25138286  0.24436604  1
  Na  Na1  1  0.13976532  0.25169934  0.49305314  1
  Na  Na2  1  0.14044254  0.24942184  0.74407881  1
  Na  Na3  1  0.14075165  0.25076180  0.99412881  1
  Na  Na4  1  0.14137770  0.58287783  0.24414497  1
  Na  Na5  1  0.14150283  0.58395663  0.49391333  1
  Na  Na6  1  0.14048752  0.58383837  0.74452667  1
  Na  Na7  1  0.14106429  0.58466574  0.99407989  1
  Na  Na8  1  0.14031930  0.91477014  0.24422029  1
  Na  Na9  1  0.14000187  0.91567998  0.49289369  1
  Na  Na10  1  0.14111910  0.91559673  0.74478890  1
  Na  Na11  1  0.14123806  0.91616863  0.99296291  1
  Na  Na12  1  0.64000474  0.24842122  0.24344714  1
  Na  Na13  1  0.63908931  0.24991557  0.49376768  1
  Na  Na14  1  0.64006693  0.25166743  0.74278172  1
  Na  Na15  1  0.63987236  0.25093685  0.99334713  1
  Na  Na16  1  0.64008891  0.58324765  0.24210792  1
  Na  Na17  1  0.64028478  0.58257212  0.49319096  1
  Na  Na18  1  0.64036099  0.58216561  0.74388335  1
  Na  Na19  1  0.64077451  0.58404585  0.99286489  1
  Na  Na20  1  0.64008380  0.91494466  0.24230060  1
  Na  Na21  1  0.63980748  0.91617609  0.49267116  1
  Na  Na22  1  0.64020723  0.91647880  0.74471939  1
  Na  Na23  1  0.64013907  0.91529332  0.99433058  1
  Na  Na24  1  0.35956076  0.08482781  0.00672090  1
  Na  Na25  1  0.36000333  0.08402804  0.25737451  1
  Na  Na26  1  0.35945010  0.08469671  0.50628083  1
  Na  Na27  1  0.35897089  0.08308179  0.75706261  1
  Na  Na28  1  0.35945338  0.41798697  0.00677165  1
  Na  Na29  1  0.35975416  0.41826011  0.25717388  1
  Na  Na30  1  0.36022658  0.41817585  0.50700244  1
  Na  Na31  1  0.36007920  0.41642866  0.75639208  1
  Na  Na32  1  0.36071722  0.74920498  0.00770700  1
  Na  Na33  1  0.36062313  0.74896998  0.25710223  1
  Na  Na34  1  0.36039034  0.75053668  0.50489507  1
  Na  Na35  1  0.35954595  0.75033340  0.75712923  1
  Na  Na36  1  0.85876901  0.08307639  0.00610889  1
  Na  Na37  1  0.85926012  0.08175597  0.25615643  1
  Na  Na38  1  0.85946280  0.08319830  0.50726410  1
  Na  Na39  1  0.85911348  0.08396553  0.75514800  1
  Na  Na40  1  0.85936383  0.41723499  0.00519702  1
  Na  Na41  1  0.85945178  0.41564666  0.25491003  1
  Na  Na42  1  0.85918510  0.41525764  0.50697468  1
  Na  Na43  1  0.85893000  0.41712213  0.75588759  1
  Na  Na44  1  0.86000765  0.75050857  0.00655186  1
  Na  Na45  1  0.86003400  0.75024348  0.25514887  1
  Na  Na46  1  0.85942269  0.74976431  0.50566744  1
  Na  Na47  1  0.85976154  0.74888254  0.75699114  1
  Na  Na48  1  0.10958330  0.08339092  0.11816431  1
  Na  Na49  1  0.10880277  0.08274119  0.36994464  1
  Na  Na50  1  0.10913289  0.08290801  0.61816272  1
  Na  Na51  1  0.11004068  0.08315765  0.86892120  1
  Na  Na52  1  0.11048531  0.41773970  0.11865179  1
  Na  Na53  1  0.11041598  0.41602479  0.36872433  1
  Na  Na54  1  0.10981507  0.41575505  0.61789447  1
  Na  Na55  1  0.10972366  0.41709389  0.86958379  1
  Na  Na56  1  0.11080106  0.75014319  0.11863085  1
  Na  Na57  1  0.11048724  0.75025044  0.36908527  1
  Na  Na58  1  0.11020499  0.74950540  0.61918749  1
  Na  Na59  1  0.11084494  0.74973410  0.86918965  1
  Na  Na60  1  0.60919656  0.08206743  0.11915181  1
  Na  Na61  1  0.60865661  0.08291748  0.36871932  1
  Na  Na62  1  0.60901916  0.08392454  0.61818900  1
  Na  Na63  1  0.60904220  0.08478547  0.86927363  1
  Na  Na64  1  0.60943099  0.41708170  0.11766518  1
  Na  Na65  1  0.60949432  0.41639423  0.36904195  1
  Na  Na66  1  0.60956097  0.41597312  0.61826346  1
  Na  Na67  1  0.60980248  0.41687335  0.86737002  1
  Na  Na68  1  0.61021334  0.75007438  0.11787333  1
  Na  Na69  1  0.60952000  0.75065848  0.36668380  1
  Na  Na70  1  0.60940170  0.74920262  0.61903797  1
  Na  Na71  1  0.61028549  0.74931289  0.86929889  1
  Na  Na72  1  0.39049952  0.25040369  0.13210431  1
  Na  Na73  1  0.39053153  0.25164475  0.38190243  1
  Na  Na74  1  0.38964847  0.25132006  0.63117971  1
  Na  Na75  1  0.39015901  0.25069196  0.88131188  1
  Na  Na76  1  0.39068700  0.58462344  0.13292430  1
  Na  Na77  1  0.39056020  0.58400213  0.38138071  1
  Na  Na78  1  0.39051616  0.58291092  0.63107774  1
  Na  Na79  1  0.39042741  0.58408117  0.88211414  1
  Na  Na80  1  0.39089642  0.91619402  0.13192295  1
  Na  Na81  1  0.39068729  0.91724196  0.38068767  1
  Na  Na82  1  0.39025136  0.91629654  0.63076834  1
  Na  Na83  1  0.39038431  0.91654924  0.88349143  1
  Na  Na84  1  0.89002918  0.25079928  0.13007263  1
  Na  Na85  1  0.89020495  0.24878601  0.38218461  1
  Na  Na86  1  0.88949945  0.24946159  0.63072018  1
  Na  Na87  1  0.88965823  0.25046524  0.88053720  1
  Na  Na88  1  0.89051926  0.58518435  0.12998908  1
  Na  Na89  1  0.89034526  0.58318700  0.38076994  1
  Na  Na90  1  0.89025390  0.58262853  0.63132376  1
  Na  Na91  1  0.89012674  0.58409306  0.88184779  1
  Na  Na92  1  0.88991879  0.91588894  0.13108999  1
  Na  Na93  1  0.89017905  0.91608139  0.38089937  1
  Na  Na94  1  0.89047670  0.91526210  0.63029801  1
  Na  Na95  1  0.89015393  0.91527775  0.88214899  1
  Mn  Mn96  1  0.49953811  0.00008671  0.49934472  1
  Mn  Mn97  1  0.50048961  0.33367005  0.25031110  1
  Mn  Mn98  1  0.49934078  0.33320475  0.00000078  1
  Mn  Mn99  1  -0.00013522  -0.00112853  0.24972528  1
  Mn  Mn100  1  0.74906179  0.16768288  0.87563101  1
  Mn  Mn101  1  0.49970628  0.00028186  0.74996750  1
  Mn  Mn102  1  0.49919787  0.66570859  0.74939416  1
  Mn  Mn103  1  0.75017683  0.00017470  0.62516624  1
  Mn  Mn104  1  0.00105249  0.66798504  0.25084095  1
  Mn  Mn105  1  0.74915465  -0.00144926  0.37557251  1
  Mn  Mn106  1  0.24986256  0.50085057  0.87550705  1
  Mn  Mn107  1  0.24903325  0.16768848  0.62569167  1
  Mn  Mn108  1  -0.00005594  0.16633815  0.25020210  1
  Mn  Mn109  1  -0.00028692  -0.00103004  0.74951882  1
  Mn  Mn110  1  -0.00060638  0.16728062  -0.00067903  1
  Mn  Mn111  1  -0.00019658  0.16625036  0.74942512  1
  Mn  Mn112  1  0.24958135  0.16796112  0.12598628  1
  Mn  Mn113  1  0.24996078  -0.00035098  0.62561497  1
  Mn  Mn114  1  0.74972526  0.33251536  0.37524598  1
  Mn  Mn115  1  -0.00037223  0.50025810  0.75010646  1
  Mn  Mn116  1  0.00070224  0.66704068  0.50030365  1
  Mn  Mn117  1  -0.00044832  -0.00086079  -0.00013612  1
  Mn  Mn118  1  0.49963795  0.00031786  0.00096560  1
  Mn  Mn119  1  0.74985259  0.49925508  0.37380171  1
  Mn  Mn120  1  0.00012178  0.33285941  0.74928323  1
  Mn  Mn121  1  0.49972402  0.83295106  0.75068277  1
  Mn  Mn122  1  0.50028393  0.66670330  0.49949659  1
  Mn  Mn123  1  0.00049464  0.83207240  0.75039480  1
  Mn  Mn124  1  0.75029643  0.66667673  0.37405269  1
  Mn  Mn125  1  0.00009863  0.33333534  0.25009780  1
  Mn  Mn126  1  0.74988005  0.16582306  0.37455471  1
  Mn  Mn127  1  0.00070008  0.49923510  0.50050466  1
  Mn  Mn128  1  0.25018702  0.50078498  0.62530762  1
  Mn  Mn129  1  0.25054269  0.83250886  0.62498541  1
  Mn  Mn130  1  0.75002756  0.49972576  0.12383723  1
  Mn  Mn131  1  0.75007583  0.16655538  0.12469074  1
  Mn  Mn132  1  0.74899405  -0.00058303  0.87516950  1
  Mn  Mn133  1  0.25122470  0.83223246  0.12433623  1
  Mn  Mn134  1  0.00024286  0.50088651  -0.00045781  1
  Mn  Mn135  1  0.74935227  0.66580037  0.62530840  1
  Mn  Mn136  1  0.49901274  0.16807832  0.74917556  1
  Mn  Mn137  1  -0.00023518  0.50032092  0.24973437  1
  Mn  Mn138  1  0.24968166  0.16835718  0.37575058  1
  Mn  Mn139  1  0.24933243  0.33323329  0.87596945  1
  Mn  Mn140  1  0.25030285  0.00006046  0.12491234  1
  Mn  Mn141  1  0.49973877  0.50095254  -0.00032306  1
  Mn  Mn142  1  0.24956127  -0.00019107  0.37518945  1
  Mn  Mn143  1  0.74929058  0.83279119  0.62527041  1
  Fe  Fe144  1  0.75003339  0.49997812  0.62503691  1
  Fe  Fe145  1  0.49994115  0.16682521  0.25062794  1
  Fe  Fe146  1  0.25056000  0.83262214  0.37455155  1
  Fe  Fe147  1  0.25054027  0.33455829  0.12530051  1
  Fe  Fe148  1  0.25019786  0.50050448  0.37518887  1
  Fe  Fe149  1  0.00047174  0.83341414  0.25000531  1
  Fe  Fe150  1  0.50028297  0.83341805  0.24968462  1
  Fe  Fe151  1  0.00011640  0.33372064  -0.00017275  1
  Fe  Fe152  1  0.49977270  0.00014712  0.25006292  1
  Fe  Fe153  1  0.75038628  0.66659799  0.12373802  1
  Fe  Fe154  1  0.74952808  0.33339791  0.12392635  1
  Fe  Fe155  1  0.74963317  -0.00099899  0.12509735  1
  Fe  Fe156  1  0.00109634  0.83287876  0.00008151  1
  Fe  Fe157  1  0.74851080  0.16714064  0.62573327  1
  Fe  Fe158  1  0.50075041  0.66675534  0.00103990  1
  Fe  Fe159  1  0.24976707  0.33422292  0.62523309  1
  Fe  Fe160  1  0.50001375  0.16667478  0.00067798  1
  Fe  Fe161  1  0.25045154  0.33499580  0.37482683  1
  Fe  Fe162  1  0.25064699  0.66715125  0.62478233  1
  Fe  Fe163  1  0.49952798  0.33391807  0.49980690  1
  Fe  Fe164  1  0.25052881  0.66662900  0.37490908  1
  Fe  Fe165  1  0.75027838  0.83252677  0.12433067  1
  Fe  Fe166  1  0.74978934  0.33412812  0.87355190  1
  Fe  Fe167  1  0.50083920  0.66698822  0.25018402  1
  Fe  Fe168  1  0.74934755  0.33352153  0.62499414  1
  Fe  Fe169  1  0.50037803  0.83277494  0.00111564  1
  Fe  Fe170  1  0.25044121  0.16700909  0.87538937  1
  Fe  Fe171  1  -0.00033764  -0.00115088  0.49979962  1
  Fe  Fe172  1  0.50034501  0.83368381  0.49910635  1
  Fe  Fe173  1  0.75047811  0.83294278  0.87539574  1
  Fe  Fe174  1  0.49987114  0.33383338  0.74961094  1
  Fe  Fe175  1  0.00063848  0.66753111  0.00069733  1
  Fe  Fe176  1  0.74959900  0.50000116  0.87447537  1
  Fe  Fe177  1  0.25099599  0.83276450  0.87516845  1
  Fe  Fe178  1  0.50032617  0.50002901  0.49989471  1
  Fe  Fe179  1  0.25130454  0.66650307  0.87558770  1
  Fe  Fe180  1  -0.00035250  0.83276899  0.50023628  1
  Fe  Fe181  1  0.49885512  0.16708957  0.49970490  1
  Fe  Fe182  1  0.75029199  0.66650513  0.87486102  1
  Fe  Fe183  1  0.50029578  0.50030049  0.25015310  1
  Fe  Fe184  1  -0.00080752  0.33282792  0.49968014  1
  Fe  Fe185  1  0.50006758  0.49959609  0.74999668  1
  Fe  Fe186  1  0.74969024  0.83251810  0.37391649  1
  Fe  Fe187  1  -0.00047709  0.16595256  0.49977461  1
  Fe  Fe188  1  0.00007890  0.66673977  0.75028258  1
  Fe  Fe189  1  0.25021613  0.00022133  0.87518997  1
  Fe  Fe190  1  0.25058414  0.50058527  0.12594909  1
  Fe  Fe191  1  0.25042388  0.66622949  0.12587294  1
  P  P192  1  0.04240270  0.25134753  0.10218175  1
  P  P193  1  0.04241191  0.24958016  0.35419235  1
  P  P194  1  0.04104548  0.24950903  0.60091202  1
  P  P195  1  0.04258629  0.25021684  0.85326447  1
  P  P196  1  0.04284044  0.58510595  0.10252086  1
  P  P197  1  0.04341048  0.58319493  0.35334362  1
  P  P198  1  0.04334045  0.58347046  0.60382805  1
  P  P199  1  0.04209526  0.58517244  0.85301633  1
  P  P200  1  0.04293967  0.91503727  0.10254101  1
  P  P201  1  0.04197495  0.91516845  0.35338974  1
  P  P202  1  0.04183423  0.91575693  0.60145174  1
  P  P203  1  0.04289837  0.91576412  0.85358762  1
  P  P204  1  0.54193554  0.24865952  0.10302447  1
  P  P205  1  0.54181847  0.24916576  0.35327293  1
  P  P206  1  0.54022898  0.25064627  0.60138250  1
  P  P207  1  0.54208680  0.25162864  0.85228178  1
  P  P208  1  0.54260564  0.58462994  0.10333603  1
  P  P209  1  0.54177483  0.58310566  0.35160544  1
  P  P210  1  0.54211940  0.58154932  0.60238662  1
  P  P211  1  0.54199167  0.58246861  0.85249790  1
  P  P212  1  0.54175439  0.91520967  0.10354057  1
  P  P213  1  0.54138715  0.91670322  0.35134654  1
  P  P214  1  0.54217713  0.91550332  0.60201036  1
  P  P215  1  0.54221044  0.91673445  0.85409354  1
  P  P216  1  0.45855983  0.08378107  0.14874393  1
  P  P217  1  0.45732857  0.08504664  0.39678473  1
  P  P218  1  0.45650390  0.08380838  0.64625016  1
  P  P219  1  0.45761858  0.08513252  0.89810753  1
  P  P220  1  0.45784248  0.41826291  0.14803331  1
  P  P221  1  0.45889584  0.41759869  0.39808586  1
  P  P222  1  0.45850745  0.41687664  0.64757014  1
  P  P223  1  0.45710139  0.41703929  0.89628211  1
  P  P224  1  0.45940555  0.74994824  0.14824437  1
  P  P225  1  0.45884760  0.75158075  0.39630229  1
  P  P226  1  0.45704470  0.74997946  0.64638965  1
  P  P227  1  0.45909463  0.74940969  0.89930257  1
  P  P228  1  0.95688668  0.08299982  0.14679944  1
  P  P229  1  0.95789522  0.08226744  0.39864321  1
  P  P230  1  0.95716447  0.08245013  0.64545612  1
  P  P231  1  0.95643170  0.08282594  0.89663957  1
  P  P232  1  0.95758758  0.41678974  0.14594634  1
  P  P233  1  0.95741754  0.41545126  0.39765711  1
  P  P234  1  0.95714221  0.41605908  0.64624030  1
  P  P235  1  0.95783437  0.41593141  0.89739914  1
  P  P236  1  0.95875371  0.75161088  0.14695632  1
  P  P237  1  0.95789062  0.75136311  0.39734777  1
  P  P238  1  0.95757503  0.74859142  0.64752063  1
  P  P239  1  0.95899314  0.74953694  0.89854675  1
  P  P240  1  0.20713302  0.08343483  0.22842907  1
  P  P241  1  0.20693483  0.08400253  0.47845554  1
  P  P242  1  0.20708282  0.08306465  0.72936156  1
  P  P243  1  0.20873941  0.08397128  0.97681640  1
  P  P244  1  0.20891987  0.41731467  0.22753513  1
  P  P245  1  0.20914585  0.41744279  0.47705467  1
  P  P246  1  0.20751040  0.41605799  0.72764477  1
  P  P247  1  0.20750923  0.41776310  0.97955890  1
  P  P248  1  0.20891323  0.74840080  0.22817439  1
  P  P249  1  0.20917211  0.74955715  0.47664030  1
  P  P250  1  0.20854168  0.74855489  0.72838528  1
  P  P251  1  0.20987129  0.74925043  0.97700359  1
  P  P252  1  0.70755527  0.08128431  0.22718411  1
  P  P253  1  0.70668810  0.08356553  0.47871163  1
  P  P254  1  0.70665940  0.08453716  0.72764278  1
  P  P255  1  0.70681230  0.08284607  0.97888492  1
  P  P256  1  0.70712281  0.41509812  0.22641864  1
  P  P257  1  0.70736796  0.41665079  0.47871312  1
  P  P258  1  0.70857231  0.41713573  0.72679677  1
  P  P259  1  0.70831665  0.41648436  0.97597495  1
  P  P260  1  0.70890576  0.74937123  0.22582406  1
  P  P261  1  0.70708206  0.75048004  0.47659584  1
  P  P262  1  0.70703077  0.74928540  0.72929407  1
  P  P263  1  0.70929756  0.74976571  0.97704886  1
  P  P264  1  0.29241166  0.25159714  0.02297317  1
  P  P265  1  0.29233650  0.25262987  0.27272688  1
  P  P266  1  0.29150074  0.25268472  0.52252508  1
  P  P267  1  0.29203008  0.24941822  0.77272264  1
  P  P268  1  0.29211730  0.58384459  0.02408307  1
  P  P269  1  0.29161335  0.58333679  0.27320184  1
  P  P270  1  0.29255371  0.58519073  0.52189889  1
  P  P271  1  0.29262467  0.58478166  0.77257354  1
  P  P272  1  0.29315415  0.91679872  0.02092767  1
  P  P273  1  0.29242433  0.91504332  0.27251430  1
  P  P274  1  0.29246032  0.91617368  0.52138544  1
  P  P275  1  0.29206042  0.91654610  0.77409952  1
  P  P276  1  0.79167101  0.25181724  0.02146956  1
  P  P277  1  0.79281655  0.24964303  0.27124545  1
  P  P278  1  0.79028903  0.24945098  0.52382555  1
  P  P279  1  0.79136424  0.25129948  0.77144142  1
  P  P280  1  0.79204111  0.58453246  0.02097206  1
  P  P281  1  0.79281095  0.58328177  0.27039251  1
  P  P282  1  0.79228279  0.58200130  0.52237891  1
  P  P283  1  0.79134930  0.58275796  0.77319540  1
  P  P284  1  0.79115998  0.91604561  0.02306404  1
  P  P285  1  0.79160225  0.91482477  0.27150667  1
  P  P286  1  0.79219774  0.91583015  0.52156899  1
  P  P287  1  0.79234500  0.91534151  0.77295039  1
  O  O288  1  0.03757573  0.25085975  0.18221957  1
  O  O289  1  0.03677137  0.24956551  0.43410502  1
  O  O290  1  0.03629210  0.24937899  0.68093856  1
  O  O291  1  0.03736022  0.25108204  0.93321605  1
  O  O292  1  0.03779904  0.58490499  0.18247600  1
  O  O293  1  0.03860488  0.58303251  0.43331763  1
  O  O294  1  0.03791061  0.58393281  0.68378881  1
  O  O295  1  0.03674351  0.58540729  0.93297057  1
  O  O296  1  0.03791085  0.91499124  0.18255624  1
  O  O297  1  0.03632634  0.91543519  0.43324361  1
  O  O298  1  0.03672266  0.91560325  0.68145097  1
  O  O299  1  0.03796757  0.91538239  0.93356196  1
  O  O300  1  0.53679331  0.24862195  0.18297775  1
  O  O301  1  0.53604933  0.24941268  0.43309985  1
  O  O302  1  0.53532765  0.25161180  0.68134741  1
  O  O303  1  0.53714420  0.25106881  0.93221085  1
  O  O304  1  0.53755672  0.58405825  0.18322944  1
  O  O305  1  0.53683324  0.58326836  0.43156204  1
  O  O306  1  0.53655898  0.58132806  0.68228945  1
  O  O307  1  0.53716093  0.58334513  0.93245578  1
  O  O308  1  0.53657686  0.91509392  0.18340897  1
  O  O309  1  0.53653403  0.91662467  0.43134315  1
  O  O310  1  0.53697572  0.91588208  0.68201175  1
  O  O311  1  0.53691482  0.91662504  0.93405936  1
  O  O312  1  0.46347599  0.08392494  0.06876639  1
  O  O313  1  0.46287683  0.08487756  0.31691477  1
  O  O314  1  0.46161741  0.08389048  0.56626817  1
  O  O315  1  0.46247039  0.08487121  0.81812824  1
  O  O316  1  0.46266495  0.41803248  0.06808335  1
  O  O317  1  0.46397415  0.41755281  0.31815763  1
  O  O318  1  0.46371919  0.41700628  0.56765565  1
  O  O319  1  0.46233128  0.41701616  0.81634165  1
  O  O320  1  0.46429024  0.74939913  0.06831477  1
  O  O321  1  0.46449783  0.75136983  0.31644393  1
  O  O322  1  0.46237673  0.75038153  0.56645413  1
  O  O323  1  0.46348067  0.74934646  0.81929155  1
  O  O324  1  0.96176024  0.08304451  0.06683512  1
  O  O325  1  0.96293017  0.08241847  0.31861303  1
  O  O326  1  0.96265702  0.08237697  0.56552019  1
  O  O327  1  0.96147074  0.08263424  0.81661780  1
  O  O328  1  0.96307760  0.41632590  0.06599432  1
  O  O329  1  0.96232240  0.41578709  0.31761953  1
  O  O330  1  0.96229798  0.41563963  0.56626228  1
  O  O331  1  0.96266746  0.41618281  0.81739025  1
  O  O332  1  0.96425363  0.75118514  0.06706587  1
  O  O333  1  0.96328531  0.75163376  0.31741279  1
  O  O334  1  0.96264435  0.74940968  0.56757684  1
  O  O335  1  0.96366932  0.74883674  0.81853520  1
  O  O336  1  0.21384286  0.08407341  0.05683437  1
  O  O337  1  0.21213462  0.08367802  0.30839506  1
  O  O338  1  0.21198731  0.08387147  0.55843960  1
  O  O339  1  0.21276281  0.08311767  0.80928885  1
  O  O340  1  0.21314213  0.41795830  0.05942564  1
  O  O341  1  0.21403801  0.41729688  0.30747544  1
  O  O342  1  0.21369693  0.41735192  0.55705912  1
  O  O343  1  0.21233669  0.41618873  0.80762749  1
  O  O344  1  0.21446999  0.74912287  0.05697988  1
  O  O345  1  0.21421619  0.74884676  0.30804738  1
  O  O346  1  0.21402266  0.74946328  0.55662985  1
  O  O347  1  0.21429395  0.74883979  0.80821472  1
  O  O348  1  0.71248455  0.08230019  0.05878953  1
  O  O349  1  0.71261717  0.08144583  0.30718586  1
  O  O350  1  0.71171279  0.08419754  0.55870543  1
  O  O351  1  0.71161332  0.08435045  0.80765184  1
  O  O352  1  0.71312669  0.41622137  0.05595257  1
  O  O353  1  0.71209794  0.41537430  0.30640389  1
  O  O354  1  0.71258134  0.41714515  0.55862134  1
  O  O355  1  0.71350198  0.41689043  0.80670732  1
  O  O356  1  0.71466420  0.74941487  0.05694523  1
  O  O357  1  0.71345509  0.75002890  0.30581283  1
  O  O358  1  0.71175192  0.75001942  0.55660643  1
  O  O359  1  0.71260106  0.74935508  0.80917850  1
  O  O360  1  0.28709998  0.25268179  0.19278873  1
  O  O361  1  0.28650368  0.25298621  0.44255489  1
  O  O362  1  0.28656234  0.25006898  0.69281532  1
  O  O363  1  0.28695914  0.25043431  0.94303966  1
  O  O364  1  0.28657056  0.58289018  0.19330359  1
  O  O365  1  0.28708565  0.58475181  0.44204841  1
  O  O366  1  0.28744168  0.58484885  0.69263796  1
  O  O367  1  0.28727805  0.58431682  0.94409308  1
  O  O368  1  0.28765902  0.91515607  0.19248169  1
  O  O369  1  0.28714805  0.91566357  0.44144573  1
  O  O370  1  0.28734671  0.91607922  0.69405796  1
  O  O371  1  0.28782274  0.91710415  0.94102894  1
  O  O372  1  0.78783085  0.25000728  0.19127571  1
  O  O373  1  0.78618413  0.24936609  0.44377335  1
  O  O374  1  0.78545216  0.25066969  0.69159184  1
  O  O375  1  0.78618964  0.25207852  0.94153419  1
  O  O376  1  0.78759872  0.58374482  0.19043619  1
  O  O377  1  0.78742270  0.58233975  0.44236418  1
  O  O378  1  0.78626146  0.58218570  0.69323097  1
  O  O379  1  0.78648093  0.58445983  0.94111230  1
  O  O380  1  0.78637576  0.91533409  0.19159242  1
  O  O381  1  0.78694332  0.91533052  0.44159942  1
  O  O382  1  0.78719995  0.91567415  0.69299115  1
  O  O383  1  0.78620749  0.91553638  0.94312612  1
  O  O384  1  0.22819047  0.25266315  0.05885287  1
  O  O385  1  0.22805091  0.25283107  0.30840482  1
  O  O386  1  0.22720962  0.25280014  0.55820334  1
  O  O387  1  0.22784657  0.24842504  0.80870439  1
  O  O388  1  0.22788848  0.58339125  0.05994735  1
  O  O389  1  0.22766230  0.58392722  0.30964764  1
  O  O390  1  0.22850629  0.58538101  0.55836054  1
  O  O391  1  0.22836100  0.58545791  0.80836635  1
  O  O392  1  0.22893066  0.91625988  0.05664943  1
  O  O393  1  0.22807088  0.91478209  0.30780239  1
  O  O394  1  0.22821959  0.91608780  0.55697944  1
  O  O395  1  0.22786859  0.91674531  0.80975742  1
  O  O396  1  0.72752553  0.25132675  0.05754203  1
  O  O397  1  0.72831124  0.24936548  0.30623116  1
  O  O398  1  0.72597095  0.24939890  0.55917131  1
  O  O399  1  0.72731181  0.25191368  0.80787046  1
  O  O400  1  0.72800138  0.58462991  0.05735175  1
  O  O401  1  0.72844058  0.58322331  0.30569557  1
  O  O402  1  0.72788040  0.58147529  0.55778380  1
  O  O403  1  0.72723954  0.58346917  0.80924447  1
  O  O404  1  0.72709072  0.91639267  0.05916070  1
  O  O405  1  0.72738775  0.91434972  0.30757616  1
  O  O406  1  0.72786562  0.91649219  0.55689972  1
  O  O407  1  0.72796399  0.91440257  0.80838866  1
  O  O408  1  0.27163321  0.08379455  0.19355653  1
  O  O409  1  0.27131216  0.08398562  0.44328863  1
  O  O410  1  0.27126517  0.08372663  0.69349273  1
  O  O411  1  0.27286716  0.08399460  0.94076023  1
  O  O412  1  0.27301170  0.41721114  0.19114778  1
  O  O413  1  0.27334771  0.41715028  0.44127677  1
  O  O414  1  0.27190810  0.41600610  0.69229554  1
  O  O415  1  0.27158881  0.41739990  0.94350092  1
  O  O416  1  0.27311378  0.74787132  0.19214903  1
  O  O417  1  0.27331522  0.74927977  0.44062548  1
  O  O418  1  0.27265304  0.74827131  0.69203857  1
  O  O419  1  0.27410785  0.74901733  0.94128044  1
  O  O420  1  0.77183017  0.08129089  0.19159265  1
  O  O421  1  0.77110421  0.08268499  0.44355205  1
  O  O422  1  0.77104982  0.08520709  0.69228486  1
  O  O423  1  0.77095639  0.08321201  0.94308884  1
  O  O424  1  0.77153199  0.41499522  0.19106898  1
  O  O425  1  0.77163699  0.41640487  0.44300895  1
  O  O426  1  0.77256100  0.41743510  0.69048229  1
  O  O427  1  0.77244691  0.41617502  0.93995074  1
  O  O428  1  0.77313182  0.74887133  0.19012766  1
  O  O429  1  0.77159032  0.75103935  0.44143675  1
  O  O430  1  0.77124848  0.74911018  0.69350391  1
  O  O431  1  0.77325701  0.74995777  0.94044208  1
  O  O432  1  0.02138560  0.08277285  0.18166774  1
  O  O433  1  0.02204075  0.08236218  0.43451667  1
  O  O434  1  0.02139413  0.08246357  0.68124138  1
  O  O435  1  0.02091375  0.08299598  0.93148779  1
  O  O436  1  0.02186448  0.41703226  0.18149219  1
  O  O437  1  0.02188234  0.41470128  0.43280281  1
  O  O438  1  0.02152377  0.41669268  0.68137985  1
  O  O439  1  0.02217930  0.41614379  0.93268389  1
  O  O440  1  0.02289867  0.75224310  0.18314877  1
  O  O441  1  0.02218501  0.75163100  0.43305931  1
  O  O442  1  0.02200227  0.74786511  0.68293532  1
  O  O443  1  0.02333328  0.74978464  0.93414026  1
  O  O444  1  0.52267925  0.08391589  0.18468964  1
  O  O445  1  0.52135840  0.08522035  0.43313356  1
  O  O446  1  0.52087745  0.08392171  0.68148492  1
  O  O447  1  0.52194873  0.08488891  0.93358588  1
  O  O448  1  0.52225669  0.41847277  0.18330343  1
  O  O449  1  0.52294324  0.41764344  0.43421622  1
  O  O450  1  0.52252989  0.41663861  0.68415574  1
  O  O451  1  0.52136725  0.41688092  0.93184522  1
  O  O452  1  0.52350323  0.75060670  0.18424298  1
  O  O453  1  0.52280200  0.75156819  0.43279418  1
  O  O454  1  0.52131680  0.74958444  0.68184721  1
  O  O455  1  0.52338393  0.74897071  0.93481771  1
  O  O456  1  0.47764425  0.24855270  0.06731871  1
  O  O457  1  0.47779672  0.24934418  0.31687719  1
  O  O458  1  0.47616926  0.25032139  0.56533002  1
  O  O459  1  0.47772795  0.25254833  0.81673694  1
  O  O460  1  0.47829934  0.58525128  0.06761725  1
  O  O461  1  0.47763544  0.58268914  0.31562715  1
  O  O462  1  0.47801153  0.58183574  0.56625676  1
  O  O463  1  0.47764960  0.58157799  0.81702418  1
  O  O464  1  0.47769993  0.91524364  0.06742234  1
  O  O465  1  0.47725695  0.91628849  0.31545599  1
  O  O466  1  0.47788687  0.91514536  0.56635978  1
  O  O467  1  0.47788784  0.91696771  0.81866220  1
  O  O468  1  0.97795641  0.25149523  0.06703337  1
  O  O469  1  0.97818431  0.24971698  0.31845848  1
  O  O470  1  0.97675911  0.24946484  0.56534663  1
  O  O471  1  0.97821140  0.24987407  0.81805657  1
  O  O472  1  0.97852338  0.58531260  0.06705618  1
  O  O473  1  0.97891866  0.58387186  0.31851082  1
  O  O474  1  0.97902293  0.58319200  0.56849486  1
  O  O475  1  0.97785487  0.58519707  0.81714900  1
  O  O476  1  0.97853616  0.91444664  0.06716927  1
  O  O477  1  0.97792317  0.91446472  0.31693135  1
  O  O478  1  0.97758742  0.91577200  0.56566845  1
  O  O479  1  0.97848601  0.91554580  0.81850493  1
  O  O480  1  0.07296782  0.31501521  0.07386220  1
  O  O481  1  0.07384911  0.31281220  0.32581721  1
  O  O482  1  0.07168705  0.31342056  0.57311345  1
  O  O483  1  0.07395485  0.31328673  0.82453341  1
  O  O484  1  0.07362829  0.64864721  0.07421030  1
  O  O485  1  0.07473229  0.64656922  0.32545650  1
  O  O486  1  0.07452181  0.64666017  0.57519779  1
  O  O487  1  0.07318310  0.64828931  0.82421762  1
  O  O488  1  0.07340218  0.97912358  0.07481804  1
  O  O489  1  0.07275769  0.97897990  0.32531614  1
  O  O490  1  0.07261145  0.97942714  0.57343536  1
  O  O491  1  0.07358287  0.97941287  0.82536447  1
  O  O492  1  0.57270219  0.31254552  0.07527863  1
  O  O493  1  0.57327077  0.31266429  0.32536773  1
  O  O494  1  0.57102528  0.31412644  0.57252818  1
  O  O495  1  0.57313057  0.31494416  0.82363122  1
  O  O496  1  0.57363560  0.64798146  0.07463650  1
  O  O497  1  0.57199659  0.64718349  0.32318984  1
  O  O498  1  0.57325412  0.64530438  0.57481643  1
  O  O499  1  0.57277794  0.64593845  0.82392901  1
  O  O500  1  0.57306508  0.97870240  0.07572614  1
  O  O501  1  0.57131510  0.98101597  0.32318112  1
  O  O502  1  0.57300381  0.97923747  0.57413723  1
  O  O503  1  0.57325079  0.98024089  0.82580613  1
  O  O504  1  0.42832296  0.01954840  0.17678114  1
  O  O505  1  0.42617938  0.02133940  0.42452870  1
  O  O506  1  0.42574756  0.02017151  0.67462640  1
  O  O507  1  0.42638430  0.02174556  0.92614654  1
  O  O508  1  0.42708547  0.35455085  0.17597173  1
  O  O509  1  0.42840913  0.35370672  0.42645348  1
  O  O510  1  0.42746359  0.35335735  0.67593775  1
  O  O511  1  0.42575544  0.35386066  0.92491213  1
  O  O512  1  0.42916655  0.68612993  0.17737371  1
  O  O513  1  0.42756914  0.68795084  0.42400468  1
  O  O514  1  0.42601732  0.68633786  0.67432578  1
  O  O515  1  0.42796613  0.68602765  0.92756753  1
  O  O516  1  0.92591865  0.01948359  0.17499136  1
  O  O517  1  0.92713216  0.01843965  0.42634947  1
  O  O518  1  0.92593871  0.01910471  0.67388189  1
  O  O519  1  0.92550013  0.01937612  0.92498216  1
  O  O520  1  0.92624401  0.35372183  0.17453021  1
  O  O521  1  0.92629582  0.35206314  0.42600276  1
  O  O522  1  0.92614252  0.35266146  0.67447471  1
  O  O523  1  0.92737973  0.35228416  0.92589298  1
  O  O524  1  0.92788112  0.68793468  0.17517337  1
  O  O525  1  0.92718047  0.68731261  0.42478647  1
  O  O526  1  0.92668667  0.68510456  0.67590094  1
  O  O527  1  0.92807993  0.68625959  0.92749833  1
  O  O528  1  0.17650762  0.01970119  0.20029543  1
  O  O529  1  0.17590564  0.02052847  0.45030141  1
  O  O530  1  0.17638334  0.01930943  0.70101695  1
  O  O531  1  0.17794228  0.02012667  0.94905424  1
  O  O532  1  0.17786535  0.35385773  0.19902499  1
  O  O533  1  0.17772530  0.35433890  0.44847623  1
  O  O534  1  0.17685324  0.35248767  0.69909107  1
  O  O535  1  0.17593926  0.35454595  0.95136909  1
  O  O536  1  0.17773928  0.68505285  0.19959557  1
  O  O537  1  0.17778029  0.68632800  0.44835666  1
  O  O538  1  0.17740964  0.68541956  0.69948336  1
  O  O539  1  0.17858110  0.68598001  0.94862799  1
  O  O540  1  0.67688097  0.01765724  0.19888564  1
  O  O541  1  0.67532852  0.02008275  0.45077682  1
  O  O542  1  0.67621769  0.02050780  0.69986469  1
  O  O543  1  0.67558703  0.01957737  0.95044669  1
  O  O544  1  0.67639183  0.35154756  0.19802539  1
  O  O545  1  0.67619326  0.35308597  0.45067087  1
  O  O546  1  0.67802887  0.35331391  0.69806010  1
  O  O547  1  0.67683080  0.35343811  0.94741101  1
  O  O548  1  0.67789547  0.68573630  0.19782329  1
  O  O549  1  0.67649531  0.68662060  0.44849021  1
  O  O550  1  0.67578850  0.68595404  0.70067506  1
  O  O551  1  0.67827753  0.68628394  0.94849016  1
  O  O552  1  0.32361899  0.31515027  0.05076934  1
  O  O553  1  0.32351484  0.31582524  0.30144807  1
  O  O554  1  0.32244016  0.31595970  0.55149660  1
  O  O555  1  0.32279572  0.31311865  0.80079573  1
  O  O556  1  0.32282503  0.64740341  0.05283749  1
  O  O557  1  0.32314885  0.64667440  0.30123930  1
  O  O558  1  0.32358833  0.64858314  0.55038142  1
  O  O559  1  0.32419879  0.64762001  0.80152033  1
  O  O560  1  0.32402481  0.98027409  0.04969660  1
  O  O561  1  0.32321398  0.97888897  0.30019154  1
  O  O562  1  0.32330240  0.97993687  0.54934698  1
  O  O563  1  0.32308275  0.98015697  0.80198080  1
  O  O564  1  0.82231399  0.31529258  0.05017173  1
  O  O565  1  0.82382924  0.31284268  0.30015322  1
  O  O566  1  0.82062734  0.31345937  0.55210196  1
  O  O567  1  0.82269966  0.31473669  0.79953916  1
  O  O568  1  0.82310577  0.64784904  0.04970957  1
  O  O569  1  0.82411380  0.64641396  0.29910240  1
  O  O570  1  0.82281766  0.64593856  0.55037760  1
  O  O571  1  0.82264211  0.64633694  0.80100319  1
  O  O572  1  0.82210966  0.97974767  0.05106735  1
  O  O573  1  0.82265356  0.97831861  0.29997255  1
  O  O574  1  0.82344135  0.97933094  0.54955799  1
  O  O575  1  0.82270091  0.97939925  0.80075980  1
  O  O576  1  0.42718179  0.14697835  0.17717049  1
  O  O577  1  0.42622924  0.14836053  0.42553980  1
  O  O578  1  0.42519810  0.14708868  0.67453130  1
  O  O579  1  0.42734047  0.14895397  0.92660961  1
  O  O580  1  0.42712966  0.48178026  0.17657936  1
  O  O581  1  0.42772415  0.48100260  0.42636388  1
  O  O582  1  0.42767996  0.48053735  0.67605248  1
  O  O583  1  0.42602512  0.48047565  0.92487007  1
  O  O584  1  0.42773478  0.81320286  0.17627534  1
  O  O585  1  0.42790503  0.81500528  0.42490673  1
  O  O586  1  0.42589318  0.81314818  0.67525377  1
  O  O587  1  0.42901970  0.81348609  0.92771978  1
  O  O588  1  0.92603158  0.14653133  0.17506061  1
  O  O589  1  0.92695752  0.14594333  0.42678207  1
  O  O590  1  0.92606728  0.14593658  0.67383436  1
  O  O591  1  0.92531723  0.14632938  0.92462289  1
  O  O592  1  0.92663142  0.48063903  0.17363111  1
  O  O593  1  0.92686214  0.47934983  0.42551480  1
  O  O594  1  0.92599373  0.47953472  0.67447203  1
  O  O595  1  0.92667207  0.47961975  0.92498661  1
  O  O596  1  0.92746595  0.81481699  0.17553697  1
  O  O597  1  0.92664891  0.81435356  0.42633639  1
  O  O598  1  0.92673436  0.81212738  0.67602842  1
  O  O599  1  0.92841046  0.81350075  0.92649030  1
  O  O600  1  0.07338097  0.18766757  0.07422707  1
  O  O601  1  0.07348461  0.18610717  0.32572649  1
  O  O602  1  0.07188965  0.18584479  0.57282657  1
  O  O603  1  0.07339200  0.18641794  0.82537271  1
  O  O604  1  0.07377754  0.52149313  0.07454171  1
  O  O605  1  0.07384002  0.51950807  0.32481932  1
  O  O606  1  0.07451870  0.51987833  0.57593491  1
  O  O607  1  0.07296564  0.52116423  0.82557109  1
  O  O608  1  0.07433781  0.85204114  0.07363665  1
  O  O609  1  0.07343980  0.85206561  0.32473787  1
  O  O610  1  0.07253369  0.85189532  0.57348427  1
  O  O611  1  0.07425496  0.85256355  0.82507564  1
  O  O612  1  0.57281657  0.18534306  0.07417122  1
  O  O613  1  0.57277146  0.18576298  0.32457654  1
  O  O614  1  0.57112408  0.18673876  0.57389531  1
  O  O615  1  0.57275433  0.18795445  0.82386698  1
  O  O616  1  0.57347914  0.52113039  0.07459945  1
  O  O617  1  0.57318167  0.51980369  0.32344053  1
  O  O618  1  0.57306226  0.51826529  0.57366313  1
  O  O619  1  0.57289714  0.51887421  0.82424732  1
  O  O620  1  0.57248911  0.85174099  0.07441313  1
  O  O621  1  0.57303168  0.85367846  0.32295511  1
  O  O622  1  0.57311099  0.85200861  0.57372158  1
  O  O623  1  0.57329828  0.85327863  0.82591149  1
  O  O624  1  0.32317530  0.18805576  0.05149064  1
  O  O625  1  0.32308524  0.18873271  0.30046622  1
  O  O626  1  0.32231256  0.18878796  0.55004860  1
  O  O627  1  0.32324922  0.18602900  0.80094769  1
  O  O628  1  0.32312230  0.52023665  0.05211298  1
  O  O629  1  0.32193142  0.51954939  0.30214077  1
  O  O630  1  0.32359430  0.52162765  0.55020390  1
  O  O631  1  0.32283753  0.52059612  0.80040697  1
  O  O632  1  0.32462597  0.85349369  0.04908497  1
  O  O633  1  0.32323261  0.85154195  0.30089807  1
  O  O634  1  0.32392417  0.85309749  0.54987133  1
  O  O635  1  0.32255665  0.85267180  0.80248871  1
  O  O636  1  0.82301710  0.18811175  0.04874679  1
  O  O637  1  0.82368925  0.18595522  0.29938537  1
  O  O638  1  0.82124230  0.18600321  0.55210768  1
  O  O639  1  0.82242080  0.18778655  0.79974599  1
  O  O640  1  0.82320497  0.52087984  0.04875178  1
  O  O641  1  0.82366338  0.51954565  0.29827540  1
  O  O642  1  0.82333452  0.51876381  0.55089411  1
  O  O643  1  0.82190008  0.51909719  0.80185233  1
  O  O644  1  0.82194105  0.85240010  0.05152801  1
  O  O645  1  0.82244978  0.85131523  0.30003250  1
  O  O646  1  0.82316254  0.85249970  0.55011226  1
  O  O647  1  0.82361461  0.85208674  0.80125909  1
  O  O648  1  0.17589179  0.14679167  0.20025459  1
  O  O649  1  0.17605224  0.14762510  0.45064073  1
  O  O650  1  0.17527727  0.14606492  0.70095550  1
  O  O651  1  0.17793227  0.14776402  0.94906929  1
  O  O652  1  0.17814088  0.48106411  0.19930353  1
  O  O653  1  0.17900883  0.48157240  0.44870371  1
  O  O654  1  0.17659966  0.47974361  0.69985009  1
  O  O655  1  0.17656778  0.48122710  0.95092869  1
  O  O656  1  0.17802313  0.81190935  0.19966204  1
  O  O657  1  0.17887506  0.81356784  0.44831851  1
  O  O658  1  0.17749695  0.81226211  0.70028498  1
  O  O659  1  0.17966325  0.81327447  0.94853592  1
  O  O660  1  0.67644184  0.14490608  0.19957717  1
  O  O661  1  0.67590130  0.14682239  0.44972384  1
  O  O662  1  0.67548042  0.14786724  0.69936323  1
  O  O663  1  0.67563845  0.14649292  0.95126140  1
  O  O664  1  0.67627107  0.47875722  0.19840109  1
  O  O665  1  0.67632048  0.47981053  0.44959338  1
  O  O666  1  0.67733329  0.48053232  0.69857768  1
  O  O667  1  0.67819545  0.48079090  0.94801062  1
  O  O668  1  0.67839555  0.81296975  0.19683646  1
  O  O669  1  0.67631651  0.81384221  0.44792437  1
  O  O670  1  0.67575780  0.81260294  0.70090876  1
  O  O671  1  0.67826370  0.81348289  0.94920616  1
