# generated using pymatgen
data_Na2MnFe(PO4)2
_symmetry_space_group_name_H-M   'P 1'
_cell_length_a   22.34657676
_cell_length_b   20.09725207
_cell_length_c   19.44846620
_cell_angle_alpha   90.01337420
_cell_angle_beta   90.01678265
_cell_angle_gamma   90.02830100
_symmetry_Int_Tables_number   1
_chemical_formula_structural   Na2MnFe(PO4)2
_chemical_formula_sum   'Na96 Mn48 Fe48 P96 O384'
_cell_volume   8734.39757210
_cell_formula_units_Z   48
loop_
 _symmetry_equiv_pos_site_id
 _symmetry_equiv_pos_as_xyz
  1  'x, y, z'
loop_
 _atom_site_type_symbol
 _atom_site_label
 _atom_site_symmetry_multiplicity
 _atom_site_fract_x
 _atom_site_fract_y
 _atom_site_fract_z
 _atom_site_occupancy
  Na  Na0  1  0.13990778  0.24899539  0.24212788  1
  Na  Na1  1  0.14036449  0.25045459  0.49293208  1
  Na  Na2  1  0.13998138  0.24975377  0.74277010  1
  Na  Na3  1  0.13986113  0.25061555  0.99161759  1
  Na  Na4  1  0.14006437  0.58341824  0.24288365  1
  Na  Na5  1  0.14013347  0.58436795  0.49353114  1
  Na  Na6  1  0.14095006  0.58206771  0.74381529  1
  Na  Na7  1  0.14071394  0.58299478  0.99353067  1
  Na  Na8  1  0.13979156  0.91650038  0.24348647  1
  Na  Na9  1  0.13987066  0.91774145  0.49315524  1
  Na  Na10  1  0.14004217  0.91620178  0.74367525  1
  Na  Na11  1  0.13991552  0.91724866  0.99421124  1
  Na  Na12  1  0.64001225  0.24858868  0.24333567  1
  Na  Na13  1  0.64067417  0.24899580  0.49366681  1
  Na  Na14  1  0.64082321  0.24994579  0.74371153  1
  Na  Na15  1  0.64038446  0.25069988  0.99369355  1
  Na  Na16  1  0.64011821  0.58471150  0.24408245  1
  Na  Na17  1  0.64006337  0.58269345  0.49484532  1
  Na  Na18  1  0.64122894  0.58320838  0.74557685  1
  Na  Na19  1  0.64130591  0.58349291  0.99345755  1
  Na  Na20  1  0.64039810  0.91700655  0.24425882  1
  Na  Na21  1  0.64013225  0.91762225  0.49491525  1
  Na  Na22  1  0.64004119  0.91575016  0.74426227  1
  Na  Na23  1  0.64024343  0.91542067  0.99417147  1
  Na  Na24  1  0.35911668  0.08301993  0.00521155  1
  Na  Na25  1  0.35922837  0.08249991  0.25598918  1
  Na  Na26  1  0.35935204  0.08374026  0.50601708  1
  Na  Na27  1  0.35961276  0.08258553  0.75664061  1
  Na  Na28  1  0.36003069  0.41575539  0.00508922  1
  Na  Na29  1  0.35971340  0.41668999  0.25622290  1
  Na  Na30  1  0.35903969  0.41852280  0.50615664  1
  Na  Na31  1  0.35889549  0.41557896  0.75560627  1
  Na  Na32  1  0.35982525  0.75149830  0.00660076  1
  Na  Na33  1  0.35919144  0.75038311  0.25682016  1
  Na  Na34  1  0.35861337  0.75129741  0.50664104  1
  Na  Na35  1  0.35910185  0.74913407  0.75619371  1
  Na  Na36  1  0.85995785  0.08315685  0.00679262  1
  Na  Na37  1  0.86019361  0.08296290  0.25693352  1
  Na  Na38  1  0.86070350  0.08335778  0.50598304  1
  Na  Na39  1  0.86049267  0.08295619  0.75698816  1
  Na  Na40  1  0.86101182  0.41692092  0.00618513  1
  Na  Na41  1  0.86059416  0.41582923  0.25627232  1
  Na  Na42  1  0.85989686  0.41628626  0.50555661  1
  Na  Na43  1  0.85997834  0.41709619  0.75758275  1
  Na  Na44  1  0.85994725  0.75132428  0.00682971  1
  Na  Na45  1  0.86010840  0.75170695  0.25661643  1
  Na  Na46  1  0.85951516  0.75019551  0.50612408  1
  Na  Na47  1  0.85949486  0.74963161  0.75734968  1
  Na  Na48  1  0.10946808  0.08290460  0.11845179  1
  Na  Na49  1  0.10944042  0.08307817  0.36783213  1
  Na  Na50  1  0.10967882  0.08319248  0.61868428  1
  Na  Na51  1  0.10917382  0.08504084  0.86795573  1
  Na  Na52  1  0.10915044  0.41559172  0.11809411  1
  Na  Na53  1  0.10940469  0.41702063  0.36738762  1
  Na  Na54  1  0.11019385  0.41536280  0.61813409  1
  Na  Na55  1  0.11030430  0.41596278  0.86746587  1
  Na  Na56  1  0.10969322  0.74998344  0.11922141  1
  Na  Na57  1  0.10877935  0.75087388  0.36714923  1
  Na  Na58  1  0.10934933  0.75066587  0.61838981  1
  Na  Na59  1  0.10971741  0.75174904  0.86913335  1
  Na  Na60  1  0.60951822  0.08314633  0.11939632  1
  Na  Na61  1  0.60996326  0.08396900  0.36827873  1
  Na  Na62  1  0.60966390  0.08191204  0.61930450  1
  Na  Na63  1  0.60912908  0.08191936  0.86843409  1
  Na  Na64  1  0.60971145  0.41595827  0.11917337  1
  Na  Na65  1  0.60901538  0.41746501  0.36917021  1
  Na  Na66  1  0.61027327  0.41709665  0.61966993  1
  Na  Na67  1  0.61056447  0.41537800  0.86864185  1
  Na  Na68  1  0.60951695  0.74977875  0.11917853  1
  Na  Na69  1  0.60896540  0.75087280  0.36998102  1
  Na  Na70  1  0.60929261  0.74999909  0.62035463  1
  Na  Na71  1  0.61018019  0.75109150  0.86910030  1
  Na  Na72  1  0.39060552  0.25032064  0.12976161  1
  Na  Na73  1  0.39060028  0.25135501  0.38044204  1
  Na  Na74  1  0.39008445  0.24971462  0.63173822  1
  Na  Na75  1  0.38996319  0.24892451  0.88048565  1
  Na  Na76  1  0.39083188  0.58249256  0.13112378  1
  Na  Na77  1  0.39004978  0.58456661  0.38202771  1
  Na  Na78  1  0.38943224  0.58340984  0.63148664  1
  Na  Na79  1  0.39012609  0.58260804  0.88112592  1
  Na  Na80  1  0.38945754  0.91611407  0.13230200  1
  Na  Na81  1  0.38921894  0.91711284  0.38131275  1
  Na  Na82  1  0.38997171  0.91711344  0.63156933  1
  Na  Na83  1  0.38984920  0.91611070  0.88081757  1
  Na  Na84  1  0.89134252  0.24958865  0.13103240  1
  Na  Na85  1  0.89083595  0.24868527  0.38032694  1
  Na  Na86  1  0.89119215  0.24875879  0.63117421  1
  Na  Na87  1  0.89104921  0.25126906  0.88153508  1
  Na  Na88  1  0.89148842  0.58268856  0.13112487  1
  Na  Na89  1  0.89078652  0.58314901  0.38027561  1
  Na  Na90  1  0.89022437  0.58198007  0.63237640  1
  Na  Na91  1  0.89079379  0.58304660  0.88295580  1
  Na  Na92  1  0.89044473  0.91624347  0.13303236  1
  Na  Na93  1  0.89010878  0.91813953  0.38110541  1
  Na  Na94  1  0.89025291  0.91854419  0.63161821  1
  Na  Na95  1  0.89055597  0.91812821  0.88201549  1
  Mn  Mn96  1  -0.00030076  0.33194513  0.49872040  1
  Mn  Mn97  1  0.50116504  0.49861040  0.00108081  1
  Mn  Mn98  1  0.24999913  0.66655610  0.87487608  1
  Mn  Mn99  1  0.24926622  0.66726268  0.37495077  1
  Mn  Mn100  1  0.74957059  0.16669211  0.87541783  1
  Mn  Mn101  1  0.75045520  0.49999624  0.12465066  1
  Mn  Mn102  1  0.49971906  0.16664775  -0.00055054  1
  Mn  Mn103  1  0.74916500  0.33211815  0.37565920  1
  Mn  Mn104  1  0.74984766  0.66570473  0.62666907  1
  Mn  Mn105  1  -0.00008239  0.49952202  0.49946474  1
  Mn  Mn106  1  0.49978662  0.83266477  0.25078388  1
  Mn  Mn107  1  0.25038288  0.16578882  0.12416128  1
  Mn  Mn108  1  -0.00071950  0.83542795  0.74917640  1
  Mn  Mn109  1  0.50042808  0.66704833  0.00045666  1
  Mn  Mn110  1  0.50009691  0.00038763  0.25005657  1
  Mn  Mn111  1  0.49998164  0.50034222  0.25004386  1
  Mn  Mn112  1  0.24944999  0.83339413  0.62471867  1
  Mn  Mn113  1  0.25010006  0.16626921  0.37452795  1
  Mn  Mn114  1  0.75124371  0.66794838  0.12444145  1
  Mn  Mn115  1  0.49894307  -0.00015345  0.49985934  1
  Mn  Mn116  1  0.50054639  0.33411982  0.50053909  1
  Mn  Mn117  1  0.75064073  0.16587063  0.62507437  1
  Mn  Mn118  1  0.75065237  0.16556139  0.12432471  1
  Mn  Mn119  1  0.74979862  0.83381702  0.62589278  1
  Mn  Mn120  1  0.24983110  0.16644882  0.62429712  1
  Mn  Mn121  1  0.74959535  -0.00120378  0.87602760  1
  Mn  Mn122  1  0.00077001  0.49898412  0.75071571  1
  Mn  Mn123  1  0.24981952  0.33433941  0.37430843  1
  Mn  Mn124  1  0.74999425  0.66698307  0.37556317  1
  Mn  Mn125  1  0.25097561  0.66764033  0.12451907  1
  Mn  Mn126  1  -0.00105695  0.83469513  0.49910843  1
  Mn  Mn127  1  0.49892349  -0.00097694  -0.00039630  1
  Mn  Mn128  1  -0.00040691  0.66668921  0.49944630  1
  Mn  Mn129  1  0.49968150  0.33213192  0.74923408  1
  Mn  Mn130  1  0.49994330  0.16673955  0.49978730  1
  Mn  Mn131  1  0.24959848  -0.00062775  0.87516089  1
  Mn  Mn132  1  0.00053283  0.66719433  0.00075209  1
  Mn  Mn133  1  0.75081690  0.33395016  0.62461565  1
  Mn  Mn134  1  0.74954210  0.83470905  0.37610826  1
  Mn  Mn135  1  0.49986603  0.49947209  0.75073376  1
  Mn  Mn136  1  0.49940896  0.66745269  0.50115483  1
  Mn  Mn137  1  0.00018959  0.66726786  0.75076598  1
  Mn  Mn138  1  0.25002947  0.49995482  0.12408398  1
  Mn  Mn139  1  0.75006978  0.49979149  0.37508201  1
  Mn  Mn140  1  0.50030147  0.66729185  0.75069881  1
  Mn  Mn141  1  -0.00028045  0.00071232  0.00048822  1
  Mn  Mn142  1  0.24957252  0.33319321  0.12381225  1
  Mn  Mn143  1  0.75049225  0.33290420  0.12521847  1
  Fe  Fe144  1  0.75036509  0.50004598  0.62616961  1
  Fe  Fe145  1  0.00030097  0.16646141  0.24949185  1
  Fe  Fe146  1  0.49934273  0.16744491  0.24908894  1
  Fe  Fe147  1  0.25078438  0.49950994  0.87357186  1
  Fe  Fe148  1  0.75016048  0.00026131  0.62506001  1
  Fe  Fe149  1  0.00077707  0.33303659  0.00032943  1
  Fe  Fe150  1  0.24954419  0.49994210  0.62466911  1
  Fe  Fe151  1  0.24996055  -0.00022931  0.62500501  1
  Fe  Fe152  1  0.00083785  0.16616490  0.49996801  1
  Fe  Fe153  1  0.75104707  0.33394877  0.87456872  1
  Fe  Fe154  1  -0.00000209  0.83388922  0.00082742  1
  Fe  Fe155  1  0.24957509  0.83409379  0.12552417  1
  Fe  Fe156  1  0.24895883  0.66665053  0.62505108  1
  Fe  Fe157  1  0.00056032  0.33267959  0.24915023  1
  Fe  Fe158  1  0.25024403  0.33315067  0.87365438  1
  Fe  Fe159  1  0.24925660  0.16625249  0.87426059  1
  Fe  Fe160  1  0.75078188  0.50013638  0.87546762  1
  Fe  Fe161  1  0.49900922  0.83358406  0.75015474  1
  Fe  Fe162  1  -0.00021154  0.66622214  0.24921344  1
  Fe  Fe163  1  0.75030738  0.00041439  0.37487094  1
  Fe  Fe164  1  0.74976688  0.83384138  0.12547912  1
  Fe  Fe165  1  0.00043941  0.00132225  0.75046232  1
  Fe  Fe166  1  0.75041383  0.16555440  0.37487592  1
  Fe  Fe167  1  0.50057694  0.33235444  -0.00004462  1
  Fe  Fe168  1  0.75079946  0.66691212  0.87548835  1
  Fe  Fe169  1  0.49941674  0.83367356  0.50038490  1
  Fe  Fe170  1  0.24925813  0.83413060  0.37534284  1
  Fe  Fe171  1  0.00017086  0.33294627  0.75001495  1
  Fe  Fe172  1  0.00002504  0.16704941  0.74978746  1
  Fe  Fe173  1  0.00030714  0.49945703  0.24935550  1
  Fe  Fe174  1  0.00141107  0.49949028  0.00065653  1
  Fe  Fe175  1  0.00026084  0.00108521  0.49969773  1
  Fe  Fe176  1  0.24937349  0.50095902  0.37536653  1
  Fe  Fe177  1  0.74971998  -0.00036867  0.12549367  1
  Fe  Fe178  1  0.00013288  0.16716806  -0.00076133  1
  Fe  Fe179  1  0.50046805  0.16585921  0.75027862  1
  Fe  Fe180  1  -0.00009483  0.83338766  0.25013625  1
  Fe  Fe181  1  0.49985779  0.33373490  0.25014086  1
  Fe  Fe182  1  0.25015503  0.33342247  0.62463063  1
  Fe  Fe183  1  0.75097386  0.83338159  0.87567445  1
  Fe  Fe184  1  0.24934869  -0.00019758  0.37473460  1
  Fe  Fe185  1  0.49961897  0.66691696  0.25078096  1
  Fe  Fe186  1  0.49943221  0.50083851  0.49971568  1
  Fe  Fe187  1  -0.00011378  0.00044700  0.24979413  1
  Fe  Fe188  1  0.24941471  -0.00049831  0.12479000  1
  Fe  Fe189  1  0.49995661  -0.00077252  0.74971803  1
  Fe  Fe190  1  0.24988338  0.83329043  0.87518209  1
  Fe  Fe191  1  0.49969314  0.83333077  -0.00001959  1
  P  P192  1  0.04168817  0.24910805  0.10168084  1
  P  P193  1  0.04191758  0.24920089  0.35097891  1
  P  P194  1  0.04248282  0.24833829  0.60246632  1
  P  P195  1  0.04141204  0.25033489  0.85180898  1
  P  P196  1  0.04259337  0.58194693  0.10339391  1
  P  P197  1  0.04152519  0.58332958  0.35079957  1
  P  P198  1  0.04248366  0.58296168  0.60308030  1
  P  P199  1  0.04300875  0.58315317  0.85418412  1
  P  P200  1  0.04160687  0.91578653  0.10352042  1
  P  P201  1  0.04067918  0.91760557  0.35137947  1
  P  P202  1  0.04181503  0.91912455  0.60218625  1
  P  P203  1  0.04218099  0.91892266  0.85283247  1
  P  P204  1  0.54226044  0.25073970  0.10319581  1
  P  P205  1  0.54142265  0.25048479  0.35132468  1
  P  P206  1  0.54302803  0.24924524  0.60350178  1
  P  P207  1  0.54255858  0.24846756  0.85243794  1
  P  P208  1  0.54345498  0.58341044  0.10396848  1
  P  P209  1  0.54196970  0.58498832  0.35323962  1
  P  P210  1  0.54189939  0.58235999  0.60291153  1
  P  P211  1  0.54307395  0.58326434  0.85379974  1
  P  P212  1  0.54168187  0.91522956  0.10252379  1
  P  P213  1  0.54241828  0.91667024  0.35379426  1
  P  P214  1  0.54145350  0.91552213  0.60335175  1
  P  P215  1  0.54108671  0.91605226  0.85187838  1
  P  P216  1  0.45735152  0.08435512  0.14730972  1
  P  P217  1  0.45690813  0.08413258  0.39599692  1
  P  P218  1  0.45821332  0.08302961  0.64865801  1
  P  P219  1  0.45711892  0.08265890  0.89568232  1
  P  P220  1  0.45782741  0.41493905  0.14728958  1
  P  P221  1  0.45768920  0.41808716  0.39732881  1
  P  P222  1  0.45703535  0.41696435  0.64642862  1
  P  P223  1  0.45833460  0.41449331  0.89779634  1
  P  P224  1  0.45733728  0.74868160  0.14775409  1
  P  P225  1  0.45687627  0.75126882  0.39803934  1
  P  P226  1  0.45722816  0.75153635  0.64768221  1
  P  P227  1  0.45772405  0.75153341  0.89738205  1
  P  P228  1  0.95855547  0.08373312  0.14803736  1
  P  P229  1  0.95926257  0.08381729  0.39748912  1
  P  P230  1  0.95896556  0.08352683  0.64806021  1
  P  P231  1  0.95778639  0.08523274  0.89706786  1
  P  P232  1  0.95933243  0.41613994  0.14751108  1
  P  P233  1  0.95743928  0.41614459  0.39529330  1
  P  P234  1  0.95798136  0.41455615  0.64773369  1
  P  P235  1  0.95997459  0.41623997  0.89870485  1
  P  P236  1  0.95884200  0.75006049  0.14824345  1
  P  P237  1  0.95712559  0.75022351  0.39548165  1
  P  P238  1  0.95674929  0.75057520  0.64693559  1
  P  P239  1  0.95807209  0.75207350  0.89818584  1
  P  P240  1  0.20770420  0.08124874  0.22733783  1
  P  P241  1  0.20778496  0.08213846  0.47734793  1
  P  P242  1  0.20796294  0.08208489  0.72743279  1
  P  P243  1  0.20722188  0.08399416  0.97720748  1
  P  P244  1  0.20697026  0.41700243  0.22767316  1
  P  P245  1  0.20733521  0.41861254  0.47768248  1
  P  P246  1  0.20875086  0.41622538  0.72659066  1
  P  P247  1  0.20895549  0.41673073  0.97514824  1
  P  P248  1  0.20787811  0.75168600  0.22776439  1
  P  P249  1  0.20677675  0.75172831  0.47743232  1
  P  P250  1  0.20727030  0.74868594  0.72763681  1
  P  P251  1  0.20799804  0.75170418  0.97794550  1
  P  P252  1  0.70814504  0.08190626  0.22813767  1
  P  P253  1  0.70862072  0.08275558  0.47693246  1
  P  P254  1  0.70794155  0.08170585  0.72774957  1
  P  P255  1  0.70682022  0.08249344  0.97880756  1
  P  P256  1  0.70735803  0.41637726  0.22820122  1
  P  P257  1  0.70696059  0.41666814  0.47894040  1
  P  P258  1  0.70867574  0.41788829  0.72873797  1
  P  P259  1  0.70916669  0.41668542  0.97646781  1
  P  P260  1  0.70779415  0.75172654  0.22757329  1
  P  P261  1  0.70685889  0.75028172  0.47899330  1
  P  P262  1  0.70758423  0.74984212  0.73001425  1
  P  P263  1  0.70910362  0.75057625  0.97714421  1
  P  P264  1  0.29215435  0.24964213  0.02000003  1
  P  P265  1  0.29255079  0.24975467  0.27125618  1
  P  P266  1  0.29226426  0.25161205  0.52223427  1
  P  P267  1  0.29083327  0.24943217  0.77239220  1
  P  P268  1  0.29329907  0.58343861  0.02091001  1
  P  P269  1  0.29216066  0.58265032  0.27276841  1
  P  P270  1  0.29068490  0.58390354  0.52325963  1
  P  P271  1  0.29223019  0.58190712  0.77134328  1
  P  P272  1  0.29130180  0.91660107  0.02329682  1
  P  P273  1  0.29080534  0.91650461  0.27284912  1
  P  P274  1  0.29164356  0.91829492  0.52188329  1
  P  P275  1  0.29173346  0.91513407  0.77229265  1
  P  P276  1  0.79311942  0.25031413  0.02117110  1
  P  P277  1  0.79221990  0.24798576  0.27268997  1
  P  P278  1  0.79315231  0.24901580  0.52142509  1
  P  P279  1  0.79245993  0.25077191  0.77273444  1
  P  P280  1  0.79340485  0.58363446  0.02087866  1
  P  P281  1  0.79297515  0.58395844  0.27184590  1
  P  P282  1  0.79251066  0.58204343  0.52344781  1
  P  P283  1  0.79242084  0.58308438  0.77412710  1
  P  P284  1  0.79174505  0.91640770  0.02396594  1
  P  P285  1  0.79200863  0.91817481  0.27220012  1
  P  P286  1  0.79227575  0.91858749  0.52266743  1
  P  P287  1  0.79270526  0.91562153  0.77294998  1
  O  O288  1  0.03664704  0.24925756  0.18153841  1
  O  O289  1  0.03718212  0.24897541  0.43091730  1
  O  O290  1  0.03713427  0.24886734  0.68229101  1
  O  O291  1  0.03686913  0.25004938  0.93170619  1
  O  O292  1  0.03656853  0.58210318  0.18324459  1
  O  O293  1  0.03639242  0.58326400  0.43081601  1
  O  O294  1  0.03765200  0.58302591  0.68311251  1
  O  O295  1  0.03792188  0.58258283  0.93417177  1
  O  O296  1  0.03618633  0.91585387  0.18334009  1
  O  O297  1  0.03612423  0.91802294  0.43133472  1
  O  O298  1  0.03670372  0.91937331  0.68214136  1
  O  O299  1  0.03690961  0.91830561  0.93274148  1
  O  O300  1  0.53641506  0.25066314  0.18304499  1
  O  O301  1  0.53662470  0.25038775  0.43134457  1
  O  O302  1  0.53785445  0.24834322  0.68344877  1
  O  O303  1  0.53739891  0.24926741  0.93240439  1
  O  O304  1  0.53808994  0.58409891  0.18393303  1
  O  O305  1  0.53648945  0.58434221  0.43318362  1
  O  O306  1  0.53685513  0.58261479  0.68287464  1
  O  O307  1  0.53822287  0.58315675  0.93376957  1
  O  O308  1  0.53685343  0.91561972  0.18248004  1
  O  O309  1  0.53708606  0.91646199  0.43371440  1
  O  O310  1  0.53577483  0.91595940  0.68324796  1
  O  O311  1  0.53593518  0.91575288  0.93184104  1
  O  O312  1  0.46218179  0.08387611  0.06730550  1
  O  O313  1  0.46214850  0.08480169  0.31605186  1
  O  O314  1  0.46293913  0.08305043  0.56860701  1
  O  O315  1  0.46274954  0.08242732  0.81581663  1
  O  O316  1  0.46348849  0.41451380  0.06737987  1
  O  O317  1  0.46307436  0.41735932  0.31736963  1
  O  O318  1  0.46223530  0.41777260  0.56649121  1
  O  O319  1  0.46318177  0.41480196  0.81781924  1
  O  O320  1  0.46256603  0.74927509  0.06783761  1
  O  O321  1  0.46222903  0.75003423  0.31812852  1
  O  O322  1  0.46244400  0.75165356  0.56775312  1
  O  O323  1  0.46286871  0.75181245  0.81741191  1
  O  O324  1  0.96325362  0.08375601  0.06811562  1
  O  O325  1  0.96444885  0.08391219  0.31764840  1
  O  O326  1  0.96394039  0.08362351  0.56818434  1
  O  O327  1  0.96308665  0.08469353  0.81722642  1
  O  O328  1  0.96489339  0.41634886  0.06763834  1
  O  O329  1  0.96282243  0.41652832  0.31542029  1
  O  O330  1  0.96265929  0.41479446  0.56773305  1
  O  O331  1  0.96464895  0.41559357  0.81873073  1
  O  O332  1  0.96403136  0.75092657  0.06829523  1
  O  O333  1  0.96267584  0.74982877  0.31558631  1
  O  O334  1  0.96165540  0.75052042  0.56690454  1
  O  O335  1  0.96304262  0.75196987  0.81822152  1
  O  O336  1  0.21256223  0.08338546  0.05710894  1
  O  O337  1  0.21289861  0.08123408  0.30730172  1
  O  O338  1  0.21304386  0.08212182  0.55730776  1
  O  O339  1  0.21318061  0.08280213  0.80736620  1
  O  O340  1  0.21343251  0.41634421  0.05514897  1
  O  O341  1  0.21178835  0.41763358  0.30764060  1
  O  O342  1  0.21274802  0.41817921  0.55756532  1
  O  O343  1  0.21436439  0.41610161  0.80645352  1
  O  O344  1  0.21342598  0.75194188  0.05790993  1
  O  O345  1  0.21289494  0.75184328  0.30773417  1
  O  O346  1  0.21194060  0.75093937  0.55734915  1
  O  O347  1  0.21268859  0.74920848  0.80753998  1
  O  O348  1  0.71207482  0.08207726  0.05874712  1
  O  O349  1  0.71363256  0.08230483  0.30806232  1
  O  O350  1  0.71360093  0.08258109  0.55692862  1
  O  O351  1  0.71269134  0.08199286  0.80770852  1
  O  O352  1  0.71389062  0.41630992  0.05646771  1
  O  O353  1  0.71210499  0.41609042  0.30819908  1
  O  O354  1  0.71234079  0.41720667  0.55892228  1
  O  O355  1  0.71434597  0.41746867  0.80864370  1
  O  O356  1  0.71432926  0.75117568  0.05712499  1
  O  O357  1  0.71254029  0.75157925  0.30755748  1
  O  O358  1  0.71197222  0.75009758  0.55895838  1
  O  O359  1  0.71335534  0.74985273  0.80989185  1
  O  O360  1  0.28739994  0.24954646  0.19128197  1
  O  O361  1  0.28714682  0.25134848  0.44229449  1
  O  O362  1  0.28616422  0.25008221  0.69239183  1
  O  O363  1  0.28671207  0.24933957  0.94007780  1
  O  O364  1  0.28749016  0.58302631  0.19275749  1
  O  O365  1  0.28541785  0.58387739  0.44328517  1
  O  O366  1  0.28632313  0.58216277  0.69152377  1
  O  O367  1  0.28814662  0.58309875  0.94094361  1
  O  O368  1  0.28566359  0.91640620  0.19292176  1
  O  O369  1  0.28621222  0.91824540  0.44200125  1
  O  O370  1  0.28657170  0.91570046  0.69239532  1
  O  O371  1  0.28642973  0.91608019  0.94331927  1
  O  O372  1  0.78752935  0.24819341  0.19266409  1
  O  O373  1  0.78762224  0.24825377  0.44150748  1
  O  O374  1  0.78764623  0.25063588  0.69272620  1
  O  O375  1  0.78768389  0.25097123  0.94123987  1
  O  O376  1  0.78815599  0.58417430  0.19182342  1
  O  O377  1  0.78734950  0.58259381  0.44347441  1
  O  O378  1  0.78711809  0.58244540  0.69414729  1
  O  O379  1  0.78804932  0.58358845  0.94094284  1
  O  O380  1  0.78664874  0.91776201  0.19232593  1
  O  O381  1  0.78702064  0.91896784  0.44269837  1
  O  O382  1  0.78743873  0.91642266  0.69306742  1
  O  O383  1  0.78690324  0.91564556  0.94397507  1
  O  O384  1  0.22794410  0.24924265  0.05576764  1
  O  O385  1  0.22815352  0.24999836  0.30634136  1
  O  O386  1  0.22796113  0.25145816  0.55774311  1
  O  O387  1  0.22673578  0.24916174  0.80832402  1
  O  O388  1  0.22893981  0.58400742  0.05616573  1
  O  O389  1  0.22767929  0.58244054  0.30790267  1
  O  O390  1  0.22664456  0.58371257  0.55952084  1
  O  O391  1  0.22826016  0.58157396  0.80792983  1
  O  O392  1  0.22703795  0.91693603  0.05908489  1
  O  O393  1  0.22674363  0.91631700  0.30921949  1
  O  O394  1  0.22750790  0.91842666  0.55800372  1
  O  O395  1  0.22753537  0.91491594  0.80814808  1
  O  O396  1  0.72883470  0.24973253  0.05657231  1
  O  O397  1  0.72783832  0.24741683  0.30798967  1
  O  O398  1  0.72893114  0.24950196  0.55696683  1
  O  O399  1  0.72811005  0.25107006  0.80794182  1
  O  O400  1  0.72919946  0.58388390  0.05656327  1
  O  O401  1  0.72847280  0.58371347  0.30670501  1
  O  O402  1  0.72815031  0.58139458  0.55896015  1
  O  O403  1  0.72834903  0.58331965  0.81032561  1
  O  O404  1  0.72741706  0.91672192  0.05962683  1
  O  O405  1  0.72787466  0.91873010  0.30830937  1
  O  O406  1  0.72802865  0.91849593  0.55845678  1
  O  O407  1  0.72837403  0.91443367  0.80858211  1
  O  O408  1  0.27193442  0.08098133  0.19158870  1
  O  O409  1  0.27200703  0.08196799  0.44164643  1
  O  O410  1  0.27214012  0.08198698  0.69149525  1
  O  O411  1  0.27141641  0.08440267  0.94134528  1
  O  O412  1  0.27143905  0.41649224  0.19272082  1
  O  O413  1  0.27151583  0.41894726  0.44157757  1
  O  O414  1  0.27259817  0.41658127  0.68977141  1
  O  O415  1  0.27320607  0.41708905  0.93961029  1
  O  O416  1  0.27214345  0.75204879  0.19208548  1
  O  O417  1  0.27108262  0.75204137  0.44182837  1
  O  O418  1  0.27139854  0.74847445  0.69161010  1
  O  O419  1  0.27214589  0.75152332  0.94195028  1
  O  O420  1  0.77227700  0.08117410  0.19194920  1
  O  O421  1  0.77286584  0.08309283  0.44106613  1
  O  O422  1  0.77239687  0.08145006  0.69259341  1
  O  O423  1  0.77119312  0.08279709  0.94367529  1
  O  O424  1  0.77195173  0.41658315  0.19353741  1
  O  O425  1  0.77127338  0.41602748  0.44358928  1
  O  O426  1  0.77276735  0.41827873  0.69245974  1
  O  O427  1  0.77347740  0.41727132  0.94100076  1
  O  O428  1  0.77226886  0.75242101  0.19240414  1
  O  O429  1  0.77127781  0.75063838  0.44391362  1
  O  O430  1  0.77166638  0.74995660  0.69401454  1
  O  O431  1  0.77323092  0.75045180  0.94097607  1
  O  O432  1  0.02275873  0.08423528  0.18386595  1
  O  O433  1  0.02327737  0.08372983  0.43407248  1
  O  O434  1  0.02301233  0.08317415  0.68441408  1
  O  O435  1  0.02194213  0.08521912  0.93320717  1
  O  O436  1  0.02323158  0.41646111  0.18411548  1
  O  O437  1  0.02162003  0.41594450  0.43118020  1
  O  O438  1  0.02245997  0.41438438  0.68291085  1
  O  O439  1  0.02412837  0.41671248  0.93458623  1
  O  O440  1  0.02285844  0.74909379  0.18442935  1
  O  O441  1  0.02126758  0.75077772  0.43144045  1
  O  O442  1  0.02123805  0.75103887  0.68185758  1
  O  O443  1  0.02237530  0.75206812  0.93375721  1
  O  O444  1  0.52169684  0.08470306  0.18267352  1
  O  O445  1  0.52124567  0.08326628  0.43131529  1
  O  O446  1  0.52248573  0.08307895  0.68435679  1
  O  O447  1  0.52121743  0.08252528  0.93166614  1
  O  O448  1  0.52197288  0.41524625  0.18332571  1
  O  O449  1  0.52188983  0.41876919  0.43325200  1
  O  O450  1  0.52141041  0.41633786  0.68165973  1
  O  O451  1  0.52273339  0.41414609  0.93320971  1
  O  O452  1  0.52163377  0.74811414  0.18348752  1
  O  O453  1  0.52111252  0.75179103  0.43389679  1
  O  O454  1  0.52149398  0.75186070  0.68344448  1
  O  O455  1  0.52201531  0.75176231  0.93310797  1
  O  O456  1  0.47821922  0.25135440  0.06666488  1
  O  O457  1  0.47719255  0.25086513  0.31554811  1
  O  O458  1  0.47861967  0.24998505  0.56839540  1
  O  O459  1  0.47823207  0.24761818  0.81680522  1
  O  O460  1  0.47916839  0.58286711  0.06856385  1
  O  O461  1  0.47774832  0.58491405  0.31725787  1
  O  O462  1  0.47753727  0.58241587  0.56743452  1
  O  O463  1  0.47859964  0.58353231  0.81888760  1
  O  O464  1  0.47722538  0.91470906  0.06732494  1
  O  O465  1  0.47812394  0.91678955  0.31838464  1
  O  O466  1  0.47734630  0.91509958  0.56696877  1
  O  O467  1  0.47696004  0.91661168  0.81575374  1
  O  O468  1  0.97766391  0.24900013  0.06531939  1
  O  O469  1  0.97777058  0.24888775  0.31492784  1
  O  O470  1  0.97832739  0.24760244  0.56625967  1
  O  O471  1  0.97730552  0.25099837  0.81571649  1
  O  O472  1  0.97868224  0.58178098  0.06676519  1
  O  O473  1  0.97742076  0.58342459  0.31475574  1
  O  O474  1  0.97801710  0.58295084  0.56811864  1
  O  O475  1  0.97868248  0.58293927  0.81882189  1
  O  O476  1  0.97751638  0.91584292  0.06723301  1
  O  O477  1  0.97658806  0.91754238  0.31556681  1
  O  O478  1  0.97754042  0.91941155  0.56645629  1
  O  O479  1  0.97791520  0.91976624  0.81704276  1
  O  O480  1  0.07235455  0.31291263  0.07301608  1
  O  O481  1  0.07203785  0.31330822  0.32251853  1
  O  O482  1  0.07325830  0.31190726  0.57380372  1
  O  O483  1  0.07285868  0.31359197  0.82333501  1
  O  O484  1  0.07389991  0.64561636  0.07574736  1
  O  O485  1  0.07251441  0.64701617  0.32293993  1
  O  O486  1  0.07341375  0.64645026  0.57477137  1
  O  O487  1  0.07360574  0.64716270  0.82653027  1
  O  O488  1  0.07287978  0.97930989  0.07552614  1
  O  O489  1  0.07181575  0.98090406  0.32263128  1
  O  O490  1  0.07308092  0.98212695  0.57323242  1
  O  O491  1  0.07328593  0.98240125  0.82468569  1
  O  O492  1  0.57368749  0.31386998  0.07448250  1
  O  O493  1  0.57249870  0.31415821  0.32360274  1
  O  O494  1  0.57427270  0.31286436  0.57586455  1
  O  O495  1  0.57345119  0.31197774  0.82409722  1
  O  O496  1  0.57459689  0.64657579  0.07520563  1
  O  O497  1  0.57228471  0.64898470  0.32512968  1
  O  O498  1  0.57305624  0.64612549  0.57550178  1
  O  O499  1  0.57405879  0.64680519  0.82574579  1
  O  O500  1  0.57236779  0.97896766  0.07445335  1
  O  O501  1  0.57348520  0.98017310  0.32558624  1
  O  O502  1  0.57239888  0.97924842  0.57528514  1
  O  O503  1  0.57221800  0.97969044  0.82387003  1
  O  O504  1  0.42643769  0.02066275  0.17523478  1
  O  O505  1  0.42549568  0.02070989  0.42389049  1
  O  O506  1  0.42753563  0.01918473  0.67655948  1
  O  O507  1  0.42566406  0.01939812  0.92416490  1
  O  O508  1  0.42675545  0.35180033  0.17616048  1
  O  O509  1  0.42667285  0.35455847  0.42547857  1
  O  O510  1  0.42594738  0.35319686  0.67406234  1
  O  O511  1  0.42754097  0.35087083  0.92586696  1
  O  O512  1  0.42649859  0.68515618  0.17623138  1
  O  O513  1  0.42558231  0.68801105  0.42656149  1
  O  O514  1  0.42668182  0.68745792  0.67534593  1
  O  O515  1  0.42688160  0.68761366  0.92483448  1
  O  O516  1  0.92850879  0.01959309  0.17652280  1
  O  O517  1  0.92829153  0.02022976  0.42594153  1
  O  O518  1  0.92767629  0.02029423  0.67675082  1
  O  O519  1  0.92644856  0.02192373  0.92562700  1
  O  O520  1  0.92874441  0.35213391  0.17563562  1
  O  O521  1  0.92624502  0.35262092  0.42336821  1
  O  O522  1  0.92731388  0.35101280  0.67623920  1
  O  O523  1  0.92938637  0.35259314  0.92750705  1
  O  O524  1  0.92731104  0.68641147  0.17537958  1
  O  O525  1  0.92609882  0.68680646  0.42409413  1
  O  O526  1  0.92612652  0.68699925  0.67546032  1
  O  O527  1  0.92707539  0.68839724  0.92591750  1
  O  O528  1  0.17659434  0.01804542  0.19855191  1
  O  O529  1  0.17659597  0.01906546  0.44842550  1
  O  O530  1  0.17750704  0.01819394  0.69932978  1
  O  O531  1  0.17605478  0.02041009  0.94934661  1
  O  O532  1  0.17590269  0.35340111  0.19951853  1
  O  O533  1  0.17624178  0.35499952  0.44944806  1
  O  O534  1  0.17813149  0.35233925  0.69819320  1
  O  O535  1  0.17860442  0.35282426  0.94658853  1
  O  O536  1  0.17736267  0.68763546  0.20000901  1
  O  O537  1  0.17559301  0.68833985  0.44904599  1
  O  O538  1  0.17656468  0.68497462  0.69937319  1
  O  O539  1  0.17678287  0.68798048  0.95044006  1
  O  O540  1  0.67673685  0.01869401  0.19960605  1
  O  O541  1  0.67771104  0.01924870  0.44852195  1
  O  O542  1  0.67726025  0.01811478  0.69929681  1
  O  O543  1  0.67566283  0.01915006  0.95036935  1
  O  O544  1  0.67664216  0.35276830  0.19982258  1
  O  O545  1  0.67570128  0.35302836  0.45119465  1
  O  O546  1  0.67745340  0.35440847  0.70051705  1
  O  O547  1  0.67890368  0.35278123  0.94790305  1
  O  O548  1  0.67732037  0.68792153  0.19933445  1
  O  O549  1  0.67606826  0.68670147  0.45066174  1
  O  O550  1  0.67633823  0.68632860  0.70183536  1
  O  O551  1  0.67839491  0.68661860  0.94944385  1
  O  O552  1  0.32299075  0.31332895  0.04825250  1
  O  O553  1  0.32373528  0.31315664  0.29930645  1
  O  O554  1  0.32286175  0.31522561  0.55066775  1
  O  O555  1  0.32160912  0.31310356  0.80104036  1
  O  O556  1  0.32449404  0.64691709  0.04909510  1
  O  O557  1  0.32293167  0.64639112  0.30086488  1
  O  O558  1  0.32117449  0.64796406  0.55124692  1
  O  O559  1  0.32344388  0.64545030  0.79940805  1
  O  O560  1  0.32195541  0.98058942  0.05114177  1
  O  O561  1  0.32159435  0.98028049  0.30109318  1
  O  O562  1  0.32266875  0.98158765  0.55086366  1
  O  O563  1  0.32298369  0.97851972  0.80048253  1
  O  O564  1  0.82429194  0.31349414  0.04991347  1
  O  O565  1  0.82286949  0.31182437  0.30052054  1
  O  O566  1  0.82445134  0.31262567  0.54899716  1
  O  O567  1  0.82320341  0.31439595  0.80121646  1
  O  O568  1  0.82479238  0.64699097  0.04911881  1
  O  O569  1  0.82365628  0.64756259  0.30024489  1
  O  O570  1  0.82324385  0.64581091  0.55155633  1
  O  O571  1  0.82319090  0.64707804  0.80170684  1
  O  O572  1  0.82244882  0.98036008  0.05173019  1
  O  O573  1  0.82328372  0.98144851  0.30081973  1
  O  O574  1  0.82310786  0.98193640  0.55157422  1
  O  O575  1  0.82327249  0.97934168  0.80143764  1
  O  O576  1  0.42665715  0.14802678  0.17542342  1
  O  O577  1  0.42607400  0.14745563  0.42487762  1
  O  O578  1  0.42747516  0.14672473  0.67674417  1
  O  O579  1  0.42595581  0.14604329  0.92396034  1
  O  O580  1  0.42667586  0.47878911  0.17461929  1
  O  O581  1  0.42689476  0.48180690  0.42536534  1
  O  O582  1  0.42597357  0.48001665  0.67544698  1
  O  O583  1  0.42760645  0.47824439  0.92573622  1
  O  O584  1  0.42635457  0.81226646  0.17585255  1
  O  O585  1  0.42624939  0.81511039  0.42585377  1
  O  O586  1  0.42591916  0.81459964  0.67633786  1
  O  O587  1  0.42679811  0.81476009  0.92638836  1
  O  O588  1  0.92711286  0.14685498  0.17643695  1
  O  O589  1  0.92847600  0.14732122  0.42620043  1
  O  O590  1  0.92852843  0.14736484  0.67683376  1
  O  O591  1  0.92708371  0.14879238  0.92561780  1
  O  O592  1  0.92787238  0.47942121  0.17581817  1
  O  O593  1  0.92628604  0.47941772  0.42408102  1
  O  O594  1  0.92721903  0.47817012  0.67605962  1
  O  O595  1  0.92897226  0.47987996  0.92667064  1
  O  O596  1  0.92854685  0.81380150  0.17717193  1
  O  O597  1  0.92565889  0.81358930  0.42357193  1
  O  O598  1  0.92557992  0.81409071  0.67475982  1
  O  O599  1  0.92749156  0.81567740  0.92669894  1
  O  O600  1  0.07277301  0.18573281  0.07313706  1
  O  O601  1  0.07332849  0.18601183  0.32260494  1
  O  O602  1  0.07373691  0.18505664  0.57391723  1
  O  O603  1  0.07156458  0.18648338  0.82273991  1
  O  O604  1  0.07382806  0.51866068  0.07488297  1
  O  O605  1  0.07220684  0.51952374  0.32287052  1
  O  O606  1  0.07325444  0.51934674  0.57493611  1
  O  O607  1  0.07446125  0.52016147  0.82543870  1
  O  O608  1  0.07241208  0.85234042  0.07469762  1
  O  O609  1  0.07116846  0.85359883  0.32324425  1
  O  O610  1  0.07239813  0.85509479  0.57448326  1
  O  O611  1  0.07291549  0.85533483  0.82438308  1
  O  O612  1  0.57307208  0.18693748  0.07526063  1
  O  O613  1  0.57170264  0.18655608  0.32294958  1
  O  O614  1  0.57397539  0.18600388  0.57456235  1
  O  O615  1  0.57349065  0.18483407  0.82442291  1
  O  O616  1  0.57464073  0.51972038  0.07638735  1
  O  O617  1  0.57358342  0.52185758  0.32506668  1
  O  O618  1  0.57243397  0.51887332  0.57422606  1
  O  O619  1  0.57385701  0.51968719  0.82566670  1
  O  O620  1  0.57250822  0.85173384  0.07411782  1
  O  O621  1  0.57368411  0.85338889  0.32553868  1
  O  O622  1  0.57261734  0.85220266  0.57496324  1
  O  O623  1  0.57178801  0.85245802  0.82350091  1
  O  O624  1  0.32380070  0.18661901  0.04859193  1
  O  O625  1  0.32331681  0.18617343  0.29943513  1
  O  O626  1  0.32341743  0.18800030  0.55000350  1
  O  O627  1  0.32164331  0.18566534  0.80028798  1
  O  O628  1  0.32414004  0.51997373  0.04936407  1
  O  O629  1  0.32276950  0.51917022  0.30137042  1
  O  O630  1  0.32196874  0.52054991  0.55133835  1
  O  O631  1  0.32340776  0.51850128  0.79973867  1
  O  O632  1  0.32216426  0.85330500  0.05218522  1
  O  O633  1  0.32187532  0.85309845  0.30148259  1
  O  O634  1  0.32270199  0.85467518  0.54988145  1
  O  O635  1  0.32223153  0.85140210  0.80066385  1
  O  O636  1  0.82423493  0.18666714  0.04885863  1
  O  O637  1  0.82317142  0.18455044  0.30106208  1
  O  O638  1  0.82427485  0.18582200  0.55019888  1
  O  O639  1  0.82331625  0.18706556  0.80050081  1
  O  O640  1  0.82438360  0.52017096  0.04936882  1
  O  O641  1  0.82396061  0.52040757  0.29977273  1
  O  O642  1  0.82348794  0.51856003  0.55162132  1
  O  O643  1  0.82360799  0.51974278  0.80252567  1
  O  O644  1  0.82256594  0.85303253  0.05283379  1
  O  O645  1  0.82287581  0.85460705  0.30059173  1
  O  O646  1  0.82323788  0.85475414  0.55011210  1
  O  O647  1  0.82400646  0.85236520  0.80129286  1
  O  O648  1  0.17694099  0.14508449  0.19954170  1
  O  O649  1  0.17708395  0.14614378  0.44970640  1
  O  O650  1  0.17662221  0.14535831  0.69918948  1
  O  O651  1  0.17636142  0.14743282  0.94861467  1
  O  O652  1  0.17616814  0.48027825  0.19872613  1
  O  O653  1  0.17648349  0.48206912  0.44898858  1
  O  O654  1  0.17727091  0.47957794  0.69856313  1
  O  O655  1  0.17799293  0.48035764  0.94734253  1
  O  O656  1  0.17664053  0.81476286  0.19897662  1
  O  O657  1  0.17610660  0.81541121  0.44920768  1
  O  O658  1  0.17595923  0.81206611  0.69953706  1
  O  O659  1  0.17720873  0.81508429  0.94916597  1
  O  O660  1  0.67732609  0.14557668  0.19993281  1
  O  O661  1  0.67781013  0.14649106  0.44870391  1
  O  O662  1  0.67713993  0.14536260  0.69969139  1
  O  O663  1  0.67577713  0.14603484  0.95078251  1
  O  O664  1  0.67643429  0.47986438  0.20004237  1
  O  O665  1  0.67596872  0.47991318  0.45028714  1
  O  O666  1  0.67769045  0.48141967  0.70041541  1
  O  O667  1  0.67794797  0.48024927  0.94877911  1
  O  O668  1  0.67672715  0.81504553  0.19903012  1
  O  O669  1  0.67580663  0.81378455  0.45102944  1
  O  O670  1  0.67615401  0.81300488  0.70158552  1
  O  O671  1  0.67814428  0.81404667  0.94874755  1
