# generated using pymatgen
data_Na2MnFe(PO4)2
_symmetry_space_group_name_H-M   'P 1'
_cell_length_a   22.34214443
_cell_length_b   20.09358745
_cell_length_c   19.45013444
_cell_angle_alpha   89.94472445
_cell_angle_beta   89.98401236
_cell_angle_gamma   90.01206794
_symmetry_Int_Tables_number   1
_chemical_formula_structural   Na2MnFe(PO4)2
_chemical_formula_sum   'Na96 Mn48 Fe48 P96 O384'
_cell_volume   8731.81880703
_cell_formula_units_Z   48
loop_
 _symmetry_equiv_pos_site_id
 _symmetry_equiv_pos_as_xyz
  1  'x, y, z'
loop_
 _atom_site_type_symbol
 _atom_site_label
 _atom_site_symmetry_multiplicity
 _atom_site_fract_x
 _atom_site_fract_y
 _atom_site_fract_z
 _atom_site_occupancy
  Na  Na0  1  0.14011015  0.25091316  0.24299321  1
  Na  Na1  1  0.14026538  0.24943219  0.49513896  1
  Na  Na2  1  0.14021034  0.24990490  0.74346776  1
  Na  Na3  1  0.14024632  0.24948421  0.99147524  1
  Na  Na4  1  0.13973303  0.58343619  0.24342939  1
  Na  Na5  1  0.13910341  0.58263297  0.49380501  1
  Na  Na6  1  0.13986745  0.58275670  0.74361556  1
  Na  Na7  1  0.14006552  0.58240418  0.99405075  1
  Na  Na8  1  0.14032925  0.91465577  0.24414005  1
  Na  Na9  1  0.14010994  0.91583547  0.49442249  1
  Na  Na10  1  0.14049003  0.91774147  0.74278105  1
  Na  Na11  1  0.14075383  0.91659101  0.99358896  1
  Na  Na12  1  0.64068908  0.25039821  0.24222025  1
  Na  Na13  1  0.64040138  0.25069599  0.49291178  1
  Na  Na14  1  0.64097127  0.24907648  0.74350961  1
  Na  Na15  1  0.64109400  0.25095090  0.99521744  1
  Na  Na16  1  0.64039009  0.58377919  0.24360370  1
  Na  Na17  1  0.63992471  0.58499009  0.49261059  1
  Na  Na18  1  0.64026206  0.58360903  0.74473310  1
  Na  Na19  1  0.64079613  0.58441075  0.99433978  1
  Na  Na20  1  0.64097028  0.91697884  0.24274852  1
  Na  Na21  1  0.64057085  0.91751620  0.49432086  1
  Na  Na22  1  0.64093918  0.91651744  0.74427549  1
  Na  Na23  1  0.64113228  0.91745684  0.99363265  1
  Na  Na24  1  0.36000036  0.08330494  0.00472348  1
  Na  Na25  1  0.35977868  0.08369795  0.25562106  1
  Na  Na26  1  0.35932616  0.08221099  0.50678705  1
  Na  Na27  1  0.35959272  0.08350718  0.75627585  1
  Na  Na28  1  0.35893264  0.41726819  0.00554236  1
  Na  Na29  1  0.35951031  0.41771868  0.25627415  1
  Na  Na30  1  0.36008048  0.41581269  0.50640520  1
  Na  Na31  1  0.35925164  0.41609949  0.75537894  1
  Na  Na32  1  0.35973782  0.74871750  0.00688295  1
  Na  Na33  1  0.36080417  0.74917140  0.25685461  1
  Na  Na34  1  0.35951499  0.74869690  0.50607025  1
  Na  Na35  1  0.35893326  0.75025689  0.75574106  1
  Na  Na36  1  0.85984165  0.08433281  0.00711461  1
  Na  Na37  1  0.85966206  0.08261782  0.25548258  1
  Na  Na38  1  0.85961221  0.08356631  0.50695813  1
  Na  Na39  1  0.85970503  0.08313535  0.75636208  1
  Na  Na40  1  0.85943300  0.41659974  0.00660560  1
  Na  Na41  1  0.86035694  0.41673123  0.25652087  1
  Na  Na42  1  0.85961908  0.41840812  0.50681244  1
  Na  Na43  1  0.85924675  0.41682738  0.75712666  1
  Na  Na44  1  0.85988920  0.74943622  0.00700725  1
  Na  Na45  1  0.86003328  0.74983626  0.25705906  1
  Na  Na46  1  0.85935275  0.75097152  0.50649463  1
  Na  Na47  1  0.85906489  0.74919813  0.75740327  1
  Na  Na48  1  0.10975877  0.08291381  0.11809649  1
  Na  Na49  1  0.10938704  0.08223099  0.36976465  1
  Na  Na50  1  0.11017629  0.08376659  0.61907784  1
  Na  Na51  1  0.10992851  0.08349348  0.86706703  1
  Na  Na52  1  0.10961954  0.41689995  0.11814284  1
  Na  Na53  1  0.10884749  0.41783234  0.36881911  1
  Na  Na54  1  0.10901460  0.41781260  0.61989973  1
  Na  Na55  1  0.10951207  0.41580305  0.86724139  1
  Na  Na56  1  0.10988268  0.74882324  0.12006526  1
  Na  Na57  1  0.10925818  0.74783361  0.36884769  1
  Na  Na58  1  0.10869888  0.75037072  0.61830819  1
  Na  Na59  1  0.10926966  0.74847805  0.86903508  1
  Na  Na60  1  0.61017330  0.08428780  0.11842605  1
  Na  Na61  1  0.60957299  0.08384637  0.36825502  1
  Na  Na62  1  0.61050128  0.08349740  0.61856487  1
  Na  Na63  1  0.61086990  0.08325509  0.86868957  1
  Na  Na64  1  0.61032699  0.41757839  0.11909939  1
  Na  Na65  1  0.60972220  0.41741106  0.36815080  1
  Na  Na66  1  0.60938564  0.41784946  0.61788167  1
  Na  Na67  1  0.61006073  0.41756818  0.86987759  1
  Na  Na68  1  0.61015595  0.75183317  0.11864038  1
  Na  Na69  1  0.60961120  0.75021932  0.36850162  1
  Na  Na70  1  0.60990687  0.74942159  0.61881205  1
  Na  Na71  1  0.61016193  0.75038806  0.86884366  1
  Na  Na72  1  0.39038821  0.25032562  0.13047157  1
  Na  Na73  1  0.39070527  0.25057571  0.38044258  1
  Na  Na74  1  0.39063746  0.24961372  0.63141561  1
  Na  Na75  1  0.39004872  0.24928614  0.88116441  1
  Na  Na76  1  0.39011018  0.58431565  0.13214395  1
  Na  Na77  1  0.39045287  0.58307585  0.38139109  1
  Na  Na78  1  0.38997308  0.58259911  0.62995811  1
  Na  Na79  1  0.38947740  0.58328078  0.88176331  1
  Na  Na80  1  0.39112788  0.91740250  0.13058470  1
  Na  Na81  1  0.39072792  0.91526271  0.38085324  1
  Na  Na82  1  0.38976392  0.91664373  0.63166148  1
  Na  Na83  1  0.39021690  0.91691145  0.88039497  1
  Na  Na84  1  0.89044671  0.25026880  0.13178824  1
  Na  Na85  1  0.89059039  0.25080561  0.38102251  1
  Na  Na86  1  0.89017901  0.25052309  0.63238788  1
  Na  Na87  1  0.89011151  0.24936179  0.88123112  1
  Na  Na88  1  0.89062247  0.58299986  0.13222913  1
  Na  Na89  1  0.89003609  0.58299259  0.38130665  1
  Na  Na90  1  0.88963068  0.58446821  0.63191042  1
  Na  Na91  1  0.88965391  0.58233743  0.88193749  1
  Na  Na92  1  0.89041048  0.91560433  0.13190569  1
  Na  Na93  1  0.89033795  0.91504136  0.38108232  1
  Na  Na94  1  0.89026050  0.91823506  0.63183974  1
  Na  Na95  1  0.89061341  0.91554232  0.88210798  1
  Mn  Mn96  1  0.49931584  0.50119615  0.00058441  1
  Mn  Mn97  1  0.50109273  0.16629791  0.00013755  1
  Mn  Mn98  1  0.74986719  0.33315632  0.87576434  1
  Mn  Mn99  1  -0.00007418  0.16676378  0.25027946  1
  Mn  Mn100  1  -0.00000150  0.33464395  0.50101343  1
  Mn  Mn101  1  0.50012775  0.83387769  -0.00023273  1
  Mn  Mn102  1  0.49988420  0.66652037  0.74952558  1
  Mn  Mn103  1  0.75025323  0.66695510  0.12506982  1
  Mn  Mn104  1  0.50019243  0.33367572  0.00014647  1
  Mn  Mn105  1  0.75086210  0.33439071  0.37465605  1
  Mn  Mn106  1  0.50035131  0.83231529  0.50047708  1
  Mn  Mn107  1  0.24963794  0.33332686  0.37505202  1
  Mn  Mn108  1  -0.00061406  0.49979483  0.00010931  1
  Mn  Mn109  1  0.24916374  0.50062889  0.37506215  1
  Mn  Mn110  1  0.24968352  0.16664319  0.12386916  1
  Mn  Mn111  1  0.25033599  0.83176547  0.37479760  1
  Mn  Mn112  1  0.50037099  0.00037945  0.24996812  1
  Mn  Mn113  1  0.00005615  0.00038298  0.75076382  1
  Mn  Mn114  1  0.74996113  0.16683127  0.37443184  1
  Mn  Mn115  1  0.50122914  0.16591022  0.75007996  1
  Mn  Mn116  1  0.74990665  0.66742966  0.37453217  1
  Mn  Mn117  1  0.24990511  -0.00016778  0.12437503  1
  Mn  Mn118  1  0.49946062  0.83367145  0.74985860  1
  Mn  Mn119  1  0.00048413  0.83164121  0.00092446  1
  Mn  Mn120  1  -0.00045111  0.83296760  0.49997009  1
  Mn  Mn121  1  0.24984753  0.33294197  0.62545144  1
  Mn  Mn122  1  0.25040749  0.33419473  0.12357215  1
  Mn  Mn123  1  0.49989362  0.33357174  0.74957737  1
  Mn  Mn124  1  0.49986359  0.50049180  0.74949079  1
  Mn  Mn125  1  0.74938567  0.50140734  0.62597043  1
  Mn  Mn126  1  0.00073512  -0.00026483  0.00019209  1
  Mn  Mn127  1  0.24952757  0.16631297  0.37497982  1
  Mn  Mn128  1  0.75062850  0.00009466  0.87543462  1
  Mn  Mn129  1  -0.00055369  0.66633921  0.74979120  1
  Mn  Mn130  1  0.00024433  0.16669577  0.50026556  1
  Mn  Mn131  1  0.50012527  0.50057680  0.25017332  1
  Mn  Mn132  1  -0.00044779  0.33240323  -0.00070370  1
  Mn  Mn133  1  0.49989497  -0.00039841  0.49910148  1
  Mn  Mn134  1  -0.00007096  -0.00124153  0.24955541  1
  Mn  Mn135  1  0.74971508  -0.00019280  0.37491396  1
  Mn  Mn136  1  0.49957368  0.16743500  0.49935572  1
  Mn  Mn137  1  0.25133341  0.83208992  0.12458648  1
  Mn  Mn138  1  0.74992890  0.83340947  0.62556813  1
  Mn  Mn139  1  0.24952740  0.66569212  0.87491055  1
  Mn  Mn140  1  0.24938079  0.83373590  0.87534885  1
  Mn  Mn141  1  0.24921863  0.66589034  0.62566095  1
  Mn  Mn142  1  0.24980460  -0.00090179  0.37565187  1
  Mn  Mn143  1  0.74920564  0.33314319  0.62568906  1
  Fe  Fe144  1  0.50063203  0.83341406  0.24960783  1
  Fe  Fe145  1  0.75057386  0.83337352  0.87507616  1
  Fe  Fe146  1  0.50025687  0.66766030  0.00049664  1
  Fe  Fe147  1  0.50049897  0.00042435  0.00029971  1
  Fe  Fe148  1  0.74956087  0.66702850  0.62556313  1
  Fe  Fe149  1  -0.00030346  0.83320899  0.74993157  1
  Fe  Fe150  1  0.50008863  0.50005513  0.49901558  1
  Fe  Fe151  1  0.25003625  -0.00022536  0.62525531  1
  Fe  Fe152  1  -0.00033958  0.66617651  0.00067024  1
  Fe  Fe153  1  0.24998312  0.16644234  0.87405475  1
  Fe  Fe154  1  0.25050850  0.16642967  0.62547707  1
  Fe  Fe155  1  0.25038057  0.00022839  0.87368266  1
  Fe  Fe156  1  0.24926446  0.83292476  0.62519198  1
  Fe  Fe157  1  0.00026182  0.16681100  -0.00039036  1
  Fe  Fe158  1  0.24989707  0.66594160  0.37531236  1
  Fe  Fe159  1  0.75035841  0.16668936  0.87583584  1
  Fe  Fe160  1  0.75031005  0.16643528  0.62486573  1
  Fe  Fe161  1  0.49994004  0.16724260  0.24962872  1
  Fe  Fe162  1  0.75054844  0.16719753  0.12512791  1
  Fe  Fe163  1  0.75040099  0.00015209  0.62523017  1
  Fe  Fe164  1  0.00065242  0.33333316  0.25021914  1
  Fe  Fe165  1  0.49926745  0.66647842  0.49916886  1
  Fe  Fe166  1  0.25012283  0.49988484  0.87503973  1
  Fe  Fe167  1  0.24965641  0.49998863  0.12462578  1
  Fe  Fe168  1  0.75043178  0.83349410  0.12487620  1
  Fe  Fe169  1  0.50061010  0.66724242  0.25028627  1
  Fe  Fe170  1  -0.00049045  0.50037175  0.74999906  1
  Fe  Fe171  1  0.25025515  0.66575070  0.12517112  1
  Fe  Fe172  1  0.00047835  0.83194741  0.25082126  1
  Fe  Fe173  1  0.75002294  0.83402964  0.37516257  1
  Fe  Fe174  1  -0.00067351  0.33349680  0.74985399  1
  Fe  Fe175  1  -0.00012728  0.66592017  0.25048104  1
  Fe  Fe176  1  -0.00007654  0.50005027  0.25023311  1
  Fe  Fe177  1  0.74943041  0.50021967  0.87574229  1
  Fe  Fe178  1  -0.00115682  0.50036129  0.49990524  1
  Fe  Fe179  1  0.75057504  0.33427124  0.12492141  1
  Fe  Fe180  1  0.24951046  0.49953671  0.62498477  1
  Fe  Fe181  1  -0.00094838  0.66596166  0.49959853  1
  Fe  Fe182  1  0.75031034  0.66671250  0.87598624  1
  Fe  Fe183  1  -0.00048578  0.16680198  0.74975267  1
  Fe  Fe184  1  0.50060152  -0.00004042  0.74994080  1
  Fe  Fe185  1  0.75059868  -0.00004022  0.12440610  1
  Fe  Fe186  1  -0.00038052  -0.00023629  0.50033807  1
  Fe  Fe187  1  0.74980874  0.50041055  0.37466064  1
  Fe  Fe188  1  0.50005777  0.33400139  0.25006002  1
  Fe  Fe189  1  0.24976921  0.33360884  0.87414064  1
  Fe  Fe190  1  0.50065036  0.33332523  0.49933963  1
  Fe  Fe191  1  0.75068224  0.50026399  0.12497914  1
  P  P192  1  0.04264594  0.24896272  0.10228227  1
  P  P193  1  0.04248012  0.25134473  0.35276889  1
  P  P194  1  0.04207510  0.25063207  0.60446355  1
  P  P195  1  0.04101138  0.24950988  0.85129066  1
  P  P196  1  0.04167939  0.58422231  0.10335971  1
  P  P197  1  0.04089753  0.58294708  0.35237273  1
  P  P198  1  0.04041931  0.58326294  0.60177474  1
  P  P199  1  0.04185658  0.58194454  0.85259891  1
  P  P200  1  0.04322120  0.91532015  0.10380932  1
  P  P201  1  0.04217818  0.91464912  0.35293158  1
  P  P202  1  0.04165289  0.91769078  0.60289002  1
  P  P203  1  0.04229617  0.91477475  0.85244679  1
  P  P204  1  0.54285749  0.25044203  0.10427410  1
  P  P205  1  0.54186350  0.25078700  0.35128024  1
  P  P206  1  0.54273712  0.25114438  0.60194379  1
  P  P207  1  0.54335001  0.25004567  0.85306765  1
  P  P208  1  0.54230355  0.58583782  0.10323558  1
  P  P209  1  0.54204950  0.58467405  0.35294755  1
  P  P210  1  0.54127938  0.58358493  0.60057745  1
  P  P211  1  0.54238029  0.58408582  0.85377635  1
  P  P212  1  0.54273263  0.91807159  0.10252033  1
  P  P213  1  0.54274467  0.91519192  0.35201772  1
  P  P214  1  0.54278102  0.91693283  0.60341841  1
  P  P215  1  0.54248899  0.91810803  0.85269755  1
  P  P216  1  0.45810712  0.08462346  0.14721763  1
  P  P217  1  0.45704329  0.08390636  0.39597793  1
  P  P218  1  0.45812607  0.08219294  0.64749029  1
  P  P219  1  0.45868360  0.08157050  0.89703495  1
  P  P220  1  0.45774172  0.41636256  0.14788248  1
  P  P221  1  0.45885918  0.41624555  0.39775065  1
  P  P222  1  0.45744828  0.41697365  0.64530458  1
  P  P223  1  0.45690271  0.41716053  0.89689985  1
  P  P224  1  0.45912222  0.75030945  0.14809395  1
  P  P225  1  0.45786171  0.74874747  0.39660105  1
  P  P226  1  0.45666130  0.74955995  0.64630768  1
  P  P227  1  0.45733471  0.74935529  0.89767256  1
  P  P228  1  0.95758992  0.08343221  0.14635060  1
  P  P229  1  0.95758173  0.08181492  0.39772259  1
  P  P230  1  0.95785843  0.08437671  0.64752869  1
  P  P231  1  0.95816220  0.08459895  0.89744591  1
  P  P232  1  0.95905268  0.41632928  0.14870323  1
  P  P233  1  0.95759267  0.41807864  0.39715961  1
  P  P234  1  0.95775241  0.41778174  0.64850389  1
  P  P235  1  0.95714168  0.41622016  0.89592276  1
  P  P236  1  0.95848558  0.74895124  0.14887019  1
  P  P237  1  0.95756585  0.74797458  0.39702591  1
  P  P238  1  0.95708046  0.75132402  0.64756059  1
  P  P239  1  0.95768178  0.74805388  0.89777455  1
  P  P240  1  0.20674448  0.08311980  0.22774294  1
  P  P241  1  0.20727604  0.08274210  0.47949062  1
  P  P242  1  0.20883952  0.08347870  0.72707824  1
  P  P243  1  0.20853894  0.08279025  0.97535845  1
  P  P244  1  0.20746894  0.41807593  0.22687203  1
  P  P245  1  0.20685168  0.41658714  0.47866383  1
  P  P246  1  0.20779505  0.41763379  0.72833469  1
  P  P247  1  0.20801108  0.41687229  0.97613594  1
  P  P248  1  0.20858045  0.74773767  0.22775456  1
  P  P249  1  0.20736678  0.74812018  0.47795846  1
  P  P250  1  0.20680453  0.75105995  0.72751653  1
  P  P251  1  0.20732658  0.74880082  0.97863788  1
  P  P252  1  0.70892802  0.08300459  0.22589501  1
  P  P253  1  0.70748375  0.08366400  0.47862016  1
  P  P254  1  0.70896587  0.08324751  0.72696036  1
  P  P255  1  0.70876135  0.08469952  0.97865672  1
  P  P256  1  0.70912651  0.41744657  0.22675152  1
  P  P257  1  0.70779843  0.41861178  0.47730584  1
  P  P258  1  0.70687584  0.41701827  0.72912974  1
  P  P259  1  0.70808210  0.41814767  0.97875756  1
  P  P260  1  0.70832542  0.75162961  0.22762824  1
  P  P261  1  0.70768385  0.75189212  0.47754594  1
  P  P262  1  0.70774332  0.74864840  0.72859509  1
  P  P263  1  0.70923655  0.75083977  0.97708044  1
  P  P264  1  0.29241753  0.25008521  0.01981033  1
  P  P265  1  0.29267353  0.25035185  0.27146286  1
  P  P266  1  0.29249177  0.24855938  0.52293043  1
  P  P267  1  0.29124451  0.24992402  0.77286965  1
  P  P268  1  0.29153472  0.58256443  0.02310541  1
  P  P269  1  0.29214151  0.58461573  0.27197659  1
  P  P270  1  0.29146999  0.58201154  0.52243267  1
  P  P271  1  0.29194764  0.58152541  0.77206163  1
  P  P272  1  0.29324289  0.91676862  0.02098587  1
  P  P273  1  0.29308199  0.91595958  0.27190494  1
  P  P274  1  0.29125301  0.91571555  0.52380128  1
  P  P275  1  0.29166634  0.91776354  0.77136962  1
  P  P276  1  0.79172874  0.25064408  0.02352204  1
  P  P277  1  0.79280357  0.25051832  0.27071068  1
  P  P278  1  0.79229501  0.24959888  0.52285726  1
  P  P279  1  0.79181753  0.24819377  0.77267443  1
  P  P280  1  0.79238392  0.58246403  0.02233577  1
  P  P281  1  0.79207393  0.58209302  0.27215193  1
  P  P282  1  0.79158028  0.58546359  0.52260472  1
  P  P283  1  0.79082261  0.58355489  0.77396403  1
  P  P284  1  0.79206104  0.91633482  0.02299725  1
  P  P285  1  0.79216961  0.91558572  0.27165212  1
  P  P286  1  0.79227983  0.91787931  0.52270447  1
  P  P287  1  0.79265942  0.91571913  0.77270029  1
  O  O288  1  0.03767378  0.24966110  0.18222431  1
  O  O289  1  0.03723501  0.25121433  0.43272747  1
  O  O290  1  0.03634077  0.25058296  0.68434109  1
  O  O291  1  0.03625010  0.24909182  0.93132241  1
  O  O292  1  0.03633459  0.58414580  0.18322713  1
  O  O293  1  0.03569832  0.58276030  0.43223344  1
  O  O294  1  0.03534052  0.58297541  0.68173205  1
  O  O295  1  0.03689411  0.58235116  0.93249562  1
  O  O296  1  0.03804302  0.91488043  0.18375510  1
  O  O297  1  0.03666717  0.91532962  0.43283339  1
  O  O298  1  0.03644891  0.91718815  0.68282019  1
  O  O299  1  0.03737166  0.91502275  0.93242201  1
  O  O300  1  0.53730484  0.25032421  0.18417087  1
  O  O301  1  0.53680014  0.25114110  0.43130731  1
  O  O302  1  0.53786256  0.25064198  0.68192360  1
  O  O303  1  0.53836480  0.24988429  0.93304538  1
  O  O304  1  0.53710660  0.58590393  0.18321721  1
  O  O305  1  0.53651010  0.58416064  0.43278882  1
  O  O306  1  0.53645333  0.58317530  0.68059261  1
  O  O307  1  0.53729027  0.58481174  0.93374505  1
  O  O308  1  0.53751374  0.91726578  0.18241745  1
  O  O309  1  0.53751548  0.91520151  0.43195471  1
  O  O310  1  0.53749488  0.91742014  0.68337112  1
  O  O311  1  0.53738002  0.91829335  0.93266349  1
  O  O312  1  0.46350738  0.08390104  0.06727688  1
  O  O313  1  0.46239661  0.08457004  0.31604400  1
  O  O314  1  0.46273435  0.08267385  0.56747595  1
  O  O315  1  0.46402170  0.08132718  0.81708048  1
  O  O316  1  0.46261922  0.41691638  0.06793564  1
  O  O317  1  0.46381605  0.41622517  0.31775595  1
  O  O318  1  0.46285469  0.41679736  0.56537656  1
  O  O319  1  0.46197338  0.41728378  0.81690528  1
  O  O320  1  0.46420735  0.74994631  0.06810471  1
  O  O321  1  0.46346528  0.74925468  0.31672578  1
  O  O322  1  0.46160199  0.74909490  0.56631998  1
  O  O323  1  0.46222932  0.74975317  0.81769282  1
  O  O324  1  0.96311611  0.08385840  0.06641172  1
  O  O325  1  0.96280673  0.08201114  0.31774922  1
  O  O326  1  0.96295154  0.08361095  0.56761565  1
  O  O327  1  0.96326653  0.08487633  0.81745263  1
  O  O328  1  0.96353565  0.41639039  0.06868922  1
  O  O329  1  0.96315588  0.41765053  0.31734135  1
  O  O330  1  0.96277610  0.41824998  0.56851945  1
  O  O331  1  0.96238288  0.41645202  0.81604724  1
  O  O332  1  0.96348081  0.74855060  0.06890307  1
  O  O333  1  0.96328748  0.74817506  0.31720023  1
  O  O334  1  0.96201049  0.75073511  0.56766716  1
  O  O335  1  0.96261680  0.74881250  0.81787419  1
  O  O336  1  0.21293511  0.08314325  0.05537542  1
  O  O337  1  0.21159565  0.08303564  0.30775658  1
  O  O338  1  0.21300458  0.08280089  0.55938826  1
  O  O339  1  0.21406342  0.08323290  0.80699044  1
  O  O340  1  0.21305813  0.41721123  0.05612538  1
  O  O341  1  0.21225471  0.41779075  0.30683886  1
  O  O342  1  0.21209012  0.41680817  0.55858479  1
  O  O343  1  0.21360068  0.41742398  0.80816604  1
  O  O344  1  0.21298076  0.74815973  0.05854338  1
  O  O345  1  0.21355828  0.74752717  0.30773378  1
  O  O346  1  0.21240695  0.74890853  0.55790419  1
  O  O347  1  0.21186256  0.75068662  0.80746061  1
  O  O348  1  0.71437690  0.08407509  0.05845877  1
  O  O349  1  0.71326568  0.08302811  0.30592565  1
  O  O350  1  0.71281467  0.08368074  0.55852181  1
  O  O351  1  0.71390756  0.08338773  0.80695614  1
  O  O352  1  0.71395094  0.41788788  0.05860587  1
  O  O353  1  0.71415757  0.41764375  0.30673073  1
  O  O354  1  0.71254053  0.41836041  0.55728747  1
  O  O355  1  0.71216850  0.41714563  0.80907086  1
  O  O356  1  0.71423847  0.75089255  0.05705617  1
  O  O357  1  0.71350257  0.75174590  0.30754032  1
  O  O358  1  0.71279399  0.75128713  0.55745628  1
  O  O359  1  0.71326389  0.74885041  0.80842272  1
  O  O360  1  0.28781310  0.25057082  0.19142160  1
  O  O361  1  0.28719772  0.24900517  0.44299627  1
  O  O362  1  0.28646844  0.24929071  0.69289038  1
  O  O363  1  0.28698348  0.25027496  0.93991589  1
  O  O364  1  0.28720577  0.58447937  0.19205663  1
  O  O365  1  0.28607744  0.58309994  0.44253171  1
  O  O366  1  0.28657206  0.58157509  0.69215900  1
  O  O367  1  0.28661677  0.58209976  0.94312311  1
  O  O368  1  0.28823843  0.91590995  0.19192906  1
  O  O369  1  0.28645506  0.91538994  0.44378835  1
  O  O370  1  0.28582697  0.91755577  0.69150620  1
  O  O371  1  0.28789554  0.91728076  0.94103650  1
  O  O372  1  0.78748984  0.25094874  0.19081764  1
  O  O373  1  0.78757205  0.25017452  0.44281849  1
  O  O374  1  0.78627216  0.24812834  0.69275747  1
  O  O375  1  0.78674951  0.25008541  0.94355102  1
  O  O376  1  0.78694640  0.58193832  0.19222954  1
  O  O377  1  0.78665632  0.58499726  0.44269141  1
  O  O378  1  0.78585651  0.58453384  0.69399612  1
  O  O379  1  0.78681907  0.58258049  0.94250764  1
  O  O380  1  0.78675250  0.91584897  0.19174963  1
  O  O381  1  0.78718203  0.91732776  0.44276734  1
  O  O382  1  0.78717523  0.91645195  0.69283289  1
  O  O383  1  0.78686540  0.91585383  0.94303142  1
  O  O384  1  0.22819371  0.25040205  0.05562668  1
  O  O385  1  0.22812820  0.25019531  0.30631308  1
  O  O386  1  0.22820426  0.24819204  0.55858835  1
  O  O387  1  0.22711027  0.25058333  0.80876362  1
  O  O388  1  0.22731261  0.58262067  0.05898354  1
  O  O389  1  0.22777472  0.58507217  0.30767502  1
  O  O390  1  0.22726322  0.58139822  0.55840975  1
  O  O391  1  0.22765911  0.58129815  0.80780314  1
  O  O392  1  0.22891312  0.91582826  0.05633950  1
  O  O393  1  0.22859094  0.91558117  0.30682835  1
  O  O394  1  0.22703750  0.91629454  0.55954986  1
  O  O395  1  0.22763856  0.91826500  0.80784664  1
  O  O396  1  0.72770850  0.25151626  0.05966681  1
  O  O397  1  0.72856171  0.25086051  0.30646468  1
  O  O398  1  0.72785742  0.24894341  0.55803272  1
  O  O399  1  0.72774087  0.24823664  0.80887110  1
  O  O400  1  0.72828862  0.58234408  0.05860557  1
  O  O401  1  0.72782953  0.58242595  0.30794973  1
  O  O402  1  0.72723557  0.58572528  0.55823219  1
  O  O403  1  0.72679507  0.58310522  0.81012195  1
  O  O404  1  0.72794585  0.91650271  0.05912002  1
  O  O405  1  0.72800116  0.91514603  0.30786627  1
  O  O406  1  0.72807906  0.91820173  0.55852828  1
  O  O407  1  0.72849197  0.91547583  0.80876750  1
  O  O408  1  0.27128654  0.08337633  0.19288076  1
  O  O409  1  0.27145605  0.08284541  0.44352588  1
  O  O410  1  0.27285400  0.08313377  0.69060264  1
  O  O411  1  0.27286779  0.08239121  0.93996882  1
  O  O412  1  0.27190515  0.41840540  0.19154287  1
  O  O413  1  0.27119000  0.41676213  0.44327109  1
  O  O414  1  0.27175367  0.41802491  0.69167955  1
  O  O415  1  0.27224536  0.41648410  0.94025861  1
  O  O416  1  0.27288836  0.74755974  0.19210538  1
  O  O417  1  0.27173340  0.74742657  0.44234283  1
  O  O418  1  0.27115009  0.75076626  0.69209587  1
  O  O419  1  0.27151808  0.74930565  0.94294187  1
  O  O420  1  0.77317166  0.08248397  0.19038523  1
  O  O421  1  0.77173971  0.08347953  0.44294347  1
  O  O422  1  0.77308133  0.08332034  0.69084086  1
  O  O423  1  0.77279140  0.08482228  0.94217152  1
  O  O424  1  0.77332954  0.41719340  0.19077396  1
  O  O425  1  0.77226020  0.41900663  0.44205813  1
  O  O426  1  0.77114944  0.41708459  0.69361622  1
  O  O427  1  0.77202073  0.41829025  0.94212833  1
  O  O428  1  0.77258073  0.75136390  0.19186321  1
  O  O429  1  0.77194351  0.75203169  0.44169383  1
  O  O430  1  0.77186729  0.74852887  0.69234437  1
  O  O431  1  0.77333375  0.75126272  0.94103578  1
  O  O432  1  0.02179335  0.08312712  0.18195457  1
  O  O433  1  0.02185405  0.08163080  0.43339470  1
  O  O434  1  0.02210378  0.08478104  0.68328006  1
  O  O435  1  0.02251199  0.08473097  0.93297419  1
  O  O436  1  0.02322247  0.41599933  0.18436247  1
  O  O437  1  0.02168686  0.41876856  0.43343755  1
  O  O438  1  0.02188354  0.41764452  0.68454008  1
  O  O439  1  0.02133471  0.41625803  0.93167974  1
  O  O440  1  0.02262334  0.74881092  0.18497169  1
  O  O441  1  0.02156673  0.74780785  0.43345211  1
  O  O442  1  0.02143806  0.75125898  0.68312933  1
  O  O443  1  0.02203391  0.74742653  0.93333764  1
  O  O444  1  0.52234612  0.08503889  0.18299140  1
  O  O445  1  0.52140635  0.08381050  0.43125059  1
  O  O446  1  0.52265789  0.08181987  0.68249088  1
  O  O447  1  0.52293968  0.08157277  0.93285077  1
  O  O448  1  0.52212899  0.41623571  0.18318494  1
  O  O449  1  0.52300402  0.41621931  0.43371445  1
  O  O450  1  0.52168786  0.41702111  0.68107064  1
  O  O451  1  0.52132324  0.41773048  0.93196018  1
  O  O452  1  0.52326216  0.75065027  0.18414816  1
  O  O453  1  0.52200495  0.74827530  0.43273645  1
  O  O454  1  0.52114095  0.75016214  0.68125493  1
  O  O455  1  0.52180277  0.74907865  0.93293111  1
  O  O456  1  0.47874552  0.24987517  0.06830794  1
  O  O457  1  0.47767716  0.25062022  0.31533832  1
  O  O458  1  0.47829317  0.25196229  0.56669776  1
  O  O459  1  0.47889991  0.24949919  0.81808112  1
  O  O460  1  0.47798928  0.58616994  0.06754991  1
  O  O461  1  0.47798842  0.58488801  0.31672938  1
  O  O462  1  0.47706942  0.58351278  0.56484523  1
  O  O463  1  0.47800368  0.58363692  0.81856113  1
  O  O464  1  0.47847176  0.91835928  0.06675125  1
  O  O465  1  0.47845209  0.91527465  0.31649097  1
  O  O466  1  0.47842464  0.91628968  0.56810064  1
  O  O467  1  0.47818369  0.91830168  0.81703161  1
  O  O468  1  0.97817612  0.24819582  0.06689344  1
  O  O469  1  0.97818137  0.25165608  0.31713386  1
  O  O470  1  0.97802424  0.25042180  0.56839384  1
  O  O471  1  0.97681591  0.24938689  0.81550507  1
  O  O472  1  0.97751083  0.58438608  0.06723530  1
  O  O473  1  0.97690967  0.58339340  0.31600216  1
  O  O474  1  0.97626874  0.58344753  0.56569586  1
  O  O475  1  0.97748028  0.58182371  0.81711026  1
  O  O476  1  0.97888770  0.91577978  0.06850603  1
  O  O477  1  0.97801541  0.91415297  0.31693957  1
  O  O478  1  0.97746064  0.91783020  0.56696914  1
  O  O479  1  0.97790981  0.91496415  0.81711859  1
  O  O480  1  0.07333173  0.31260946  0.07367979  1
  O  O481  1  0.07325127  0.31489604  0.32424494  1
  O  O482  1  0.07320419  0.31425436  0.57638903  1
  O  O483  1  0.07126380  0.31370527  0.82328378  1
  O  O484  1  0.07249896  0.64761620  0.07440963  1
  O  O485  1  0.07242336  0.64620500  0.32400025  1
  O  O486  1  0.07101701  0.64724547  0.57374757  1
  O  O487  1  0.07308255  0.64531336  0.82418400  1
  O  O488  1  0.07437992  0.97884974  0.07557945  1
  O  O489  1  0.07345974  0.97803876  0.32478116  1
  O  O490  1  0.07217720  0.98149148  0.57454852  1
  O  O491  1  0.07339394  0.97850460  0.82473280  1
  O  O492  1  0.57368431  0.31417066  0.07607220  1
  O  O493  1  0.57282123  0.31439108  0.32294403  1
  O  O494  1  0.57389192  0.31448018  0.57356920  1
  O  O495  1  0.57398856  0.31376625  0.82500153  1
  O  O496  1  0.57355568  0.64896141  0.07440733  1
  O  O497  1  0.57321363  0.64802212  0.32437369  1
  O  O498  1  0.57194773  0.64752396  0.57283895  1
  O  O499  1  0.57343770  0.64734686  0.82486173  1
  O  O500  1  0.57337496  0.98184792  0.07438170  1
  O  O501  1  0.57394904  0.97895280  0.32455827  1
  O  O502  1  0.57371166  0.98022835  0.57457862  1
  O  O503  1  0.57371894  0.98118552  0.82367367  1
  O  O504  1  0.42687372  0.02113452  0.17531010  1
  O  O505  1  0.42623129  0.01996016  0.42365575  1
  O  O506  1  0.42733534  0.01874846  0.67607589  1
  O  O507  1  0.42762342  0.01841055  0.92600823  1
  O  O508  1  0.42698237  0.35276489  0.17612756  1
  O  O509  1  0.42770948  0.35285539  0.42613669  1
  O  O510  1  0.42626723  0.35356766  0.67393340  1
  O  O511  1  0.42636886  0.35329354  0.92481393  1
  O  O512  1  0.42822223  0.68683162  0.17668403  1
  O  O513  1  0.42675217  0.68531560  0.42515517  1
  O  O514  1  0.42570541  0.68615478  0.67486217  1
  O  O515  1  0.42651164  0.68594417  0.92631461  1
  O  O516  1  0.92641889  0.01974353  0.17407793  1
  O  O517  1  0.92690611  0.01816011  0.42610546  1
  O  O518  1  0.92678592  0.02098580  0.67611684  1
  O  O519  1  0.92744653  0.02048531  0.92489349  1
  O  O520  1  0.92805813  0.35275591  0.17684266  1
  O  O521  1  0.92668555  0.35443911  0.42563043  1
  O  O522  1  0.92721975  0.35368935  0.67639848  1
  O  O523  1  0.92603687  0.35267309  0.92428796  1
  O  O524  1  0.92707422  0.68571716  0.17724448  1
  O  O525  1  0.92652198  0.68459105  0.42574245  1
  O  O526  1  0.92577704  0.68795805  0.67589099  1
  O  O527  1  0.92700585  0.68439255  0.92623595  1
  O  O528  1  0.17602091  0.01947279  0.19955883  1
  O  O529  1  0.17617893  0.01924901  0.45118125  1
  O  O530  1  0.17745318  0.02017634  0.69867837  1
  O  O531  1  0.17744140  0.01925995  0.94742560  1
  O  O532  1  0.17662458  0.35454024  0.19862895  1
  O  O533  1  0.17605682  0.35283203  0.45069015  1
  O  O534  1  0.17670707  0.35389579  0.70064389  1
  O  O535  1  0.17703484  0.35323561  0.94799066  1
  O  O536  1  0.17739695  0.68464450  0.19891876  1
  O  O537  1  0.17650889  0.68456373  0.44972853  1
  O  O538  1  0.17543507  0.68751168  0.69991157  1
  O  O539  1  0.17618310  0.68554975  0.95003005  1
  O  O540  1  0.67767914  0.01966164  0.19771129  1
  O  O541  1  0.67612899  0.02041202  0.45010176  1
  O  O542  1  0.67850601  0.01919783  0.69901184  1
  O  O543  1  0.67752048  0.02126403  0.95033930  1
  O  O544  1  0.67823007  0.35377882  0.19866045  1
  O  O545  1  0.67710749  0.35485999  0.44927663  1
  O  O546  1  0.67600355  0.35337513  0.70102305  1
  O  O547  1  0.67677362  0.35454789  0.95099657  1
  O  O548  1  0.67734276  0.68776005  0.20011047  1
  O  O549  1  0.67642159  0.68857787  0.44924880  1
  O  O550  1  0.67685080  0.68529632  0.69959604  1
  O  O551  1  0.67902114  0.68665178  0.94904343  1
  O  O552  1  0.32393016  0.31326493  0.04828959  1
  O  O553  1  0.32342176  0.31394074  0.29983827  1
  O  O554  1  0.32335965  0.31227484  0.55078200  1
  O  O555  1  0.32249164  0.31353135  0.80050132  1
  O  O556  1  0.32228857  0.64639274  0.05103897  1
  O  O557  1  0.32325348  0.64762221  0.30122392  1
  O  O558  1  0.32261973  0.64535936  0.55077142  1
  O  O559  1  0.32258475  0.64560323  0.79970215  1
  O  O560  1  0.32396884  0.98022917  0.04959808  1
  O  O561  1  0.32377623  0.97954787  0.30018677  1
  O  O562  1  0.32255308  0.97924739  0.55151237  1
  O  O563  1  0.32295788  0.98106998  0.79976219  1
  O  O564  1  0.82324332  0.31417814  0.05103436  1
  O  O565  1  0.82431814  0.31355783  0.29945844  1
  O  O566  1  0.82289867  0.31341002  0.55103066  1
  O  O567  1  0.82285841  0.31201896  0.80019485  1
  O  O568  1  0.82341000  0.64613516  0.05036985  1
  O  O569  1  0.82318230  0.64582508  0.29968077  1
  O  O570  1  0.82214489  0.64908860  0.55119748  1
  O  O571  1  0.82163497  0.64702039  0.80287774  1
  O  O572  1  0.82279270  0.98033190  0.05056996  1
  O  O573  1  0.82314865  0.97925619  0.29972612  1
  O  O574  1  0.82293021  0.98151857  0.55119602  1
  O  O575  1  0.82399038  0.97904569  0.80090811  1
  O  O576  1  0.42725677  0.14823651  0.17535258  1
  O  O577  1  0.42570031  0.14693573  0.42474567  1
  O  O578  1  0.42748857  0.14599951  0.67559033  1
  O  O579  1  0.42776464  0.14548540  0.92447787  1
  O  O580  1  0.42683816  0.48002513  0.17588092  1
  O  O581  1  0.42834473  0.48029937  0.42566653  1
  O  O582  1  0.42628390  0.48034136  0.67370091  1
  O  O583  1  0.42552594  0.48031313  0.92528788  1
  O  O584  1  0.42837435  0.81426957  0.17579532  1
  O  O585  1  0.42675067  0.81222117  0.42491285  1
  O  O586  1  0.42557231  0.81299918  0.67456208  1
  O  O587  1  0.42656013  0.81314422  0.92549375  1
  O  O588  1  0.92633470  0.14659354  0.17488208  1
  O  O589  1  0.92663638  0.14564144  0.42521140  1
  O  O590  1  0.92700363  0.14798803  0.67565989  1
  O  O591  1  0.92709062  0.14772297  0.92634722  1
  O  O592  1  0.92873319  0.48034327  0.17683676  1
  O  O593  1  0.92626496  0.48129281  0.42579173  1
  O  O594  1  0.92659838  0.48114797  0.67687305  1
  O  O595  1  0.92583377  0.47931669  0.92476481  1
  O  O596  1  0.92824242  0.81309668  0.17680456  1
  O  O597  1  0.92629768  0.81150455  0.42490806  1
  O  O598  1  0.92683528  0.81513813  0.67613760  1
  O  O599  1  0.92677465  0.81151850  0.92628672  1
  O  O600  1  0.07356906  0.18554632  0.07371076  1
  O  O601  1  0.07337471  0.18755571  0.32521801  1
  O  O602  1  0.07361404  0.18748781  0.57612078  1
  O  O603  1  0.07234706  0.18629100  0.82287391  1
  O  O604  1  0.07271951  0.52056650  0.07536981  1
  O  O605  1  0.07137966  0.51918189  0.32354919  1
  O  O606  1  0.07146146  0.51984221  0.57347848  1
  O  O607  1  0.07243329  0.51838065  0.82390381  1
  O  O608  1  0.07429831  0.85197954  0.07547355  1
  O  O609  1  0.07292736  0.85079975  0.32503018  1
  O  O610  1  0.07290305  0.85429646  0.57480039  1
  O  O611  1  0.07271881  0.85114884  0.82392130  1
  O  O612  1  0.57457995  0.18741823  0.07583460  1
  O  O613  1  0.57256410  0.18686024  0.32343538  1
  O  O614  1  0.57313051  0.18722713  0.57388385  1
  O  O615  1  0.57467758  0.18668724  0.82499669  1
  O  O616  1  0.57287512  0.52173110  0.07579399  1
  O  O617  1  0.57325398  0.52113352  0.32478605  1
  O  O618  1  0.57215091  0.52002746  0.57218598  1
  O  O619  1  0.57346574  0.52053730  0.82581624  1
  O  O620  1  0.57388647  0.85473900  0.07408018  1
  O  O621  1  0.57337311  0.85173118  0.32337242  1
  O  O622  1  0.57407794  0.85335836  0.57573200  1
  O  O623  1  0.57310244  0.85403183  0.82515939  1
  O  O624  1  0.32336447  0.18647994  0.04814294  1
  O  O625  1  0.32362019  0.18687471  0.29963322  1
  O  O626  1  0.32348850  0.18512127  0.55127613  1
  O  O627  1  0.32168932  0.18607903  0.80151441  1
  O  O628  1  0.32242010  0.51910758  0.05182643  1
  O  O629  1  0.32290463  0.52078189  0.30019568  1
  O  O630  1  0.32232859  0.51822486  0.55012417  1
  O  O631  1  0.32319661  0.51847569  0.80086635  1
  O  O632  1  0.32473919  0.85332195  0.04883919  1
  O  O633  1  0.32421668  0.85254758  0.30017681  1
  O  O634  1  0.32151145  0.85165711  0.55199840  1
  O  O635  1  0.32267849  0.85403995  0.79933668  1
  O  O636  1  0.82196811  0.18674856  0.05222517  1
  O  O637  1  0.82361017  0.18676763  0.29885774  1
  O  O638  1  0.82325914  0.18611510  0.55113849  1
  O  O639  1  0.82283579  0.18492552  0.80143802  1
  O  O640  1  0.82358018  0.51919952  0.05108346  1
  O  O641  1  0.82270038  0.51869116  0.30113163  1
  O  O642  1  0.82266779  0.52201593  0.55101736  1
  O  O643  1  0.82177668  0.51966238  0.80144519  1
  O  O644  1  0.82314889  0.85293959  0.05156726  1
  O  O645  1  0.82318935  0.85230338  0.30056107  1
  O  O646  1  0.82350730  0.85445032  0.55084946  1
  O  O647  1  0.82332111  0.85198651  0.80088277  1
  O  O648  1  0.17575286  0.14655742  0.19930622  1
  O  O649  1  0.17585434  0.14604794  0.45119377  1
  O  O650  1  0.17821323  0.14743430  0.69902641  1
  O  O651  1  0.17827679  0.14673161  0.94671720  1
  O  O652  1  0.17680714  0.48173139  0.19853115  1
  O  O653  1  0.17541455  0.47969966  0.45009716  1
  O  O654  1  0.17657702  0.48088342  0.69967104  1
  O  O655  1  0.17729041  0.48057888  0.94783095  1
  O  O656  1  0.17786166  0.81171087  0.20009426  1
  O  O657  1  0.17651354  0.81170207  0.44954760  1
  O  O658  1  0.17644934  0.81476534  0.69894993  1
  O  O659  1  0.17597645  0.81237435  0.95100611  1
  O  O660  1  0.67888326  0.14725881  0.19779819  1
  O  O661  1  0.67641983  0.14706746  0.44988833  1
  O  O662  1  0.67782972  0.14665484  0.69853653  1
  O  O663  1  0.67789053  0.14827837  0.95024692  1
  O  O664  1  0.67822148  0.48108228  0.19852463  1
  O  O665  1  0.67708540  0.48213346  0.44871267  1
  O  O666  1  0.67552260  0.48026310  0.70073862  1
  O  O667  1  0.67692439  0.48153893  0.95031682  1
  O  O668  1  0.67745533  0.81481943  0.19854083  1
  O  O669  1  0.67715933  0.81567656  0.44924075  1
  O  O670  1  0.67650584  0.81219820  0.70050786  1
  O  O671  1  0.67776170  0.81404849  0.94876581  1
