# generated using pymatgen
data_Na2MnFe(PO4)2
_symmetry_space_group_name_H-M   'P 1'
_cell_length_a   22.34479181
_cell_length_b   20.09904561
_cell_length_c   19.44760184
_cell_angle_alpha   90.04865774
_cell_angle_beta   89.98083999
_cell_angle_gamma   89.96182463
_symmetry_Int_Tables_number   1
_chemical_formula_structural   Na2MnFe(PO4)2
_chemical_formula_sum   'Na96 Mn48 Fe48 P96 O384'
_cell_volume   8734.08723536
_cell_formula_units_Z   48
loop_
 _symmetry_equiv_pos_site_id
 _symmetry_equiv_pos_as_xyz
  1  'x, y, z'
loop_
 _atom_site_type_symbol
 _atom_site_label
 _atom_site_symmetry_multiplicity
 _atom_site_fract_x
 _atom_site_fract_y
 _atom_site_fract_z
 _atom_site_occupancy
  Na  Na0  1  0.14016123  0.24913186  0.24366285  1
  Na  Na1  1  0.14047952  0.24940233  0.49523678  1
  Na  Na2  1  0.14053593  0.24941781  0.74380146  1
  Na  Na3  1  0.14021689  0.24989719  0.99388105  1
  Na  Na4  1  0.14010501  0.58232541  0.24329480  1
  Na  Na5  1  0.14035174  0.58382076  0.49447428  1
  Na  Na6  1  0.13963330  0.58321777  0.74266568  1
  Na  Na7  1  0.13930289  0.58336411  0.99310562  1
  Na  Na8  1  0.13979244  0.91644425  0.24442387  1
  Na  Na9  1  0.14045019  0.91657931  0.49503312  1
  Na  Na10  1  0.14086763  0.91750200  0.74325231  1
  Na  Na11  1  0.14008133  0.91804996  0.99429906  1
  Na  Na12  1  0.64094266  0.24951308  0.24309615  1
  Na  Na13  1  0.64072385  0.25037401  0.49445103  1
  Na  Na14  1  0.64180826  0.24920796  0.74331453  1
  Na  Na15  1  0.64093390  0.25102125  0.99408844  1
  Na  Na16  1  0.64055583  0.58236008  0.24366800  1
  Na  Na17  1  0.64095824  0.58280574  0.49411055  1
  Na  Na18  1  0.64024604  0.58313042  0.74344505  1
  Na  Na19  1  0.63986019  0.58395533  0.99198130  1
  Na  Na20  1  0.63984967  0.91618903  0.24180776  1
  Na  Na21  1  0.64046087  0.91583008  0.49439832  1
  Na  Na22  1  0.64079547  0.91634459  0.74203452  1
  Na  Na23  1  0.64031055  0.91707107  0.99310045  1
  Na  Na24  1  0.36008222  0.08358470  0.00602036  1
  Na  Na25  1  0.35993973  0.08196669  0.25648734  1
  Na  Na26  1  0.35945465  0.08248079  0.50625045  1
  Na  Na27  1  0.35971312  0.08306104  0.75495239  1
  Na  Na28  1  0.36019344  0.41735241  0.00529960  1
  Na  Na29  1  0.35932006  0.41599738  0.25475147  1
  Na  Na30  1  0.35971206  0.41680472  0.50737433  1
  Na  Na31  1  0.36043202  0.41669061  0.75606007  1
  Na  Na32  1  0.36028705  0.75141686  0.00622742  1
  Na  Na33  1  0.35946428  0.75132447  0.25590272  1
  Na  Na34  1  0.35906391  0.75153390  0.50656139  1
  Na  Na35  1  0.36012679  0.75150288  0.75653411  1
  Na  Na36  1  0.85970219  0.08478618  0.00719168  1
  Na  Na37  1  0.85932718  0.08408038  0.25504475  1
  Na  Na38  1  0.85885283  0.08302225  0.50767065  1
  Na  Na39  1  0.86017061  0.08275611  0.75696386  1
  Na  Na40  1  0.85972752  0.41781061  0.00775649  1
  Na  Na41  1  0.85949514  0.41732147  0.25715075  1
  Na  Na42  1  0.85980710  0.41682208  0.50704758  1
  Na  Na43  1  0.85981122  0.41640181  0.75740226  1
  Na  Na44  1  0.85955323  0.74993089  0.00614875  1
  Na  Na45  1  0.85904639  0.74913618  0.25595165  1
  Na  Na46  1  0.85885471  0.74961246  0.50630279  1
  Na  Na47  1  0.85962437  0.74850933  0.75634786  1
  Na  Na48  1  0.10930321  0.08363528  0.11812490  1
  Na  Na49  1  0.10950008  0.08229530  0.36956409  1
  Na  Na50  1  0.11000980  0.08300606  0.61871309  1
  Na  Na51  1  0.11008226  0.08311883  0.86943588  1
  Na  Na52  1  0.10889044  0.41702043  0.11813431  1
  Na  Na53  1  0.10964500  0.41638204  0.36997902  1
  Na  Na54  1  0.10923207  0.41668508  0.61894209  1
  Na  Na55  1  0.10919398  0.41724473  0.86956276  1
  Na  Na56  1  0.10876424  0.75082667  0.11901032  1
  Na  Na57  1  0.10938669  0.74937375  0.36920909  1
  Na  Na58  1  0.10999901  0.74851413  0.61863393  1
  Na  Na59  1  0.10907841  0.74947099  0.86833742  1
  Na  Na60  1  0.61015713  0.08267790  0.11831679  1
  Na  Na61  1  0.60958872  0.08214921  0.36788976  1
  Na  Na62  1  0.61068940  0.08277602  0.61893921  1
  Na  Na63  1  0.61040042  0.08376016  0.86777977  1
  Na  Na64  1  0.60974645  0.41728552  0.11846951  1
  Na  Na65  1  0.61044488  0.41556067  0.36808614  1
  Na  Na66  1  0.61033429  0.41633482  0.61914174  1
  Na  Na67  1  0.60991699  0.41850586  0.86803356  1
  Na  Na68  1  0.60923095  0.74945872  0.11777765  1
  Na  Na69  1  0.60996933  0.74990844  0.36834699  1
  Na  Na70  1  0.61050325  0.74965224  0.61916889  1
  Na  Na71  1  0.60948742  0.74980218  0.86769290  1
  Na  Na72  1  0.39060868  0.24955907  0.13131464  1
  Na  Na73  1  0.39040924  0.24873400  0.38062873  1
  Na  Na74  1  0.39044402  0.24995948  0.63239937  1
  Na  Na75  1  0.39089780  0.25128819  0.87998336  1
  Na  Na76  1  0.39058365  0.58468421  0.12967805  1
  Na  Na77  1  0.39033334  0.58338766  0.38079645  1
  Na  Na78  1  0.39104073  0.58411981  0.63262861  1
  Na  Na79  1  0.39082990  0.58469365  0.88022461  1
  Na  Na80  1  0.39071443  0.91734003  0.13138999  1
  Na  Na81  1  0.38953514  0.91658370  0.38094308  1
  Na  Na82  1  0.38982744  0.91601603  0.63268932  1
  Na  Na83  1  0.39051682  0.91674734  0.88033174  1
  Na  Na84  1  0.88999276  0.25146262  0.13166093  1
  Na  Na85  1  0.88981699  0.25113624  0.38227243  1
  Na  Na86  1  0.88979589  0.25020673  0.63287635  1
  Na  Na87  1  0.89064262  0.24978945  0.88324748  1
  Na  Na88  1  0.88983084  0.58459001  0.13101899  1
  Na  Na89  1  0.88958350  0.58197222  0.38194707  1
  Na  Na90  1  0.89006877  0.58277718  0.63173856  1
  Na  Na91  1  0.88999966  0.58299213  0.88183648  1
  Na  Na92  1  0.89014755  0.91756603  0.13051756  1
  Na  Na93  1  0.88957285  0.91574631  0.38067757  1
  Na  Na94  1  0.88960844  0.91545676  0.63244707  1
  Na  Na95  1  0.89067647  0.91727939  0.88086706  1
  Mn  Mn96  1  -0.00082792  0.66469355  0.49907546  1
  Mn  Mn97  1  0.24998813  0.49998553  0.37519410  1
  Mn  Mn98  1  -0.00033853  0.66640338  0.24993182  1
  Mn  Mn99  1  -0.00115684  0.16710002  0.50030445  1
  Mn  Mn100  1  -0.00030329  0.16726214  0.25013284  1
  Mn  Mn101  1  0.50045092  0.49960533  0.50032108  1
  Mn  Mn102  1  0.50076716  0.16684257  0.74986997  1
  Mn  Mn103  1  0.74990445  0.83230944  0.37426079  1
  Mn  Mn104  1  -0.00040147  0.83211141  0.50095006  1
  Mn  Mn105  1  0.25033829  0.33256668  0.37528671  1
  Mn  Mn106  1  -0.00121440  -0.00039244  0.24952210  1
  Mn  Mn107  1  0.00062698  0.16613871  0.75118323  1
  Mn  Mn108  1  0.25023228  0.49927390  0.12432783  1
  Mn  Mn109  1  -0.00062052  -0.00076887  0.49977700  1
  Mn  Mn110  1  0.49996250  0.33276844  0.49965017  1
  Mn  Mn111  1  0.74949617  0.83278784  0.12424072  1
  Mn  Mn112  1  0.49974526  0.50024080  0.24934475  1
  Mn  Mn113  1  0.25055021  0.50036246  0.62482073  1
  Mn  Mn114  1  0.25024502  0.16535934  0.37462880  1
  Mn  Mn115  1  0.25031918  0.66783108  0.37475978  1
  Mn  Mn116  1  0.49990272  -0.00069992  -0.00041578  1
  Mn  Mn117  1  0.00025056  0.83250202  0.75061148  1
  Mn  Mn118  1  0.50007367  0.66685386  0.50027083  1
  Mn  Mn119  1  0.74971006  0.50047034  0.12561043  1
  Mn  Mn120  1  0.24979696  0.50016109  0.87411753  1
  Mn  Mn121  1  0.25030253  0.33301351  0.87438581  1
  Mn  Mn122  1  0.24922930  0.66709778  0.12518348  1
  Mn  Mn123  1  0.50034793  0.66743120  0.24932834  1
  Mn  Mn124  1  0.50024050  -0.00099289  0.49943223  1
  Mn  Mn125  1  0.75066125  0.83283537  0.87437413  1
  Mn  Mn126  1  -0.00020749  0.83356914  -0.00107825  1
  Mn  Mn127  1  0.24942778  0.83512274  0.87545979  1
  Mn  Mn128  1  0.24934661  0.83473883  0.12559392  1
  Mn  Mn129  1  0.25112997  0.16595604  0.87454285  1
  Mn  Mn130  1  0.74982125  -0.00018235  0.37514241  1
  Mn  Mn131  1  0.49949976  0.33273860  0.24905631  1
  Mn  Mn132  1  0.50082205  0.33451416  0.00002883  1
  Mn  Mn133  1  0.50017430  0.83336560  0.50010049  1
  Mn  Mn134  1  0.75037632  0.00079275  0.87403173  1
  Mn  Mn135  1  0.00031129  0.33415699  0.75135877  1
  Mn  Mn136  1  0.24989100  0.16603473  0.12488496  1
  Mn  Mn137  1  0.50047333  0.16677058  -0.00091793  1
  Mn  Mn138  1  0.49998887  0.16583138  0.50040179  1
  Mn  Mn139  1  0.74936043  0.16744802  0.37541366  1
  Mn  Mn140  1  0.75024795  0.49953658  0.62498711  1
  Mn  Mn141  1  0.24967305  0.66772375  0.87451007  1
  Mn  Mn142  1  0.75070244  0.33286462  0.87578175  1
  Mn  Mn143  1  0.00023897  0.33456497  0.25042744  1
  Fe  Fe144  1  0.50033498  0.66731641  0.75069848  1
  Fe  Fe145  1  0.49939715  0.83336164  0.24920174  1
  Fe  Fe146  1  0.49979843  0.50107823  -0.00164071  1
  Fe  Fe147  1  0.00001795  0.16708590  -0.00006915  1
  Fe  Fe148  1  0.74992268  0.00047443  0.12414859  1
  Fe  Fe149  1  0.25021804  0.00056769  0.87436917  1
  Fe  Fe150  1  0.24995195  -0.00005538  0.12582315  1
  Fe  Fe151  1  0.75051806  0.66582961  0.62483487  1
  Fe  Fe152  1  0.75043804  0.33321027  0.37547477  1
  Fe  Fe153  1  0.74993220  0.49969665  0.37535064  1
  Fe  Fe154  1  0.75048139  0.33313065  0.62565140  1
  Fe  Fe155  1  0.75028998  0.16742042  0.12554995  1
  Fe  Fe156  1  0.49984202  0.66755368  -0.00064410  1
  Fe  Fe157  1  -0.00042932  0.33433555  0.00057081  1
  Fe  Fe158  1  0.25049546  0.66771482  0.62457143  1
  Fe  Fe159  1  0.00007363  0.00036099  0.00038626  1
  Fe  Fe160  1  -0.00075200  0.83331746  0.24931479  1
  Fe  Fe161  1  0.75066836  0.16647824  0.62504279  1
  Fe  Fe162  1  0.25025485  0.00022219  0.62478005  1
  Fe  Fe163  1  0.25015071  0.16601307  0.62495875  1
  Fe  Fe164  1  -0.00047164  0.50029275  0.24980401  1
  Fe  Fe165  1  0.24986325  0.33281781  0.12460714  1
  Fe  Fe166  1  -0.00002653  0.66536473  0.74984966  1
  Fe  Fe167  1  0.74947581  0.66614167  0.37533367  1
  Fe  Fe168  1  0.24898624  0.83412822  0.37595436  1
  Fe  Fe169  1  0.74946480  0.66602213  0.12509963  1
  Fe  Fe170  1  0.24927397  -0.00054395  0.37630013  1
  Fe  Fe171  1  0.50114279  0.33424738  0.75042292  1
  Fe  Fe172  1  -0.00059479  0.66658544  -0.00003373  1
  Fe  Fe173  1  0.24996587  0.83410353  0.62504327  1
  Fe  Fe174  1  -0.00061456  0.49990388  0.75077928  1
  Fe  Fe175  1  0.75022602  0.50000255  0.87554372  1
  Fe  Fe176  1  0.50078518  0.83308381  0.75058470  1
  Fe  Fe177  1  -0.00026185  0.50102200  -0.00011724  1
  Fe  Fe178  1  0.50030681  -0.00053189  0.74990793  1
  Fe  Fe179  1  0.00025894  0.49951407  0.50075470  1
  Fe  Fe180  1  0.50072485  0.83370561  -0.00071024  1
  Fe  Fe181  1  0.25008832  0.33292562  0.62489221  1
  Fe  Fe182  1  0.74947800  0.66656723  0.87466658  1
  Fe  Fe183  1  0.00008483  -0.00000107  0.75070912  1
  Fe  Fe184  1  0.50043505  0.16590802  0.24984876  1
  Fe  Fe185  1  0.50029667  -0.00056824  0.24944164  1
  Fe  Fe186  1  0.75056176  0.16678984  0.87558862  1
  Fe  Fe187  1  0.74958705  0.33400497  0.12542001  1
  Fe  Fe188  1  -0.00025822  0.33363496  0.50101645  1
  Fe  Fe189  1  0.75031050  -0.00022276  0.62495974  1
  Fe  Fe190  1  0.75002805  0.83230540  0.62454036  1
  Fe  Fe191  1  0.50042439  0.50063086  0.74999400  1
  P  P192  1  0.04095810  0.25063379  0.10156165  1
  P  P193  1  0.04241076  0.25075050  0.35399451  1
  P  P194  1  0.04170105  0.25116851  0.60315548  1
  P  P195  1  0.04265353  0.25018488  0.85484553  1
  P  P196  1  0.04108995  0.58365076  0.10178798  1
  P  P197  1  0.04204008  0.58121376  0.35252170  1
  P  P198  1  0.04189166  0.58162380  0.60336054  1
  P  P199  1  0.04120331  0.58294902  0.85239615  1
  P  P200  1  0.04171439  0.91743544  0.10243042  1
  P  P201  1  0.04144067  0.91495058  0.35226011  1
  P  P202  1  0.04204794  0.91644482  0.60421571  1
  P  P203  1  0.04226144  0.91802020  0.85295073  1
  P  P204  1  0.54282356  0.24939562  0.10323389  1
  P  P205  1  0.54250017  0.24828169  0.35192766  1
  P  P206  1  0.54272883  0.25019644  0.60381728  1
  P  P207  1  0.54313711  0.25179452  0.85215077  1
  P  P208  1  0.54137506  0.58376669  0.10031049  1
  P  P209  1  0.54298196  0.58347892  0.35271476  1
  P  P210  1  0.54287900  0.58343196  0.60428091  1
  P  P211  1  0.54134627  0.58389977  0.85193281  1
  P  P212  1  0.54226824  0.91531487  0.10267504  1
  P  P213  1  0.54155062  0.91588949  0.35079141  1
  P  P214  1  0.54268562  0.91632191  0.60420885  1
  P  P215  1  0.54236627  0.91623747  0.85153651  1
  P  P216  1  0.45890551  0.08298224  0.14813881  1
  P  P217  1  0.45757300  0.08260671  0.39581574  1
  P  P218  1  0.45836727  0.08183361  0.64773392  1
  P  P219  1  0.45789786  0.08277830  0.89591203  1
  P  P220  1  0.45715414  0.41746825  0.14549479  1
  P  P221  1  0.45702170  0.41621312  0.39666548  1
  P  P222  1  0.45910497  0.41692024  0.64869428  1
  P  P223  1  0.45841140  0.41848219  0.89606759  1
  P  P224  1  0.45771432  0.75157374  0.14615628  1
  P  P225  1  0.45711961  0.75052371  0.39649397  1
  P  P226  1  0.45915439  0.75036226  0.64911188  1
  P  P227  1  0.45909815  0.75091178  0.89740531  1
  P  P228  1  0.95736551  0.08412330  0.14572992  1
  P  P229  1  0.95607522  0.08311705  0.39701442  1
  P  P230  1  0.95784295  0.08217512  0.64827328  1
  P  P231  1  0.95879695  0.08297501  0.89861768  1
  P  P232  1  0.95749180  0.41869840  0.14707047  1
  P  P233  1  0.95841816  0.41697597  0.39899162  1
  P  P234  1  0.95771601  0.41795395  0.64788830  1
  P  P235  1  0.95824911  0.41769284  0.89890989  1
  P  P236  1  0.95728109  0.75098879  0.14689568  1
  P  P237  1  0.95672524  0.74950470  0.39637810  1
  P  P238  1  0.95788789  0.74773219  0.64801372  1
  P  P239  1  0.95766205  0.74794693  0.89688483  1
  P  P240  1  0.20718859  0.08157716  0.22807787  1
  P  P241  1  0.20776538  0.08198723  0.47871650  1
  P  P242  1  0.20854758  0.08293819  0.72668867  1
  P  P243  1  0.20832421  0.08201900  0.97776477  1
  P  P244  1  0.20722642  0.41495854  0.22711278  1
  P  P245  1  0.20777279  0.41618258  0.47899366  1
  P  P246  1  0.20791138  0.41552926  0.72692710  1
  P  P247  1  0.20744377  0.41625347  0.97803750  1
  P  P248  1  0.20653230  0.75100566  0.22886608  1
  P  P249  1  0.20769620  0.75165343  0.47858861  1
  P  P250  1  0.20871428  0.75090454  0.72637320  1
  P  P251  1  0.20658777  0.75120365  0.97811800  1
  P  P252  1  0.70877021  0.08339370  0.22619546  1
  P  P253  1  0.70736028  0.08348301  0.47902657  1
  P  P254  1  0.70940839  0.08360086  0.72665079  1
  P  P255  1  0.70821214  0.08492362  0.97797070  1
  P  P256  1  0.70784132  0.41560301  0.22845145  1
  P  P257  1  0.70890005  0.41613858  0.47711500  1
  P  P258  1  0.70869443  0.41539282  0.72808658  1
  P  P259  1  0.70811098  0.41796903  0.97783473  1
  P  P260  1  0.70733955  0.74803338  0.22732072  1
  P  P261  1  0.70787959  0.74847601  0.47814140  1
  P  P262  1  0.70928556  0.74874331  0.72655602  1
  P  P263  1  0.70773023  0.74888631  0.97715111  1
  P  P264  1  0.29280106  0.25074313  0.02232312  1
  P  P265  1  0.29264122  0.24939190  0.27119730  1
  P  P266  1  0.29196604  0.24900506  0.52356822  1
  P  P267  1  0.29298014  0.24948231  0.77042536  1
  P  P268  1  0.29242726  0.58394567  0.02133374  1
  P  P269  1  0.29277266  0.58322478  0.27165840  1
  P  P270  1  0.29286388  0.58532590  0.52265992  1
  P  P271  1  0.29251785  0.58435582  0.77077670  1
  P  P272  1  0.29246936  0.91883880  0.02254596  1
  P  P273  1  0.29070501  0.91713696  0.27390428  1
  P  P274  1  0.29146687  0.91696765  0.52320855  1
  P  P275  1  0.29212703  0.91844305  0.77159068  1
  P  P276  1  0.79127993  0.25072294  0.02389297  1
  P  P277  1  0.79211438  0.25142731  0.27224102  1
  P  P278  1  0.79165645  0.25029960  0.52363760  1
  P  P279  1  0.79288862  0.24814386  0.77272035  1
  P  P280  1  0.79140480  0.58465098  0.02198186  1
  P  P281  1  0.79101776  0.58337212  0.27359831  1
  P  P282  1  0.79219944  0.58394220  0.52198035  1
  P  P283  1  0.79112486  0.58324591  0.77346494  1
  P  P284  1  0.79209554  0.91804364  0.02211298  1
  P  P285  1  0.79192049  0.91669230  0.27085359  1
  P  P286  1  0.79118851  0.91597777  0.52351615  1
  P  P287  1  0.79273857  0.91618783  0.77058675  1
  O  O288  1  0.03635219  0.25094512  0.18160666  1
  O  O289  1  0.03705311  0.25115230  0.43394866  1
  O  O290  1  0.03709432  0.25089825  0.68319296  1
  O  O291  1  0.03714324  0.25016873  0.93474088  1
  O  O292  1  0.03594889  0.58335010  0.18171669  1
  O  O293  1  0.03702497  0.58099201  0.43250493  1
  O  O294  1  0.03654614  0.58216937  0.68326201  1
  O  O295  1  0.03606188  0.58347346  0.93232534  1
  O  O296  1  0.03613454  0.91656316  0.18232902  1
  O  O297  1  0.03625891  0.91503017  0.43224460  1
  O  O298  1  0.03695249  0.91710203  0.68420596  1
  O  O299  1  0.03678336  0.91815392  0.93290000  1
  O  O300  1  0.53724714  0.24870452  0.18315014  1
  O  O301  1  0.53737159  0.24851909  0.43195037  1
  O  O302  1  0.53772170  0.25107879  0.68379458  1
  O  O303  1  0.53812749  0.25161655  0.93214588  1
  O  O304  1  0.53669974  0.58404388  0.18029361  1
  O  O305  1  0.53814333  0.58346592  0.43272174  1
  O  O306  1  0.53761956  0.58339659  0.68421889  1
  O  O307  1  0.53624617  0.58417018  0.93180589  1
  O  O308  1  0.53682291  0.91554793  0.18254962  1
  O  O309  1  0.53719821  0.91623258  0.43086871  1
  O  O310  1  0.53776633  0.91650529  0.68415030  1
  O  O311  1  0.53748360  0.91594642  0.93153678  1
  O  O312  1  0.46347169  0.08262430  0.06809637  1
  O  O313  1  0.46285111  0.08279019  0.31587653  1
  O  O314  1  0.46306479  0.08184165  0.56771362  1
  O  O315  1  0.46335147  0.08229617  0.81603222  1
  O  O316  1  0.46261785  0.41806862  0.06554064  1
  O  O317  1  0.46177277  0.41614759  0.31662986  1
  O  O318  1  0.46366179  0.41652206  0.56863614  1
  O  O319  1  0.46441138  0.41800026  0.81619251  1
  O  O320  1  0.46317637  0.75169957  0.06627978  1
  O  O321  1  0.46201074  0.75095888  0.31649936  1
  O  O322  1  0.46361884  0.75001500  0.56913458  1
  O  O323  1  0.46427103  0.75055618  0.81750678  1
  O  O324  1  0.96318361  0.08428243  0.06583060  1
  O  O325  1  0.96109355  0.08322621  0.31700240  1
  O  O326  1  0.96233793  0.08259337  0.56825436  1
  O  O327  1  0.96398297  0.08249812  0.81860953  1
  O  O328  1  0.96276943  0.41848219  0.06719706  1
  O  O329  1  0.96307569  0.41710758  0.31900366  1
  O  O330  1  0.96313931  0.41756404  0.56802986  1
  O  O331  1  0.96307511  0.41753138  0.81894493  1
  O  O332  1  0.96263405  0.75043622  0.06692246  1
  O  O333  1  0.96203646  0.75028480  0.31642340  1
  O  O334  1  0.96255849  0.74777255  0.56800144  1
  O  O335  1  0.96337517  0.74749488  0.81698325  1
  O  O336  1  0.21335254  0.08208536  0.05773779  1
  O  O337  1  0.21213558  0.08158476  0.30808239  1
  O  O338  1  0.21342338  0.08255947  0.55858678  1
  O  O339  1  0.21406535  0.08263506  0.80664111  1
  O  O340  1  0.21264427  0.41569314  0.05798407  1
  O  O341  1  0.21238747  0.41542765  0.30712175  1
  O  O342  1  0.21326520  0.41590524  0.55891952  1
  O  O343  1  0.21288252  0.41588729  0.80691608  1
  O  O344  1  0.21131577  0.75115290  0.05810279  1
  O  O345  1  0.21171507  0.75151432  0.30884064  1
  O  O346  1  0.21345646  0.75107022  0.55847245  1
  O  O347  1  0.21311164  0.75116801  0.80642642  1
  O  O348  1  0.71352277  0.08440414  0.05785079  1
  O  O349  1  0.71325314  0.08361492  0.30621728  1
  O  O350  1  0.71307366  0.08340542  0.55889252  1
  O  O351  1  0.71397772  0.08386567  0.80663940  1
  O  O352  1  0.71277522  0.41773250  0.05779748  1
  O  O353  1  0.71327776  0.41572636  0.30830539  1
  O  O354  1  0.71374979  0.41634894  0.55709527  1
  O  O355  1  0.71375885  0.41584538  0.80797620  1
  O  O356  1  0.71252291  0.74882261  0.05711605  1
  O  O357  1  0.71265221  0.74810882  0.30727989  1
  O  O358  1  0.71373938  0.74879254  0.55798838  1
  O  O359  1  0.71417734  0.74875847  0.80651920  1
  O  O360  1  0.28730481  0.24977982  0.19125459  1
  O  O361  1  0.28695083  0.24883980  0.44352679  1
  O  O362  1  0.28750633  0.24949312  0.69053016  1
  O  O363  1  0.28794673  0.25018920  0.94228354  1
  O  O364  1  0.28737687  0.58306829  0.19170761  1
  O  O365  1  0.28782733  0.58495495  0.44265021  1
  O  O366  1  0.28749101  0.58492839  0.69078884  1
  O  O367  1  0.28729711  0.58396418  0.94131940  1
  O  O368  1  0.28547729  0.91770520  0.19396000  1
  O  O369  1  0.28609583  0.91654795  0.44333600  1
  O  O370  1  0.28684821  0.91798244  0.69172410  1
  O  O371  1  0.28730676  0.91899499  0.94257718  1
  O  O372  1  0.78668577  0.25147399  0.19238525  1
  O  O373  1  0.78662555  0.25098075  0.44368386  1
  O  O374  1  0.78774125  0.24820688  0.69287344  1
  O  O375  1  0.78664036  0.25003167  0.94391962  1
  O  O376  1  0.78612476  0.58325742  0.19360719  1
  O  O377  1  0.78663788  0.58369629  0.44216896  1
  O  O378  1  0.78647974  0.58302967  0.69346673  1
  O  O379  1  0.78619513  0.58430188  0.94211799  1
  O  O380  1  0.78639640  0.91724131  0.19093713  1
  O  O381  1  0.78650235  0.91597660  0.44346766  1
  O  O382  1  0.78753371  0.91597222  0.69068936  1
  O  O383  1  0.78716128  0.91789192  0.94211033  1
  O  O384  1  0.22836536  0.25092218  0.05767100  1
  O  O385  1  0.22837694  0.24921457  0.30672121  1
  O  O386  1  0.22774380  0.24887511  0.55945250  1
  O  O387  1  0.22881069  0.24920746  0.80627107  1
  O  O388  1  0.22800521  0.58349174  0.05643179  1
  O  O389  1  0.22841142  0.58364154  0.30696119  1
  O  O390  1  0.22848385  0.58517961  0.55795651  1
  O  O391  1  0.22806973  0.58411135  0.80586715  1
  O  O392  1  0.22807566  0.91919805  0.05809230  1
  O  O393  1  0.22663035  0.91703072  0.31029367  1
  O  O394  1  0.22745159  0.91749504  0.55964573  1
  O  O395  1  0.22793986  0.91911125  0.80772674  1
  O  O396  1  0.72713719  0.25127193  0.05974449  1
  O  O397  1  0.72794922  0.25206239  0.30846619  1
  O  O398  1  0.72759840  0.24950794  0.55980311  1
  O  O399  1  0.72865170  0.24828194  0.80869548  1
  O  O400  1  0.72720013  0.58472835  0.05802954  1
  O  O401  1  0.72691473  0.58351873  0.30959727  1
  O  O402  1  0.72814626  0.58423283  0.55836886  1
  O  O403  1  0.72692609  0.58335564  0.80927151  1
  O  O404  1  0.72777093  0.91788451  0.05756384  1
  O  O405  1  0.72772185  0.91627843  0.30663090  1
  O  O406  1  0.72707529  0.91606003  0.55927057  1
  O  O407  1  0.72853601  0.91638591  0.80634924  1
  O  O408  1  0.27159787  0.08170820  0.19258418  1
  O  O409  1  0.27180814  0.08110002  0.44227383  1
  O  O410  1  0.27259127  0.08331742  0.69025743  1
  O  O411  1  0.27261216  0.08145814  0.94198132  1
  O  O412  1  0.27161626  0.41437062  0.19162399  1
  O  O413  1  0.27203506  0.41655108  0.44342264  1
  O  O414  1  0.27228776  0.41533235  0.69164874  1
  O  O415  1  0.27179295  0.41679589  0.94270145  1
  O  O416  1  0.27090120  0.75084419  0.19357371  1
  O  O417  1  0.27171669  0.75242610  0.44212169  1
  O  O418  1  0.27302947  0.75085408  0.69099727  1
  O  O419  1  0.27113356  0.75139815  0.94334873  1
  O  O420  1  0.77295355  0.08282399  0.19053775  1
  O  O421  1  0.77150492  0.08373074  0.44306366  1
  O  O422  1  0.77352964  0.08384246  0.69073520  1
  O  O423  1  0.77245109  0.08496786  0.94193938  1
  O  O424  1  0.77195080  0.41561407  0.19219874  1
  O  O425  1  0.77303015  0.41578005  0.44108625  1
  O  O426  1  0.77287831  0.41556177  0.69221451  1
  O  O427  1  0.77251511  0.41773606  0.94249637  1
  O  O428  1  0.77156109  0.74808898  0.19142894  1
  O  O429  1  0.77186714  0.74805868  0.44154635  1
  O  O430  1  0.77332759  0.74849619  0.69038790  1
  O  O431  1  0.77210304  0.74830419  0.94170961  1
  O  O432  1  0.02140094  0.08355521  0.18188916  1
  O  O433  1  0.02056834  0.08331495  0.43187479  1
  O  O434  1  0.02232223  0.08184261  0.68333977  1
  O  O435  1  0.02291285  0.08326922  0.93460419  1
  O  O436  1  0.02171624  0.41900743  0.18304438  1
  O  O437  1  0.02258444  0.41691890  0.43494615  1
  O  O438  1  0.02187602  0.41868384  0.68402595  1
  O  O439  1  0.02238695  0.41805094  0.93476575  1
  O  O440  1  0.02142038  0.75124618  0.18292035  1
  O  O441  1  0.02104089  0.74896565  0.43179412  1
  O  O442  1  0.02226971  0.74788822  0.68323445  1
  O  O443  1  0.02175024  0.74821179  0.93297002  1
  O  O444  1  0.52313936  0.08350352  0.18371796  1
  O  O445  1  0.52186681  0.08275242  0.43138986  1
  O  O446  1  0.52271939  0.08203112  0.68294719  1
  O  O447  1  0.52218332  0.08280219  0.93135486  1
  O  O448  1  0.52145410  0.41684956  0.18093232  1
  O  O449  1  0.52166286  0.41615513  0.43123314  1
  O  O450  1  0.52339785  0.41754087  0.68416580  1
  O  O451  1  0.52241157  0.41915168  0.93259218  1
  O  O452  1  0.52185063  0.75209619  0.18237429  1
  O  O453  1  0.52162565  0.75016075  0.43145320  1
  O  O454  1  0.52345187  0.75103542  0.68456490  1
  O  O455  1  0.52310929  0.75126518  0.93372823  1
  O  O456  1  0.47861632  0.25013051  0.06761033  1
  O  O457  1  0.47814648  0.24776498  0.31648493  1
  O  O458  1  0.47832266  0.24982668  0.56864934  1
  O  O459  1  0.47881787  0.25151326  0.81686877  1
  O  O460  1  0.47719374  0.58328398  0.06455452  1
  O  O461  1  0.47851066  0.58393414  0.31780709  1
  O  O462  1  0.47860131  0.58316406  0.56866793  1
  O  O463  1  0.47740905  0.58331065  0.81553270  1
  O  O464  1  0.47813567  0.91465708  0.06650358  1
  O  O465  1  0.47718258  0.91568141  0.31554735  1
  O  O466  1  0.47830507  0.91624602  0.56887556  1
  O  O467  1  0.47811080  0.91591031  0.81576561  1
  O  O468  1  0.97677300  0.25003582  0.06595626  1
  O  O469  1  0.97811059  0.25093989  0.31855214  1
  O  O470  1  0.97729605  0.25154211  0.56795275  1
  O  O471  1  0.97849891  0.25011260  0.81902849  1
  O  O472  1  0.97695209  0.58367700  0.06561665  1
  O  O473  1  0.97764325  0.58167663  0.31709948  1
  O  O474  1  0.97770566  0.58094510  0.56731099  1
  O  O475  1  0.97707785  0.58270071  0.81617657  1
  O  O476  1  0.97762300  0.91782140  0.06633815  1
  O  O477  1  0.97713200  0.91474120  0.31663852  1
  O  O478  1  0.97768159  0.91619107  0.56896108  1
  O  O479  1  0.97806874  0.91759656  0.81712903  1
  O  O480  1  0.07100292  0.31472726  0.07327410  1
  O  O481  1  0.07386741  0.31374597  0.32535069  1
  O  O482  1  0.07242557  0.31468676  0.57482267  1
  O  O483  1  0.07380527  0.31356499  0.82650668  1
  O  O484  1  0.07163854  0.64758596  0.07381381  1
  O  O485  1  0.07319495  0.64486115  0.32483587  1
  O  O486  1  0.07267311  0.64518515  0.57478801  1
  O  O487  1  0.07208795  0.64637940  0.82350242  1
  O  O488  1  0.07245186  0.98122338  0.07453939  1
  O  O489  1  0.07226294  0.97882242  0.32478095  1
  O  O490  1  0.07323508  0.97947362  0.57530285  1
  O  O491  1  0.07295359  0.98138302  0.82419851  1
  O  O492  1  0.57422035  0.31294828  0.07578612  1
  O  O493  1  0.57315100  0.31210012  0.32411426  1
  O  O494  1  0.57384019  0.31329773  0.57489903  1
  O  O495  1  0.57357979  0.31552483  0.82383960  1
  O  O496  1  0.57148975  0.64782672  0.07197696  1
  O  O497  1  0.57414465  0.64671800  0.32433992  1
  O  O498  1  0.57371655  0.64694940  0.57587532  1
  O  O499  1  0.57164655  0.64788281  0.82336531  1
  O  O500  1  0.57293251  0.97915863  0.07455941  1
  O  O501  1  0.57191801  0.97974569  0.32223840  1
  O  O502  1  0.57377022  0.97950490  0.57531392  1
  O  O503  1  0.57260159  0.98028477  0.82340740  1
  O  O504  1  0.42883588  0.01890754  0.17655490  1
  O  O505  1  0.42665302  0.01905595  0.42415716  1
  O  O506  1  0.42789148  0.01822289  0.67628784  1
  O  O507  1  0.42657075  0.01972225  0.92457521  1
  O  O508  1  0.42600987  0.35389053  0.17323580  1
  O  O509  1  0.42613677  0.35270646  0.42493135  1
  O  O510  1  0.42886494  0.35301920  0.67704318  1
  O  O511  1  0.42747075  0.35481839  0.92408220  1
  O  O512  1  0.42698798  0.68769445  0.17399968  1
  O  O513  1  0.42615657  0.68705720  0.42479093  1
  O  O514  1  0.42908338  0.68642339  0.67772954  1
  O  O515  1  0.42860277  0.68711702  0.92609291  1
  O  O516  1  0.92569311  0.02090432  0.17365850  1
  O  O517  1  0.92525515  0.01951267  0.42503725  1
  O  O518  1  0.92714379  0.01867105  0.67673055  1
  O  O519  1  0.92770018  0.01956671  0.92687309  1
  O  O520  1  0.92664265  0.35511439  0.17546313  1
  O  O521  1  0.92797388  0.35312526  0.42751093  1
  O  O522  1  0.92702669  0.35424683  0.67621823  1
  O  O523  1  0.92805119  0.35362416  0.92729590  1
  O  O524  1  0.92613105  0.68754626  0.17499343  1
  O  O525  1  0.92576592  0.68571978  0.42393578  1
  O  O526  1  0.92732308  0.68414096  0.67644969  1
  O  O527  1  0.92665505  0.68490893  0.92595021  1
  O  O528  1  0.17644593  0.01825219  0.19925804  1
  O  O529  1  0.17635406  0.01867369  0.45054802  1
  O  O530  1  0.17766366  0.01946594  0.69832868  1
  O  O531  1  0.17699699  0.01908324  0.94888194  1
  O  O532  1  0.17634659  0.35150046  0.19872329  1
  O  O533  1  0.17666873  0.35283377  0.45071004  1
  O  O534  1  0.17715339  0.35191813  0.69870449  1
  O  O535  1  0.17644218  0.35294368  0.94952146  1
  O  O536  1  0.17558721  0.68728969  0.20097733  1
  O  O537  1  0.17671618  0.68802877  0.45035158  1
  O  O538  1  0.17796167  0.68716451  0.69825646  1
  O  O539  1  0.17571666  0.68776915  0.94965070  1
  O  O540  1  0.67752400  0.02000151  0.19804455  1
  O  O541  1  0.67626473  0.01999801  0.45061275  1
  O  O542  1  0.67922723  0.01940103  0.69848105  1
  O  O543  1  0.67691790  0.02160406  0.94937921  1
  O  O544  1  0.67687310  0.35237008  0.19944160  1
  O  O545  1  0.67757701  0.35280155  0.44901885  1
  O  O546  1  0.67855218  0.35145416  0.69948508  1
  O  O547  1  0.67672499  0.35469487  0.94973617  1
  O  O548  1  0.67652162  0.68461592  0.19870323  1
  O  O549  1  0.67667242  0.68519649  0.44964507  1
  O  O550  1  0.67800525  0.68539269  0.69841761  1
  O  O551  1  0.67645396  0.68595190  0.94802229  1
  O  O552  1  0.32340462  0.31435336  0.05055686  1
  O  O553  1  0.32399139  0.31251426  0.29975055  1
  O  O554  1  0.32245285  0.31301124  0.55143829  1
  O  O555  1  0.32412474  0.31287155  0.79883325  1
  O  O556  1  0.32306115  0.64768640  0.04936097  1
  O  O557  1  0.32408925  0.64665987  0.29943392  1
  O  O558  1  0.32331881  0.64907052  0.55103924  1
  O  O559  1  0.32368712  0.64753270  0.79951618  1
  O  O560  1  0.32372824  0.98174039  0.05171661  1
  O  O561  1  0.32173626  0.98050326  0.30241259  1
  O  O562  1  0.32292954  0.98032360  0.55130054  1
  O  O563  1  0.32339455  0.98163722  0.80009698  1
  O  O564  1  0.82225127  0.31449954  0.05157857  1
  O  O565  1  0.82348338  0.31444378  0.30125272  1
  O  O566  1  0.82190740  0.31410793  0.55256431  1
  O  O567  1  0.82408264  0.31168514  0.80095729  1
  O  O568  1  0.82217497  0.64807215  0.05089427  1
  O  O569  1  0.82222863  0.64676138  0.30166908  1
  O  O570  1  0.82335978  0.64717545  0.55072142  1
  O  O571  1  0.82219666  0.64668298  0.80167666  1
  O  O572  1  0.82262757  0.98164785  0.05057589  1
  O  O573  1  0.82312594  0.97986474  0.29952201  1
  O  O574  1  0.82198632  0.97970094  0.55165199  1
  O  O575  1  0.82399105  0.97951064  0.79903395  1
  O  O576  1  0.42758701  0.14639269  0.17606307  1
  O  O577  1  0.42619990  0.14574134  0.42472853  1
  O  O578  1  0.42716029  0.14543892  0.67539769  1
  O  O579  1  0.42699027  0.14661664  0.92371879  1
  O  O580  1  0.42611992  0.48082869  0.17403428  1
  O  O581  1  0.42622658  0.47972426  0.42515445  1
  O  O582  1  0.42787271  0.48048954  0.67652255  1
  O  O583  1  0.42698012  0.48185588  0.92415949  1
  O  O584  1  0.42633196  0.81461833  0.17522495  1
  O  O585  1  0.42620044  0.81386779  0.42541299  1
  O  O586  1  0.42782843  0.81375177  0.67719385  1
  O  O587  1  0.42768449  0.81431939  0.92553089  1
  O  O588  1  0.92637907  0.14765085  0.17417025  1
  O  O589  1  0.92500427  0.14655409  0.42534529  1
  O  O590  1  0.92718307  0.14595557  0.67647274  1
  O  O591  1  0.92798872  0.14691057  0.92648104  1
  O  O592  1  0.92644213  0.48204734  0.17594338  1
  O  O593  1  0.92739823  0.48045081  0.42736621  1
  O  O594  1  0.92630010  0.48107419  0.67674748  1
  O  O595  1  0.92680921  0.48098823  0.92702343  1
  O  O596  1  0.92652458  0.81471631  0.17500209  1
  O  O597  1  0.92549634  0.81256914  0.42539661  1
  O  O598  1  0.92679278  0.81131966  0.67592213  1
  O  O599  1  0.92646300  0.81194926  0.92388385  1
  O  O600  1  0.07242606  0.18721267  0.07370192  1
  O  O601  1  0.07320056  0.18692212  0.32593761  1
  O  O602  1  0.07249170  0.18738511  0.57522612  1
  O  O603  1  0.07400473  0.18683850  0.82635688  1
  O  O604  1  0.07226500  0.52028120  0.07331946  1
  O  O605  1  0.07264017  0.51782765  0.32343005  1
  O  O606  1  0.07320365  0.51836900  0.57483701  1
  O  O607  1  0.07217180  0.51925359  0.82423959  1
  O  O608  1  0.07310866  0.85418326  0.07405933  1
  O  O609  1  0.07228420  0.85151718  0.32372866  1
  O  O610  1  0.07288618  0.85254564  0.57654215  1
  O  O611  1  0.07351255  0.85417684  0.82559777  1
  O  O612  1  0.57380905  0.18607331  0.07447859  1
  O  O613  1  0.57358440  0.18485677  0.32358235  1
  O  O614  1  0.57359485  0.18637007  0.57611500  1
  O  O615  1  0.57446951  0.18822109  0.82451894  1
  O  O616  1  0.57263713  0.52031686  0.07227328  1
  O  O617  1  0.57358369  0.51975154  0.32442817  1
  O  O618  1  0.57428775  0.52013111  0.57571868  1
  O  O619  1  0.57301269  0.52070944  0.82365267  1
  O  O620  1  0.57378250  0.85233779  0.07377298  1
  O  O621  1  0.57252296  0.85233210  0.32272414  1
  O  O622  1  0.57375003  0.85286576  0.57559277  1
  O  O623  1  0.57371433  0.85293324  0.82310707  1
  O  O624  1  0.32373435  0.18702195  0.05012197  1
  O  O625  1  0.32357606  0.18568740  0.29911936  1
  O  O626  1  0.32299571  0.18542245  0.55147693  1
  O  O627  1  0.32435903  0.18621169  0.79888025  1
  O  O628  1  0.32384808  0.52065804  0.04923662  1
  O  O629  1  0.32358900  0.51959013  0.29974370  1
  O  O630  1  0.32422440  0.52185366  0.55042712  1
  O  O631  1  0.32336927  0.52055385  0.79846683  1
  O  O632  1  0.32294758  0.85475645  0.05028966  1
  O  O633  1  0.32137099  0.85317542  0.30156172  1
  O  O634  1  0.32200378  0.85324054  0.55207419  1
  O  O635  1  0.32279014  0.85471308  0.80004377  1
  O  O636  1  0.82178793  0.18705759  0.05267616  1
  O  O637  1  0.82276817  0.18750723  0.30020201  1
  O  O638  1  0.82309304  0.18676890  0.55121982  1
  O  O639  1  0.82359658  0.18480967  0.80191965  1
  O  O640  1  0.82260866  0.52126029  0.05042898  1
  O  O641  1  0.82137320  0.51937088  0.30199705  1
  O  O642  1  0.82320139  0.52033564  0.55019408  1
  O  O643  1  0.82148495  0.51930888  0.80203030  1
  O  O644  1  0.82327308  0.85434805  0.04956148  1
  O  O645  1  0.82309635  0.85303422  0.29854645  1
  O  O646  1  0.82195962  0.85218407  0.55151271  1
  O  O647  1  0.82387640  0.85281877  0.79915135  1
  O  O648  1  0.17616458  0.14524723  0.20007216  1
  O  O649  1  0.17691562  0.14560985  0.45036453  1
  O  O650  1  0.17752255  0.14670011  0.69899825  1
  O  O651  1  0.17786085  0.14609211  0.94997781  1
  O  O652  1  0.17650151  0.47877855  0.19922865  1
  O  O653  1  0.17666721  0.47983681  0.45113106  1
  O  O654  1  0.17687976  0.47921224  0.69929360  1
  O  O655  1  0.17627643  0.47983349  0.95010133  1
  O  O656  1  0.17535170  0.81416319  0.20018720  1
  O  O657  1  0.17634296  0.81500832  0.45042529  1
  O  O658  1  0.17803166  0.81468511  0.69823875  1
  O  O659  1  0.17561636  0.81471334  0.94995330  1
  O  O660  1  0.67869994  0.14753366  0.19796895  1
  O  O661  1  0.67596307  0.14675220  0.45065256  1
  O  O662  1  0.67796540  0.14673773  0.69824529  1
  O  O663  1  0.67756874  0.14855134  0.94936910  1
  O  O664  1  0.67658559  0.47916592  0.20036414  1
  O  O665  1  0.67863612  0.48017352  0.44871404  1
  O  O666  1  0.67708136  0.47853077  0.69995523  1
  O  O667  1  0.67791134  0.48172569  0.94889688  1
  O  O668  1  0.67632862  0.81170800  0.19945488  1
  O  O669  1  0.67681860  0.81215110  0.45004090  1
  O  O670  1  0.67893248  0.81279432  0.69835718  1
  O  O671  1  0.67742742  0.81301524  0.94927453  1
