# generated using pymatgen
data_Na2MnFe(PO4)2
_symmetry_space_group_name_H-M   'P 1'
_cell_length_a   22.34197709
_cell_length_b   20.09454149
_cell_length_c   19.45223298
_cell_angle_alpha   89.98591394
_cell_angle_beta   89.94244656
_cell_angle_gamma   89.95384932
_symmetry_Int_Tables_number   1
_chemical_formula_structural   Na2MnFe(PO4)2
_chemical_formula_sum   'Na96 Mn48 Fe48 P96 O384'
_cell_volume   8733.10722638
_cell_formula_units_Z   48
loop_
 _symmetry_equiv_pos_site_id
 _symmetry_equiv_pos_as_xyz
  1  'x, y, z'
loop_
 _atom_site_type_symbol
 _atom_site_label
 _atom_site_symmetry_multiplicity
 _atom_site_fract_x
 _atom_site_fract_y
 _atom_site_fract_z
 _atom_site_occupancy
  Na  Na0  1  0.14021402  0.25012362  0.24451194  1
  Na  Na1  1  0.14042868  0.25055555  0.49454062  1
  Na  Na2  1  0.14069329  0.24967989  0.74380266  1
  Na  Na3  1  0.14015229  0.25146085  0.99446415  1
  Na  Na4  1  0.14042294  0.58278873  0.24381305  1
  Na  Na5  1  0.14067937  0.58400135  0.49319998  1
  Na  Na6  1  0.14095661  0.58227266  0.74526739  1
  Na  Na7  1  0.14111045  0.58258756  0.99360632  1
  Na  Na8  1  0.14092392  0.91621572  0.24509743  1
  Na  Na9  1  0.14103269  0.91752215  0.49461088  1
  Na  Na10  1  0.14040736  0.91718807  0.74331625  1
  Na  Na11  1  0.14105112  0.91527072  0.99415699  1
  Na  Na12  1  0.63993137  0.24894987  0.24222907  1
  Na  Na13  1  0.64048203  0.24934175  0.49372494  1
  Na  Na14  1  0.64087827  0.24957130  0.74328901  1
  Na  Na15  1  0.63981994  0.25009695  0.99391933  1
  Na  Na16  1  0.63988522  0.58443308  0.24256653  1
  Na  Na17  1  0.63986613  0.58377102  0.49389815  1
  Na  Na18  1  0.64063887  0.58371555  0.74301602  1
  Na  Na19  1  0.64047810  0.58394406  0.99261520  1
  Na  Na20  1  0.64103146  0.91792794  0.24284408  1
  Na  Na21  1  0.64054434  0.91779223  0.49343086  1
  Na  Na22  1  0.64023081  0.91646090  0.74226415  1
  Na  Na23  1  0.64020996  0.91647501  0.99244695  1
  Na  Na24  1  0.35946678  0.08339192  0.00603942  1
  Na  Na25  1  0.35962157  0.08264519  0.25683546  1
  Na  Na26  1  0.35995548  0.08432710  0.50749164  1
  Na  Na27  1  0.36025131  0.08413293  0.75594781  1
  Na  Na28  1  0.36026421  0.41624655  0.00612610  1
  Na  Na29  1  0.36023598  0.41581305  0.25707236  1
  Na  Na30  1  0.35939341  0.41650280  0.50494859  1
  Na  Na31  1  0.35929901  0.41653694  0.75652808  1
  Na  Na32  1  0.36093549  0.74901135  0.00628838  1
  Na  Na33  1  0.35989917  0.74869001  0.25641613  1
  Na  Na34  1  0.35992129  0.75007778  0.50590712  1
  Na  Na35  1  0.36078400  0.74926507  0.75739742  1
  Na  Na36  1  0.85827612  0.08392003  0.00623357  1
  Na  Na37  1  0.85865310  0.08384978  0.25568989  1
  Na  Na38  1  0.85920310  0.08477915  0.50673026  1
  Na  Na39  1  0.85938970  0.08282886  0.75627753  1
  Na  Na40  1  0.85924315  0.41520720  0.00721009  1
  Na  Na41  1  0.85954719  0.41605401  0.25674774  1
  Na  Na42  1  0.85831091  0.41684909  0.50655603  1
  Na  Na43  1  0.85857986  0.41609524  0.75627808  1
  Na  Na44  1  0.85966369  0.75061265  0.00562893  1
  Na  Na45  1  0.85887850  0.75136993  0.25580109  1
  Na  Na46  1  0.85908284  0.74964250  0.50644655  1
  Na  Na47  1  0.85939455  0.74999790  0.75692940  1
  Na  Na48  1  0.10928567  0.08454545  0.11975239  1
  Na  Na49  1  0.11024206  0.08552731  0.37015665  1
  Na  Na50  1  0.11029305  0.08304134  0.61902074  1
  Na  Na51  1  0.10933010  0.08260964  0.86868025  1
  Na  Na52  1  0.10975491  0.41715087  0.11928261  1
  Na  Na53  1  0.10930672  0.41699868  0.36900614  1
  Na  Na54  1  0.10968210  0.41565555  0.61926372  1
  Na  Na55  1  0.11020244  0.41565738  0.86944187  1
  Na  Na56  1  0.11018535  0.74994949  0.11960589  1
  Na  Na57  1  0.11024551  0.74954778  0.36823403  1
  Na  Na58  1  0.10991754  0.75032624  0.61958443  1
  Na  Na59  1  0.11000336  0.74963699  0.86940194  1
  Na  Na60  1  0.60968662  0.08388262  0.11775260  1
  Na  Na61  1  0.61048301  0.08312790  0.36758961  1
  Na  Na62  1  0.61066536  0.08324939  0.61801352  1
  Na  Na63  1  0.60942770  0.08276566  0.86742720  1
  Na  Na64  1  0.60955978  0.41705406  0.11858121  1
  Na  Na65  1  0.60904312  0.41649589  0.36740772  1
  Na  Na66  1  0.61004209  0.41734672  0.61836133  1
  Na  Na67  1  0.60995303  0.41576286  0.86821483  1
  Na  Na68  1  0.60992230  0.75024854  0.11779851  1
  Na  Na69  1  0.60987594  0.74854129  0.36844962  1
  Na  Na70  1  0.60998165  0.75035759  0.61899844  1
  Na  Na71  1  0.61022502  0.75048503  0.86737946  1
  Na  Na72  1  0.39035237  0.25152575  0.13202392  1
  Na  Na73  1  0.39046058  0.24855354  0.38127802  1
  Na  Na74  1  0.39006921  0.24943247  0.63221318  1
  Na  Na75  1  0.39031556  0.25001668  0.88062945  1
  Na  Na76  1  0.39148495  0.58297719  0.13108324  1
  Na  Na77  1  0.39009333  0.58303651  0.38076939  1
  Na  Na78  1  0.39031829  0.58468220  0.63112971  1
  Na  Na79  1  0.39069893  0.58367787  0.88229163  1
  Na  Na80  1  0.39067318  0.91477981  0.13138514  1
  Na  Na81  1  0.39082825  0.91550284  0.38159897  1
  Na  Na82  1  0.39128110  0.91734048  0.63185621  1
  Na  Na83  1  0.39100873  0.91562933  0.88043317  1
  Na  Na84  1  0.88926000  0.25161973  0.13147457  1
  Na  Na85  1  0.88929176  0.25045551  0.38103395  1
  Na  Na86  1  0.88912151  0.24853926  0.63236895  1
  Na  Na87  1  0.88891751  0.24966726  0.88188548  1
  Na  Na88  1  0.89055376  0.58339962  0.13067566  1
  Na  Na89  1  0.88956706  0.58366210  0.38102141  1
  Na  Na90  1  0.88942322  0.58412935  0.63190058  1
  Na  Na91  1  0.88997205  0.58326102  0.88111779  1
  Na  Na92  1  0.88944280  0.91695646  0.13112761  1
  Na  Na93  1  0.88997828  0.91837028  0.38092625  1
  Na  Na94  1  0.89022228  0.91720973  0.63141501  1
  Na  Na95  1  0.89013375  0.91533931  0.88074646  1
  Mn  Mn96  1  0.50098687  0.16552562  0.49983226  1
  Mn  Mn97  1  0.00036157  0.16557507  0.75121933  1
  Mn  Mn98  1  -0.00024983  0.49977198  0.00034528  1
  Mn  Mn99  1  -0.00179812  0.33260794  0.49976528  1
  Mn  Mn100  1  0.25044508  0.66628962  0.62482713  1
  Mn  Mn101  1  0.74873909  0.50074625  0.37554586  1
  Mn  Mn102  1  0.00053181  0.00106082  0.50076366  1
  Mn  Mn103  1  -0.00009144  0.66678624  0.50020139  1
  Mn  Mn104  1  0.49972132  0.50098262  0.74959653  1
  Mn  Mn105  1  -0.00064797  0.49983407  0.50012017  1
  Mn  Mn106  1  0.49988552  0.33288566  0.74923160  1
  Mn  Mn107  1  0.49951783  0.50082368  0.49893366  1
  Mn  Mn108  1  0.25111318  0.49900129  0.12452976  1
  Mn  Mn109  1  -0.00051919  0.33240746  0.74979853  1
  Mn  Mn110  1  0.25053391  0.00016331  0.37544506  1
  Mn  Mn111  1  -0.00103733  0.16767220  -0.00028431  1
  Mn  Mn112  1  0.50058991  0.83299345  0.50034860  1
  Mn  Mn113  1  0.25072638  0.49939160  0.62518268  1
  Mn  Mn114  1  -0.00003982  0.00131600  0.25068865  1
  Mn  Mn115  1  0.25018912  0.33289548  0.37586239  1
  Mn  Mn116  1  0.49917920  -0.00075757  -0.00072317  1
  Mn  Mn117  1  0.00075016  0.66695008  0.75042535  1
  Mn  Mn118  1  0.74884177  0.33238941  0.37594348  1
  Mn  Mn119  1  0.25079323  0.66646045  0.12521719  1
  Mn  Mn120  1  0.74982730  0.49944770  0.87451277  1
  Mn  Mn121  1  0.25014013  0.83358865  0.62539085  1
  Mn  Mn122  1  0.75020199  0.83330757  0.62404740  1
  Mn  Mn123  1  0.00014067  0.83382327  0.50031387  1
  Mn  Mn124  1  -0.00041194  0.49948068  0.75078761  1
  Mn  Mn125  1  0.49986083  0.33284040  0.49942535  1
  Mn  Mn126  1  0.74965403  0.00014172  0.87489649  1
  Mn  Mn127  1  -0.00121511  0.16857886  0.24942189  1
  Mn  Mn128  1  0.50049778  -0.00026790  0.24943708  1
  Mn  Mn129  1  0.74989369  0.83428007  0.37499007  1
  Mn  Mn130  1  0.75011610  0.66787842  0.12380161  1
  Mn  Mn131  1  0.25014182  -0.00010552  0.87542730  1
  Mn  Mn132  1  0.49931793  0.16737825  -0.00063334  1
  Mn  Mn133  1  0.25099118  0.83236816  0.87437266  1
  Mn  Mn134  1  0.24971731  -0.00149929  0.12642628  1
  Mn  Mn135  1  0.50077585  0.83175945  0.25071132  1
  Mn  Mn136  1  -0.00009096  0.83364728  0.25023144  1
  Mn  Mn137  1  0.24940771  0.16749756  0.87571097  1
  Mn  Mn138  1  -0.00090037  0.66615074  0.24976517  1
  Mn  Mn139  1  0.00075951  0.83290191  0.00050701  1
  Mn  Mn140  1  0.75024692  0.49951158  0.12433466  1
  Mn  Mn141  1  0.24986639  0.16685879  0.12546865  1
  Mn  Mn142  1  0.00001138  -0.00022430  -0.00013686  1
  Mn  Mn143  1  0.50062232  0.50012542  0.00008791  1
  Fe  Fe144  1  0.74990347  0.83377868  0.87429682  1
  Fe  Fe145  1  0.25083293  0.83334451  0.37550790  1
  Fe  Fe146  1  0.25032432  0.16690371  0.37606564  1
  Fe  Fe147  1  0.75039977  0.66680493  0.87440357  1
  Fe  Fe148  1  0.25037860  0.16748718  0.62568050  1
  Fe  Fe149  1  0.74929847  0.16674633  0.12460282  1
  Fe  Fe150  1  0.50111324  0.66704209  -0.00005798  1
  Fe  Fe151  1  0.74957056  0.66665534  0.62521372  1
  Fe  Fe152  1  0.74960030  0.50017043  0.62536607  1
  Fe  Fe153  1  0.50027575  0.33360460  0.00024904  1
  Fe  Fe154  1  -0.00025351  0.16692692  0.50027413  1
  Fe  Fe155  1  0.74906058  0.16691681  0.87496094  1
  Fe  Fe156  1  0.25008969  0.66697540  0.37458461  1
  Fe  Fe157  1  0.75011325  0.00102117  0.37393482  1
  Fe  Fe158  1  -0.00022476  0.50029218  0.24973939  1
  Fe  Fe159  1  0.50002311  0.66667827  0.49997619  1
  Fe  Fe160  1  0.50025851  0.83330958  0.74971195  1
  Fe  Fe161  1  -0.00033518  -0.00048813  0.74977018  1
  Fe  Fe162  1  0.49992575  0.66613497  0.24934179  1
  Fe  Fe163  1  0.50076478  0.16615776  0.75002614  1
  Fe  Fe164  1  -0.00003286  0.33437382  0.25066155  1
  Fe  Fe165  1  0.75016131  0.00058141  0.62427488  1
  Fe  Fe166  1  0.25046666  0.49918636  0.87481492  1
  Fe  Fe167  1  0.25102606  0.00098662  0.62445961  1
  Fe  Fe168  1  0.50044493  0.66742804  0.75049012  1
  Fe  Fe169  1  0.00026923  0.66658612  0.00018391  1
  Fe  Fe170  1  -0.00029551  0.33391025  0.00064421  1
  Fe  Fe171  1  0.24947550  0.49962857  0.37521549  1
  Fe  Fe172  1  0.74920209  0.33252141  0.12531338  1
  Fe  Fe173  1  0.25018515  0.33328733  0.12522216  1
  Fe  Fe174  1  -0.00012001  0.83325418  0.75029597  1
  Fe  Fe175  1  0.25049968  0.83224477  0.12524573  1
  Fe  Fe176  1  0.25049018  0.66604676  0.87560683  1
  Fe  Fe177  1  0.50018663  0.50021682  0.24941170  1
  Fe  Fe178  1  0.74985372  0.16666846  0.62498110  1
  Fe  Fe179  1  0.25056144  0.33328452  0.87465938  1
  Fe  Fe180  1  0.50068427  0.83288769  -0.00068659  1
  Fe  Fe181  1  0.74939473  0.83399829  0.12455283  1
  Fe  Fe182  1  0.50035301  -0.00002926  0.50032723  1
  Fe  Fe183  1  0.49929175  0.16630744  0.24971252  1
  Fe  Fe184  1  0.50020616  0.33319549  0.24957706  1
  Fe  Fe185  1  0.74964647  0.00047084  0.12414241  1
  Fe  Fe186  1  0.24966461  0.33342797  0.62511726  1
  Fe  Fe187  1  0.74979431  0.66695317  0.37502681  1
  Fe  Fe188  1  0.74947225  0.33297111  0.87490589  1
  Fe  Fe189  1  0.50053731  -0.00006458  0.74995089  1
  Fe  Fe190  1  0.74976965  0.16618228  0.37445154  1
  Fe  Fe191  1  0.74953443  0.33285505  0.62540660  1
  P  P192  1  0.04165047  0.25232680  0.10309873  1
  P  P193  1  0.04169897  0.25147438  0.35296356  1
  P  P194  1  0.04184369  0.24843428  0.60265022  1
  P  P195  1  0.04265012  0.25021088  0.85404028  1
  P  P196  1  0.04252057  0.58414493  0.10272836  1
  P  P197  1  0.04210324  0.58207347  0.35229939  1
  P  P198  1  0.04294787  0.58326503  0.60339469  1
  P  P199  1  0.04289029  0.58308837  0.85416495  1
  P  P200  1  0.04322882  0.91697738  0.10351416  1
  P  P201  1  0.04308096  0.91753657  0.35363597  1
  P  P202  1  0.04293225  0.91689320  0.60444430  1
  P  P203  1  0.04169619  0.91631291  0.85145169  1
  P  P204  1  0.54142845  0.25151107  0.10317870  1
  P  P205  1  0.54144238  0.24930152  0.35081797  1
  P  P206  1  0.54270213  0.24934610  0.60320412  1
  P  P207  1  0.54233939  0.24891392  0.85225170  1
  P  P208  1  0.54289885  0.58464714  0.10263696  1
  P  P209  1  0.54141052  0.58353600  0.35123326  1
  P  P210  1  0.54185760  0.58516930  0.60255766  1
  P  P211  1  0.54258282  0.58496508  0.85260878  1
  P  P212  1  0.54220605  0.91516682  0.10171995  1
  P  P213  1  0.54336437  0.91635364  0.35333744  1
  P  P214  1  0.54238197  0.91809444  0.60312007  1
  P  P215  1  0.54168081  0.91620716  0.85130650  1
  P  P216  1  0.45737746  0.08437114  0.14731160  1
  P  P217  1  0.45806332  0.08160047  0.39732601  1
  P  P218  1  0.45935903  0.08297902  0.64824276  1
  P  P219  1  0.45734043  0.08302159  0.89574704  1
  P  P220  1  0.45894379  0.41674588  0.14803637  1
  P  P221  1  0.45747502  0.41634469  0.39540313  1
  P  P222  1  0.45694930  0.41725153  0.64642807  1
  P  P223  1  0.45839953  0.41557920  0.89759905  1
  P  P224  1  0.45829936  0.74833734  0.14689194  1
  P  P225  1  0.45829971  0.74814108  0.39745342  1
  P  P226  1  0.45886723  0.74994960  0.64835405  1
  P  P227  1  0.45943729  0.74984211  0.89763637  1
  P  P228  1  0.95644756  0.08419157  0.14678286  1
  P  P229  1  0.95733587  0.08546535  0.39788778  1
  P  P230  1  0.95792877  0.08245900  0.64764887  1
  P  P231  1  0.95656647  0.08256464  0.89655471  1
  P  P232  1  0.95821352  0.41696330  0.14841726  1
  P  P233  1  0.95622712  0.41692700  0.39606583  1
  P  P234  1  0.95627266  0.41629862  0.64708298  1
  P  P235  1  0.95697709  0.41527756  0.89802833  1
  P  P236  1  0.95694947  0.74989074  0.14642439  1
  P  P237  1  0.95687641  0.75022466  0.39699058  1
  P  P238  1  0.95736150  0.75136026  0.64802150  1
  P  P239  1  0.95819807  0.74905904  0.89741498  1
  P  P240  1  0.20719782  0.08326593  0.22924697  1
  P  P241  1  0.20876420  0.08494745  0.47894997  1
  P  P242  1  0.20898891  0.08381860  0.72668810  1
  P  P243  1  0.20667507  0.08329827  0.97867795  1
  P  P244  1  0.20848828  0.41544466  0.22790120  1
  P  P245  1  0.20728635  0.41743667  0.47796876  1
  P  P246  1  0.20798843  0.41531545  0.72831651  1
  P  P247  1  0.20933500  0.41588007  0.97680417  1
  P  P248  1  0.20838006  0.75085077  0.22861148  1
  P  P249  1  0.20879940  0.75032081  0.47658277  1
  P  P250  1  0.20795757  0.74911224  0.72876067  1
  P  P251  1  0.20863971  0.74869746  0.97791781  1
  P  P252  1  0.70825250  0.08347723  0.22630882  1
  P  P253  1  0.70863680  0.08356775  0.47667596  1
  P  P254  1  0.70881612  0.08329643  0.72644191  1
  P  P255  1  0.70716405  0.08490197  0.97753520  1
  P  P256  1  0.70770732  0.41556751  0.22729620  1
  P  P257  1  0.70637092  0.41674131  0.47919864  1
  P  P258  1  0.70836210  0.41602361  0.72683872  1
  P  P259  1  0.70768972  0.41478555  0.97764312  1
  P  P260  1  0.70758402  0.75188026  0.22712544  1
  P  P261  1  0.70783843  0.74899428  0.47755075  1
  P  P262  1  0.70830014  0.74925199  0.72766942  1
  P  P263  1  0.70889049  0.75078071  0.97591902  1
  P  P264  1  0.29237271  0.25157941  0.02254974  1
  P  P265  1  0.29225624  0.24871126  0.27301475  1
  P  P266  1  0.29185422  0.25025920  0.52371323  1
  P  P267  1  0.29215978  0.25095256  0.77180080  1
  P  P268  1  0.29342620  0.58291620  0.02112848  1
  P  P269  1  0.29113634  0.58257999  0.27352806  1
  P  P270  1  0.29259598  0.58299421  0.52082846  1
  P  P271  1  0.29209628  0.58297650  0.77388264  1
  P  P272  1  0.29276129  0.91478848  0.02292303  1
  P  P273  1  0.29294773  0.91469614  0.27279213  1
  P  P274  1  0.29275210  0.91777006  0.52257711  1
  P  P275  1  0.29299340  0.91737173  0.77119849  1
  P  P276  1  0.79061969  0.24981730  0.02282163  1
  P  P277  1  0.79104568  0.24862548  0.27194889  1
  P  P278  1  0.79090119  0.24994428  0.52352540  1
  P  P279  1  0.79090297  0.24972434  0.77297024  1
  P  P280  1  0.79259561  0.58353926  0.02088893  1
  P  P281  1  0.79152218  0.58477272  0.27242498  1
  P  P282  1  0.79062884  0.58379566  0.52340348  1
  P  P283  1  0.79181252  0.58419891  0.77171033  1
  P  P284  1  0.79069048  0.91661031  0.02264024  1
  P  P285  1  0.79203261  0.91853491  0.27148643  1
  P  P286  1  0.79217146  0.91872017  0.52175554  1
  P  P287  1  0.79175602  0.91599052  0.77188792  1
  O  O288  1  0.03632950  0.25282986  0.18306381  1
  O  O289  1  0.03635440  0.25040416  0.43288084  1
  O  O290  1  0.03725105  0.24847141  0.68265804  1
  O  O291  1  0.03739708  0.25093153  0.93398960  1
  O  O292  1  0.03701643  0.58329883  0.18265958  1
  O  O293  1  0.03724929  0.58238236  0.43228528  1
  O  O294  1  0.03811203  0.58329928  0.68341714  1
  O  O295  1  0.03758958  0.58350975  0.93410193  1
  O  O296  1  0.03814689  0.91707337  0.18346141  1
  O  O297  1  0.03807015  0.91755139  0.43364066  1
  O  O298  1  0.03747277  0.91661165  0.68437078  1
  O  O299  1  0.03710453  0.91628870  0.93148221  1
  O  O300  1  0.53577696  0.25118095  0.18304357  1
  O  O301  1  0.53664668  0.24907420  0.43084478  1
  O  O302  1  0.53755674  0.24871875  0.68311397  1
  O  O303  1  0.53706994  0.24957433  0.93217352  1
  O  O304  1  0.53747044  0.58436116  0.18248961  1
  O  O305  1  0.53646106  0.58351575  0.43117979  1
  O  O306  1  0.53665791  0.58532254  0.68249462  1
  O  O307  1  0.53775842  0.58477040  0.93258568  1
  O  O308  1  0.53734381  0.91529559  0.18166475  1
  O  O309  1  0.53818463  0.91690913  0.43329490  1
  O  O310  1  0.53689511  0.91802323  0.68296802  1
  O  O311  1  0.53673109  0.91544153  0.93124967  1
  O  O312  1  0.46208929  0.08430388  0.06732347  1
  O  O313  1  0.46298271  0.08237745  0.31737245  1
  O  O314  1  0.46428946  0.08253797  0.56824777  1
  O  O315  1  0.46317664  0.08298735  0.81588510  1
  O  O316  1  0.46401030  0.41664506  0.06804463  1
  O  O317  1  0.46309050  0.41615882  0.31551659  1
  O  O318  1  0.46192922  0.41728250  0.56644973  1
  O  O319  1  0.46327019  0.41595171  0.81766496  1
  O  O320  1  0.46375180  0.74867259  0.06704812  1
  O  O321  1  0.46347824  0.74791503  0.31754612  1
  O  O322  1  0.46345242  0.74991615  0.56839787  1
  O  O323  1  0.46450026  0.74998129  0.81773193  1
  O  O324  1  0.96149250  0.08412225  0.06684593  1
  O  O325  1  0.96206894  0.08546871  0.31790532  1
  O  O326  1  0.96305824  0.08356080  0.56770692  1
  O  O327  1  0.96196264  0.08186537  0.81658717  1
  O  O328  1  0.96325576  0.41640495  0.06842154  1
  O  O329  1  0.96171033  0.41717195  0.31613631  1
  O  O330  1  0.96095695  0.41625057  0.56708448  1
  O  O331  1  0.96188992  0.41548853  0.81807514  1
  O  O332  1  0.96246865  0.74925377  0.06648739  1
  O  O333  1  0.96172229  0.75009641  0.31698563  1
  O  O334  1  0.96216023  0.75097493  0.56801810  1
  O  O335  1  0.96368114  0.75015326  0.81748303  1
  O  O336  1  0.21168009  0.08306252  0.05860849  1
  O  O337  1  0.21259553  0.08370945  0.30918514  1
  O  O338  1  0.21453036  0.08471072  0.55880549  1
  O  O339  1  0.21346767  0.08362331  0.80671921  1
  O  O340  1  0.21415906  0.41587747  0.05676087  1
  O  O341  1  0.21350132  0.41616959  0.30781317  1
  O  O342  1  0.21253769  0.41683365  0.55786471  1
  O  O343  1  0.21351768  0.41536584  0.80816866  1
  O  O344  1  0.21379408  0.74952117  0.05786770  1
  O  O345  1  0.21388814  0.75079756  0.30846940  1
  O  O346  1  0.21351142  0.74995147  0.55657943  1
  O  O347  1  0.21331399  0.74844481  0.80867457  1
  O  O348  1  0.71254056  0.08472674  0.05733664  1
  O  O349  1  0.71332380  0.08302856  0.30616763  1
  O  O350  1  0.71374436  0.08345331  0.55653518  1
  O  O351  1  0.71335772  0.08376343  0.80636851  1
  O  O352  1  0.71287730  0.41474983  0.05758654  1
  O  O353  1  0.71222183  0.41587561  0.30728897  1
  O  O354  1  0.71166092  0.41687607  0.55906624  1
  O  O355  1  0.71339148  0.41571861  0.80681302  1
  O  O356  1  0.71367779  0.75144358  0.05588790  1
  O  O357  1  0.71282505  0.75126318  0.30700310  1
  O  O358  1  0.71320205  0.74877624  0.55746856  1
  O  O359  1  0.71382291  0.74956002  0.80749347  1
  O  O360  1  0.28723878  0.24936133  0.19313766  1
  O  O361  1  0.28677032  0.24961894  0.44377011  1
  O  O362  1  0.28677487  0.25059218  0.69192669  1
  O  O363  1  0.28714305  0.25176435  0.94259677  1
  O  O364  1  0.28660948  0.58283984  0.19352029  1
  O  O365  1  0.28702279  0.58292090  0.44098736  1
  O  O366  1  0.28745932  0.58286636  0.69387946  1
  O  O367  1  0.28825463  0.58291327  0.94126160  1
  O  O368  1  0.28751415  0.91431472  0.19288055  1
  O  O369  1  0.28768069  0.91714559  0.44263665  1
  O  O370  1  0.28771448  0.91801141  0.69129327  1
  O  O371  1  0.28746178  0.91527465  0.94295401  1
  O  O372  1  0.78557686  0.24894077  0.19211077  1
  O  O373  1  0.78614528  0.24918452  0.44364378  1
  O  O374  1  0.78562260  0.25006488  0.69312985  1
  O  O375  1  0.78560330  0.25029951  0.94294668  1
  O  O376  1  0.78674713  0.58467080  0.19245294  1
  O  O377  1  0.78553263  0.58398213  0.44344049  1
  O  O378  1  0.78654272  0.58415992  0.69183364  1
  O  O379  1  0.78738506  0.58343553  0.94097651  1
  O  O380  1  0.78664424  0.91811912  0.19163612  1
  O  O381  1  0.78674583  0.91897203  0.44186246  1
  O  O382  1  0.78690588  0.91639257  0.69199309  1
  O  O383  1  0.78570906  0.91635322  0.94268728  1
  O  O384  1  0.22807365  0.25163524  0.05834080  1
  O  O385  1  0.22799015  0.24849722  0.30883918  1
  O  O386  1  0.22767269  0.25023256  0.55985270  1
  O  O387  1  0.22800097  0.25174648  0.80799770  1
  O  O388  1  0.22918070  0.58287001  0.05682677  1
  O  O389  1  0.22698314  0.58245785  0.30936707  1
  O  O390  1  0.22845243  0.58279353  0.55683303  1
  O  O391  1  0.22789960  0.58340644  0.80965736  1
  O  O392  1  0.22845068  0.91420977  0.05868007  1
  O  O393  1  0.22876407  0.91493590  0.30881080  1
  O  O394  1  0.22850212  0.91803780  0.55825140  1
  O  O395  1  0.22870251  0.91646826  0.80672496  1
  O  O396  1  0.72655462  0.24931306  0.05923072  1
  O  O397  1  0.72697982  0.24798473  0.30838605  1
  O  O398  1  0.72673617  0.25067200  0.55948509  1
  O  O399  1  0.72687205  0.24976701  0.80959171  1
  O  O400  1  0.72830659  0.58348111  0.05635355  1
  O  O401  1  0.72712680  0.58537658  0.30789308  1
  O  O402  1  0.72656186  0.58397401  0.55962078  1
  O  O403  1  0.72772886  0.58431028  0.80794160  1
  O  O404  1  0.72659399  0.91613738  0.05877609  1
  O  O405  1  0.72792900  0.91866933  0.30782248  1
  O  O406  1  0.72801111  0.91858642  0.55784385  1
  O  O407  1  0.72742970  0.91582070  0.80754161  1
  O  O408  1  0.27147773  0.08292962  0.19367408  1
  O  O409  1  0.27276991  0.08504355  0.44237755  1
  O  O410  1  0.27324481  0.08448349  0.69098670  1
  O  O411  1  0.27117883  0.08366800  0.94369588  1
  O  O412  1  0.27282083  0.41470395  0.19215998  1
  O  O413  1  0.27154303  0.41798928  0.44209553  1
  O  O414  1  0.27213515  0.41453574  0.69204801  1
  O  O415  1  0.27346458  0.41567322  0.94075406  1
  O  O416  1  0.27255244  0.75109541  0.19234518  1
  O  O417  1  0.27309135  0.75031856  0.44094395  1
  O  O418  1  0.27229888  0.74963987  0.69334327  1
  O  O419  1  0.27292791  0.74821252  0.94216315  1
  O  O420  1  0.77222745  0.08411716  0.18980875  1
  O  O421  1  0.77269258  0.08397892  0.44015890  1
  O  O422  1  0.77295112  0.08275166  0.69044432  1
  O  O423  1  0.77128742  0.08517751  0.94126714  1
  O  O424  1  0.77206394  0.41530789  0.19195762  1
  O  O425  1  0.77055996  0.41666815  0.44332365  1
  O  O426  1  0.77235843  0.41556943  0.69052227  1
  O  O427  1  0.77191953  0.41485164  0.94180140  1
  O  O428  1  0.77181966  0.75244380  0.19116352  1
  O  O429  1  0.77199015  0.74911307  0.44147835  1
  O  O430  1  0.77231959  0.74887216  0.69120445  1
  O  O431  1  0.77305243  0.75091872  0.93998395  1
  O  O432  1  0.02088954  0.08464192  0.18173926  1
  O  O433  1  0.02184552  0.08577231  0.43292586  1
  O  O434  1  0.02221494  0.08172941  0.68318523  1
  O  O435  1  0.02094261  0.08352392  0.93167398  1
  O  O436  1  0.02238745  0.41732339  0.18438774  1
  O  O437  1  0.02047545  0.41628024  0.43165025  1
  O  O438  1  0.02087840  0.41624758  0.68166049  1
  O  O439  1  0.02144507  0.41516148  0.93318361  1
  O  O440  1  0.02125378  0.74977724  0.18177188  1
  O  O441  1  0.02147934  0.75010822  0.43158471  1
  O  O442  1  0.02186346  0.75186150  0.68302782  1
  O  O443  1  0.02239213  0.74822438  0.93334174  1
  O  O444  1  0.52183836  0.08463576  0.18240195  1
  O  O445  1  0.52251627  0.08090308  0.43263720  1
  O  O446  1  0.52352973  0.08311585  0.68416449  1
  O  O447  1  0.52141835  0.08312697  0.93170822  1
  O  O448  1  0.52300728  0.41648023  0.18403517  1
  O  O449  1  0.52159038  0.41656398  0.43132300  1
  O  O450  1  0.52138674  0.41724903  0.68136005  1
  O  O451  1  0.52270199  0.41538090  0.93307424  1
  O  O452  1  0.52251225  0.74771090  0.18282396  1
  O  O453  1  0.52253272  0.74821259  0.43320420  1
  O  O454  1  0.52309797  0.74952728  0.68400156  1
  O  O455  1  0.52351054  0.75007091  0.93395858  1
  O  O456  1  0.47741763  0.25209329  0.06676907  1
  O  O457  1  0.47718395  0.24968535  0.31529358  1
  O  O458  1  0.47840330  0.24900372  0.56788085  1
  O  O459  1  0.47811847  0.24823246  0.81653653  1
  O  O460  1  0.47880893  0.58494675  0.06649519  1
  O  O461  1  0.47723834  0.58372728  0.31526965  1
  O  O462  1  0.47761199  0.58525844  0.56680601  1
  O  O463  1  0.47819038  0.58516109  0.81726909  1
  O  O464  1  0.47785481  0.91444013  0.06636361  1
  O  O465  1  0.47903151  0.91612991  0.31806943  1
  O  O466  1  0.47834573  0.91802824  0.56676189  1
  O  O467  1  0.47760293  0.91706971  0.81537379  1
  O  O468  1  0.97736932  0.25242957  0.06736299  1
  O  O469  1  0.97741939  0.25259756  0.31733384  1
  O  O470  1  0.97726979  0.24793225  0.56778828  1
  O  O471  1  0.97821066  0.24945228  0.81906097  1
  O  O472  1  0.97829300  0.58475046  0.06691518  1
  O  O473  1  0.97764346  0.58164308  0.31717588  1
  O  O474  1  0.97830372  0.58354381  0.56887632  1
  O  O475  1  0.97854606  0.58340462  0.81884550  1
  O  O476  1  0.97872309  0.91650951  0.06868926  1
  O  O477  1  0.97855817  0.91754942  0.31882261  1
  O  O478  1  0.97867220  0.91726764  0.56884779  1
  O  O479  1  0.97736409  0.91623806  0.81598189  1
  O  O480  1  0.07273421  0.31551939  0.07429692  1
  O  O481  1  0.07286452  0.31500619  0.32497037  1
  O  O482  1  0.07231402  0.31229344  0.57462369  1
  O  O483  1  0.07354242  0.31336871  0.82499582  1
  O  O484  1  0.07342348  0.64771425  0.07459109  1
  O  O485  1  0.07289799  0.64580679  0.32440672  1
  O  O486  1  0.07389782  0.64679673  0.57507610  1
  O  O487  1  0.07452085  0.64599956  0.82559083  1
  O  O488  1  0.07393427  0.98054750  0.07519923  1
  O  O489  1  0.07395264  0.98119533  0.32574606  1
  O  O490  1  0.07425276  0.98023888  0.57614270  1
  O  O491  1  0.07221186  0.98016352  0.82319757  1
  O  O492  1  0.57257955  0.31486185  0.07458647  1
  O  O493  1  0.57255845  0.31287749  0.32295202  1
  O  O494  1  0.57315773  0.31329204  0.57530848  1
  O  O495  1  0.57328435  0.31246451  0.82404572  1
  O  O496  1  0.57405916  0.64784485  0.07378108  1
  O  O497  1  0.57262006  0.64684771  0.32291164  1
  O  O498  1  0.57278860  0.64843190  0.57366910  1
  O  O499  1  0.57349397  0.64823962  0.82384394  1
  O  O500  1  0.57253422  0.97923431  0.07387203  1
  O  O501  1  0.57455397  0.97939892  0.32429090  1
  O  O502  1  0.57323882  0.98143697  0.57418926  1
  O  O503  1  0.57308874  0.97979133  0.82372458  1
  O  O504  1  0.42665090  0.02050336  0.17502504  1
  O  O505  1  0.42721013  0.01817833  0.42588726  1
  O  O506  1  0.42836486  0.01958235  0.67673319  1
  O  O507  1  0.42618465  0.01955255  0.92413302  1
  O  O508  1  0.42747751  0.35361994  0.17636883  1
  O  O509  1  0.42634709  0.35291832  0.42390574  1
  O  O510  1  0.42603815  0.35373133  0.67455819  1
  O  O511  1  0.42773441  0.35200416  0.92598808  1
  O  O512  1  0.42699556  0.68509526  0.17558370  1
  O  O513  1  0.42736953  0.68487866  0.42621227  1
  O  O514  1  0.42744362  0.68686562  0.67704129  1
  O  O515  1  0.42863918  0.68623021  0.92607200  1
  O  O516  1  0.92587278  0.02055507  0.17511173  1
  O  O517  1  0.92669065  0.02168293  0.42583162  1
  O  O518  1  0.92714372  0.01872964  0.67572086  1
  O  O519  1  0.92575494  0.01911149  0.92510752  1
  O  O520  1  0.92731387  0.35358230  0.17711293  1
  O  O521  1  0.92465739  0.35367072  0.42431524  1
  O  O522  1  0.92544801  0.35268893  0.67520253  1
  O  O523  1  0.92630977  0.35181502  0.92669370  1
  O  O524  1  0.92538063  0.68680468  0.17480031  1
  O  O525  1  0.92600202  0.68667735  0.42528230  1
  O  O526  1  0.92673497  0.68760053  0.67614075  1
  O  O527  1  0.92725810  0.68543862  0.92531016  1
  O  O528  1  0.17616990  0.01957944  0.20154622  1
  O  O529  1  0.17742932  0.02144763  0.45112797  1
  O  O530  1  0.17897550  0.01983069  0.69820445  1
  O  O531  1  0.17599424  0.01973371  0.95024952  1
  O  O532  1  0.17770448  0.35184408  0.19963297  1
  O  O533  1  0.17639111  0.35376747  0.45003010  1
  O  O534  1  0.17656662  0.35232370  0.69940448  1
  O  O535  1  0.17794629  0.35270391  0.94855286  1
  O  O536  1  0.17747706  0.68705336  0.20070429  1
  O  O537  1  0.17822327  0.68664519  0.44797473  1
  O  O538  1  0.17685068  0.68591758  0.70012349  1
  O  O539  1  0.17797442  0.68495672  0.94986124  1
  O  O540  1  0.67789784  0.01972401  0.19726934  1
  O  O541  1  0.67797234  0.01997809  0.44797043  1
  O  O542  1  0.67788391  0.01966687  0.69835262  1
  O  O543  1  0.67624866  0.02118014  0.94943725  1
  O  O544  1  0.67706451  0.35192268  0.19898891  1
  O  O545  1  0.67523342  0.35330464  0.45086187  1
  O  O546  1  0.67672240  0.35295793  0.69862770  1
  O  O547  1  0.67668930  0.35161168  0.94881849  1
  O  O548  1  0.67668189  0.68840065  0.19873062  1
  O  O549  1  0.67699291  0.68572686  0.44868473  1
  O  O550  1  0.67707671  0.68593933  0.69926862  1
  O  O551  1  0.67867775  0.68656571  0.94809262  1
  O  O552  1  0.32317512  0.31482989  0.05153397  1
  O  O553  1  0.32349793  0.31202501  0.30129435  1
  O  O554  1  0.32222075  0.31443911  0.55122174  1
  O  O555  1  0.32361550  0.31407122  0.80027404  1
  O  O556  1  0.32460585  0.64609587  0.04988396  1
  O  O557  1  0.32150963  0.64657667  0.30163570  1
  O  O558  1  0.32362494  0.64653737  0.54915825  1
  O  O559  1  0.32323580  0.64640572  0.80194719  1
  O  O560  1  0.32347576  0.97857463  0.05083224  1
  O  O561  1  0.32395839  0.97857687  0.30013563  1
  O  O562  1  0.32324437  0.98160256  0.55079863  1
  O  O563  1  0.32377950  0.98066820  0.79999940  1
  O  O564  1  0.82100959  0.31350258  0.05199230  1
  O  O565  1  0.82182204  0.31229165  0.30020067  1
  O  O566  1  0.82211234  0.31342717  0.55145981  1
  O  O567  1  0.82188841  0.31321396  0.80153527  1
  O  O568  1  0.82378210  0.64687462  0.04897192  1
  O  O569  1  0.82244230  0.64818265  0.30090276  1
  O  O570  1  0.82206878  0.64705957  0.55151540  1
  O  O571  1  0.82272192  0.64755207  0.80059029  1
  O  O572  1  0.82065091  0.98099475  0.05053258  1
  O  O573  1  0.82286992  0.98205043  0.30005454  1
  O  O574  1  0.82311470  0.98188350  0.55067845  1
  O  O575  1  0.82280969  0.97934388  0.80030805  1
  O  O576  1  0.42662548  0.14786793  0.17600442  1
  O  O577  1  0.42728796  0.14526291  0.42578837  1
  O  O578  1  0.42861629  0.14691257  0.67613402  1
  O  O579  1  0.42577108  0.14625988  0.92399284  1
  O  O580  1  0.42870750  0.48101512  0.17603975  1
  O  O581  1  0.42609277  0.47972520  0.42355741  1
  O  O582  1  0.42596535  0.48074888  0.67472396  1
  O  O583  1  0.42750290  0.47928303  0.92556779  1
  O  O584  1  0.42746399  0.81193883  0.17544669  1
  O  O585  1  0.42741126  0.81196615  0.42529256  1
  O  O586  1  0.42877796  0.81416737  0.67673830  1
  O  O587  1  0.42843291  0.81346379  0.92608970  1
  O  O588  1  0.92518753  0.14764788  0.17473377  1
  O  O589  1  0.92654350  0.14894123  0.42654668  1
  O  O590  1  0.92671497  0.14575587  0.67615670  1
  O  O591  1  0.92511587  0.14606058  0.92426311  1
  O  O592  1  0.92743130  0.48101041  0.17597069  1
  O  O593  1  0.92523652  0.48035804  0.42475341  1
  O  O594  1  0.92551280  0.47984451  0.67547988  1
  O  O595  1  0.92600284  0.47896598  0.92591582  1
  O  O596  1  0.92612510  0.81368876  0.17429852  1
  O  O597  1  0.92592648  0.81374785  0.42513133  1
  O  O598  1  0.92644001  0.81482838  0.67644996  1
  O  O599  1  0.92717603  0.81263427  0.92564215  1
  O  O600  1  0.07246544  0.18833589  0.07565667  1
  O  O601  1  0.07259213  0.18801814  0.32437423  1
  O  O602  1  0.07274266  0.18503224  0.57402889  1
  O  O603  1  0.07398562  0.18659152  0.82635929  1
  O  O604  1  0.07365311  0.52055372  0.07465605  1
  O  O605  1  0.07293264  0.51863188  0.32368892  1
  O  O606  1  0.07374189  0.51970323  0.57515291  1
  O  O607  1  0.07340340  0.51906245  0.82631999  1
  O  O608  1  0.07450045  0.85358026  0.07532122  1
  O  O609  1  0.07398529  0.85396844  0.32549645  1
  O  O610  1  0.07409628  0.85354158  0.57581254  1
  O  O611  1  0.07253317  0.85253617  0.82354213  1
  O  O612  1  0.57241593  0.18784221  0.07507000  1
  O  O613  1  0.57181418  0.18532156  0.32260786  1
  O  O614  1  0.57440389  0.18640797  0.57450108  1
  O  O615  1  0.57330811  0.18530767  0.82400130  1
  O  O616  1  0.57393740  0.52092699  0.07455516  1
  O  O617  1  0.57179692  0.51952689  0.32280150  1
  O  O618  1  0.57272587  0.52132947  0.57476153  1
  O  O619  1  0.57335557  0.52109119  0.82456160  1
  O  O620  1  0.57338700  0.85196368  0.07307587  1
  O  O621  1  0.57430646  0.85253096  0.32564881  1
  O  O622  1  0.57368412  0.85441543  0.57536861  1
  O  O623  1  0.57201331  0.85248653  0.82223258  1
  O  O624  1  0.32335494  0.18769125  0.05005062  1
  O  O625  1  0.32284466  0.18498897  0.30146401  1
  O  O626  1  0.32320012  0.18704540  0.55227196  1
  O  O627  1  0.32282752  0.18718320  0.80018205  1
  O  O628  1  0.32461517  0.51945529  0.04961522  1
  O  O629  1  0.32208385  0.51891263  0.30134436  1
  O  O630  1  0.32408780  0.51984683  0.54945524  1
  O  O631  1  0.32234624  0.51882834  0.80193816  1
  O  O632  1  0.32375899  0.85122906  0.05088260  1
  O  O633  1  0.32405533  0.85152232  0.30168544  1
  O  O634  1  0.32413659  0.85438238  0.55070651  1
  O  O635  1  0.32446172  0.85378772  0.79875556  1
  O  O636  1  0.82201459  0.18640073  0.05089652  1
  O  O637  1  0.82235375  0.18536129  0.30051257  1
  O  O638  1  0.82126126  0.18618891  0.55254561  1
  O  O639  1  0.82171478  0.18594474  0.80116152  1
  O  O640  1  0.82360831  0.51997004  0.04920847  1
  O  O641  1  0.82203220  0.52082634  0.30032318  1
  O  O642  1  0.82093898  0.51966482  0.55159772  1
  O  O643  1  0.82306309  0.52053027  0.79951996  1
  O  O644  1  0.82236675  0.85358129  0.05105486  1
  O  O645  1  0.82337031  0.85515143  0.29987556  1
  O  O646  1  0.82319615  0.85476648  0.54908677  1
  O  O647  1  0.82243690  0.85236773  0.80048354  1
  O  O648  1  0.17589098  0.14648680  0.20078043  1
  O  O649  1  0.17781193  0.14847655  0.45046339  1
  O  O650  1  0.17761477  0.14733546  0.69892514  1
  O  O651  1  0.17556508  0.14680758  0.95062842  1
  O  O652  1  0.17761586  0.47895353  0.19938371  1
  O  O653  1  0.17630763  0.48084798  0.44945817  1
  O  O654  1  0.17733527  0.47930941  0.70048394  1
  O  O655  1  0.17907554  0.48002014  0.94847892  1
  O  O656  1  0.17723175  0.81404083  0.19973048  1
  O  O657  1  0.17802441  0.81419685  0.44894560  1
  O  O658  1  0.17680889  0.81278545  0.70104350  1
  O  O659  1  0.17736052  0.81204105  0.94957027  1
  O  O660  1  0.67667996  0.14680497  0.19826803  1
  O  O661  1  0.67747365  0.14711949  0.44831165  1
  O  O662  1  0.67833832  0.14704850  0.69768782  1
  O  O663  1  0.67604973  0.14812524  0.94867344  1
  O  O664  1  0.67685271  0.47927590  0.19926755  1
  O  O665  1  0.67513920  0.48003034  0.45040802  1
  O  O666  1  0.67826764  0.48042950  0.69903628  1
  O  O667  1  0.67666362  0.47859802  0.94987737  1
  O  O668  1  0.67667808  0.81546371  0.19882142  1
  O  O669  1  0.67674783  0.81291194  0.45031271  1
  O  O670  1  0.67721828  0.81284979  0.69943658  1
  O  O671  1  0.67758669  0.81400005  0.94717910  1
