# generated using pymatgen
data_Na2MnFe(PO4)2
_symmetry_space_group_name_H-M   'P 1'
_cell_length_a   22.34546689
_cell_length_b   20.09696267
_cell_length_c   19.44626841
_cell_angle_alpha   89.99995020
_cell_angle_beta   89.99797306
_cell_angle_gamma   90.05240661
_symmetry_Int_Tables_number   1
_chemical_formula_structural   Na2MnFe(PO4)2
_chemical_formula_sum   'Na96 Mn48 Fe48 P96 O384'
_cell_volume   8732.84904331
_cell_formula_units_Z   48
loop_
 _symmetry_equiv_pos_site_id
 _symmetry_equiv_pos_as_xyz
  1  'x, y, z'
loop_
 _atom_site_type_symbol
 _atom_site_label
 _atom_site_symmetry_multiplicity
 _atom_site_fract_x
 _atom_site_fract_y
 _atom_site_fract_z
 _atom_site_occupancy
  Na  Na0  1  0.14076135  0.24964661  0.24277054  1
  Na  Na1  1  0.14043283  0.24955917  0.49362017  1
  Na  Na2  1  0.14034256  0.24835957  0.74268152  1
  Na  Na3  1  0.14092742  0.24975925  0.99492995  1
  Na  Na4  1  0.14057272  0.58387674  0.24196978  1
  Na  Na5  1  0.14095882  0.58489908  0.49342674  1
  Na  Na6  1  0.13972290  0.58398174  0.74413780  1
  Na  Na7  1  0.13983456  0.58402953  0.99298329  1
  Na  Na8  1  0.14066234  0.91552286  0.24162766  1
  Na  Na9  1  0.14078513  0.91618324  0.49393853  1
  Na  Na10  1  0.14049114  0.91606989  0.74392317  1
  Na  Na11  1  0.13982408  0.91597762  0.99373336  1
  Na  Na12  1  0.64049875  0.24914285  0.24354100  1
  Na  Na13  1  0.64008036  0.25139989  0.49373098  1
  Na  Na14  1  0.63966109  0.25132578  0.74409051  1
  Na  Na15  1  0.64002855  0.25112261  0.99325736  1
  Na  Na16  1  0.63984501  0.58320178  0.24309109  1
  Na  Na17  1  0.64013852  0.58418038  0.49284073  1
  Na  Na18  1  0.64057535  0.58363165  0.74470512  1
  Na  Na19  1  0.63992820  0.58231510  0.99489715  1
  Na  Na20  1  0.64073158  0.91575591  0.24311167  1
  Na  Na21  1  0.64066512  0.91728825  0.49431764  1
  Na  Na22  1  0.64014109  0.91651688  0.74412321  1
  Na  Na23  1  0.63983510  0.91576971  0.99536944  1
  Na  Na24  1  0.35908261  0.08301254  0.00830489  1
  Na  Na25  1  0.36000739  0.08250436  0.25592340  1
  Na  Na26  1  0.35949948  0.08352386  0.50598144  1
  Na  Na27  1  0.35935669  0.08315828  0.75594296  1
  Na  Na28  1  0.35952173  0.41701768  0.00865762  1
  Na  Na29  1  0.35953221  0.41829741  0.25641819  1
  Na  Na30  1  0.35978336  0.41784085  0.50684160  1
  Na  Na31  1  0.35958526  0.41697914  0.75669360  1
  Na  Na32  1  0.35915053  0.75006381  0.00681248  1
  Na  Na33  1  0.35892717  0.74890228  0.25593931  1
  Na  Na34  1  0.35944402  0.75097273  0.50533105  1
  Na  Na35  1  0.35979777  0.74999711  0.75667211  1
  Na  Na36  1  0.85974690  0.08199110  0.00614856  1
  Na  Na37  1  0.85971982  0.08218855  0.25637554  1
  Na  Na38  1  0.86004958  0.08364615  0.50632627  1
  Na  Na39  1  0.86025282  0.08357799  0.75690696  1
  Na  Na40  1  0.85980411  0.41770875  0.00540678  1
  Na  Na41  1  0.85941104  0.41644627  0.25515176  1
  Na  Na42  1  0.85965814  0.41738772  0.50485093  1
  Na  Na43  1  0.85991486  0.41727641  0.75669781  1
  Na  Na44  1  0.85990296  0.74922273  0.00860825  1
  Na  Na45  1  0.86025224  0.74918829  0.25591064  1
  Na  Na46  1  0.86005818  0.75038947  0.50464730  1
  Na  Na47  1  0.85969979  0.74921594  0.75687852  1
  Na  Na48  1  0.10993295  0.08257722  0.11828323  1
  Na  Na49  1  0.10988953  0.08283698  0.36878642  1
  Na  Na50  1  0.11002112  0.08280337  0.61920618  1
  Na  Na51  1  0.10956009  0.08234665  0.86914882  1
  Na  Na52  1  0.10999499  0.41748390  0.11773976  1
  Na  Na53  1  0.11004219  0.41689162  0.36747918  1
  Na  Na54  1  0.10926159  0.41651113  0.61892152  1
  Na  Na55  1  0.10956317  0.41710327  0.86899835  1
  Na  Na56  1  0.10979367  0.74983581  0.11691703  1
  Na  Na57  1  0.11068647  0.74998278  0.36650940  1
  Na  Na58  1  0.11012148  0.74878722  0.61978580  1
  Na  Na59  1  0.11005361  0.74975779  0.86871130  1
  Na  Na60  1  0.60949339  0.08288631  0.11903986  1
  Na  Na61  1  0.60959726  0.08392724  0.36807386  1
  Na  Na62  1  0.60918562  0.08542873  0.61926820  1
  Na  Na63  1  0.60874687  0.08361134  0.86905902  1
  Na  Na64  1  0.60958280  0.41739498  0.11827581  1
  Na  Na65  1  0.60914750  0.41744481  0.36840007  1
  Na  Na66  1  0.60934825  0.41667722  0.61967513  1
  Na  Na67  1  0.60956576  0.41628643  0.86925717  1
  Na  Na68  1  0.60961205  0.74865833  0.11890768  1
  Na  Na69  1  0.60978677  0.75033099  0.36782449  1
  Na  Na70  1  0.60974855  0.75054715  0.61881768  1
  Na  Na71  1  0.60961652  0.75044772  0.87034189  1
  Na  Na72  1  0.39040668  0.25089606  0.13250444  1
  Na  Na73  1  0.39047433  0.25056828  0.38068802  1
  Na  Na74  1  0.39042033  0.25064085  0.63120955  1
  Na  Na75  1  0.39010403  0.25095808  0.88111805  1
  Na  Na76  1  0.38938755  0.58333055  0.13232915  1
  Na  Na77  1  0.38962272  0.58293301  0.38145494  1
  Na  Na78  1  0.39034581  0.58358311  0.63101511  1
  Na  Na79  1  0.39017809  0.58382216  0.88251106  1
  Na  Na80  1  0.38977325  0.91604944  0.13267200  1
  Na  Na81  1  0.38994635  0.91713928  0.38007953  1
  Na  Na82  1  0.39029026  0.91750845  0.63172855  1
  Na  Na83  1  0.38992047  0.91604761  0.88160175  1
  Na  Na84  1  0.89053922  0.24965184  0.13060782  1
  Na  Na85  1  0.89053309  0.24904666  0.38060618  1
  Na  Na86  1  0.89101004  0.24935818  0.63128573  1
  Na  Na87  1  0.89087562  0.24951455  0.88081859  1
  Na  Na88  1  0.88991319  0.58384774  0.13120968  1
  Na  Na89  1  0.89038700  0.58362239  0.37941772  1
  Na  Na90  1  0.89059385  0.58299019  0.63105932  1
  Na  Na91  1  0.89065067  0.58372009  0.88207110  1
  Na  Na92  1  0.89024348  0.91622484  0.13222220  1
  Na  Na93  1  0.89049075  0.91591371  0.38062493  1
  Na  Na94  1  0.89066961  0.91607810  0.63190454  1
  Na  Na95  1  0.89084253  0.91582098  0.88187335  1
  Mn  Mn96  1  0.75039533  0.83301187  0.87603297  1
  Mn  Mn97  1  0.74927198  0.66606534  0.87618776  1
  Mn  Mn98  1  0.49987851  0.83304918  0.25022977  1
  Mn  Mn99  1  0.49948418  0.66634088  0.00048357  1
  Mn  Mn100  1  0.00003058  0.33270228  0.24909972  1
  Mn  Mn101  1  0.49989622  0.00039631  0.75048838  1
  Mn  Mn102  1  0.24950475  -0.00108483  0.87573295  1
  Mn  Mn103  1  0.24940259  -0.00100251  0.37464408  1
  Mn  Mn104  1  0.49924504  0.16817515  0.49938378  1
  Mn  Mn105  1  0.74975877  0.66681398  0.37451188  1
  Mn  Mn106  1  0.75028542  0.33355843  0.12476641  1
  Mn  Mn107  1  0.74993949  -0.00046605  0.87537858  1
  Mn  Mn108  1  0.24994457  0.16621030  0.87562564  1
  Mn  Mn109  1  -0.00012977  0.33207453  0.49938308  1
  Mn  Mn110  1  0.74906737  0.16719357  0.87558229  1
  Mn  Mn111  1  0.75042619  -0.00074768  0.37546530  1
  Mn  Mn112  1  0.74964744  0.50083382  0.62509415  1
  Mn  Mn113  1  0.49941930  0.66621049  0.50012077  1
  Mn  Mn114  1  0.75070486  0.66796011  0.62414728  1
  Mn  Mn115  1  0.00088240  0.49990170  0.49936126  1
  Mn  Mn116  1  0.00042270  0.16556746  -0.00018596  1
  Mn  Mn117  1  0.00026079  -0.00010203  0.25000089  1
  Mn  Mn118  1  0.24956903  0.50087570  0.87585037  1
  Mn  Mn119  1  0.00058605  0.83254849  0.50031077  1
  Mn  Mn120  1  0.50025794  0.83396302  0.49934423  1
  Mn  Mn121  1  0.49988071  0.49940119  0.75082394  1
  Mn  Mn122  1  0.49914635  0.16760484  -0.00026684  1
  Mn  Mn123  1  0.24925124  0.33349979  0.62486700  1
  Mn  Mn124  1  0.25073339  0.33439903  0.37456227  1
  Mn  Mn125  1  0.24984681  0.83291310  0.62469151  1
  Mn  Mn126  1  0.00009398  0.83258960  0.75096353  1
  Mn  Mn127  1  0.75052221  0.16567152  0.12411684  1
  Mn  Mn128  1  0.49898336  -0.00070887  -0.00062655  1
  Mn  Mn129  1  0.74975444  -0.00017686  0.62488833  1
  Mn  Mn130  1  0.24993063  0.50164086  0.62572608  1
  Mn  Mn131  1  0.75022329  0.33429809  0.62429413  1
  Mn  Mn132  1  0.00076953  0.33337685  -0.00055431  1
  Mn  Mn133  1  0.00060234  0.00010308  0.50031373  1
  Mn  Mn134  1  0.50061811  0.66752337  0.75104540  1
  Mn  Mn135  1  0.00043379  0.66644330  0.49948087  1
  Mn  Mn136  1  0.24994088  0.16632211  0.37434363  1
  Mn  Mn137  1  0.75007683  0.33352977  0.37422919  1
  Mn  Mn138  1  -0.00035319  0.50081247  0.24856373  1
  Mn  Mn139  1  0.49994713  0.33426006  0.25025679  1
  Mn  Mn140  1  0.24993205  0.33322128  0.87574614  1
  Mn  Mn141  1  0.49984694  0.00119180  0.50051372  1
  Mn  Mn142  1  0.75035547  0.16739218  0.62533131  1
  Mn  Mn143  1  0.00035627  0.33288869  0.74977548  1
  Fe  Fe144  1  0.49963975  0.49998067  0.00066794  1
  Fe  Fe145  1  0.25000335  -0.00102393  0.12500767  1
  Fe  Fe146  1  0.50024711  0.16733742  0.24985579  1
  Fe  Fe147  1  -0.00069759  -0.00061973  0.00001064  1
  Fe  Fe148  1  -0.00016863  0.66684510  -0.00026903  1
  Fe  Fe149  1  0.49964830  0.66581885  0.24964071  1
  Fe  Fe150  1  0.24947095  0.50090703  0.37476782  1
  Fe  Fe151  1  0.75044459  0.33408632  0.87491283  1
  Fe  Fe152  1  0.49957535  0.83294900  0.00108515  1
  Fe  Fe153  1  0.25039956  0.66679921  0.87555530  1
  Fe  Fe154  1  0.75035253  0.50025886  0.87532323  1
  Fe  Fe155  1  0.75017249  0.16622234  0.37459726  1
  Fe  Fe156  1  0.25034440  0.16644931  0.12543410  1
  Fe  Fe157  1  0.50016462  0.33405946  0.50012259  1
  Fe  Fe158  1  0.74927052  0.49957978  0.12466321  1
  Fe  Fe159  1  0.49991831  0.33368937  0.00045309  1
  Fe  Fe160  1  0.24990490  0.33379917  0.12559167  1
  Fe  Fe161  1  0.24963763  0.66711583  0.37435238  1
  Fe  Fe162  1  0.49947038  0.16785493  0.74987558  1
  Fe  Fe163  1  -0.00046613  0.66639219  0.75066760  1
  Fe  Fe164  1  -0.00034677  0.50075000  -0.00087864  1
  Fe  Fe165  1  -0.00018291  0.83299037  -0.00008233  1
  Fe  Fe166  1  0.00051716  -0.00053890  0.75037086  1
  Fe  Fe167  1  0.50041594  0.00022999  0.24982443  1
  Fe  Fe168  1  0.24956553  0.50074784  0.12521022  1
  Fe  Fe169  1  0.74996006  0.66593418  0.12576108  1
  Fe  Fe170  1  0.49942435  0.49993466  0.25060394  1
  Fe  Fe171  1  0.24959163  0.66671266  0.12511826  1
  Fe  Fe172  1  0.74961672  -0.00084053  0.12591314  1
  Fe  Fe173  1  0.75012295  0.83303996  0.37443235  1
  Fe  Fe174  1  0.75042606  0.83338027  0.62496664  1
  Fe  Fe175  1  0.25045367  0.66735521  0.62475001  1
  Fe  Fe176  1  0.00047368  0.16566592  0.75046635  1
  Fe  Fe177  1  0.75005008  0.83271854  0.12540330  1
  Fe  Fe178  1  0.00055139  0.16589727  0.50030254  1
  Fe  Fe179  1  -0.00020466  0.50008427  0.74982372  1
  Fe  Fe180  1  0.00028977  0.16614934  0.24972715  1
  Fe  Fe181  1  0.74993760  0.50037525  0.37425492  1
  Fe  Fe182  1  0.25012934  0.83309641  0.37418597  1
  Fe  Fe183  1  0.25052752  -0.00057864  0.62473091  1
  Fe  Fe184  1  0.49985215  0.83373771  0.75021562  1
  Fe  Fe185  1  0.00054302  0.83316704  0.24917549  1
  Fe  Fe186  1  0.25042448  0.16623429  0.62459613  1
  Fe  Fe187  1  0.00081528  0.66701710  0.24879170  1
  Fe  Fe188  1  0.25035288  0.83270964  0.87500281  1
  Fe  Fe189  1  0.24960148  0.83227688  0.12433545  1
  Fe  Fe190  1  0.49905137  0.33387761  0.75027351  1
  Fe  Fe191  1  0.50041654  0.49994762  0.50043467  1
  P  P192  1  0.04290186  0.24929617  0.10322115  1
  P  P193  1  0.04264333  0.24805232  0.35221348  1
  P  P194  1  0.04247243  0.24801585  0.60285519  1
  P  P195  1  0.04286948  0.24835093  0.85225377  1
  P  P196  1  0.04107848  0.58401827  0.10096911  1
  P  P197  1  0.04292131  0.58464287  0.35108995  1
  P  P198  1  0.04288257  0.58314358  0.60379127  1
  P  P199  1  0.04106282  0.58340704  0.85232661  1
  P  P200  1  0.04084927  0.91625182  0.10171666  1
  P  P201  1  0.04288858  0.91541187  0.35177666  1
  P  P202  1  0.04302256  0.91642663  0.60390348  1
  P  P203  1  0.04222771  0.91743451  0.85342498  1
  P  P204  1  0.54217416  0.25126909  0.10275868  1
  P  P205  1  0.54222285  0.24989101  0.35234168  1
  P  P206  1  0.54186822  0.25202650  0.60312059  1
  P  P207  1  0.54094486  0.25107367  0.85193202  1
  P  P208  1  0.54131094  0.58201447  0.10361705  1
  P  P209  1  0.54114758  0.58310616  0.35191478  1
  P  P210  1  0.54257141  0.58218415  0.60269855  1
  P  P211  1  0.54247777  0.58294250  0.85427037  1
  P  P212  1  0.54117737  0.91574682  0.10322886  1
  P  P213  1  0.54245956  0.91810669  0.35214502  1
  P  P214  1  0.54267534  0.91703877  0.60367190  1
  P  P215  1  0.54204203  0.91512043  0.85316868  1
  P  P216  1  0.45879304  0.08362304  0.14840978  1
  P  P217  1  0.45725256  0.08376014  0.39571922  1
  P  P218  1  0.45752353  0.08543093  0.64785749  1
  P  P219  1  0.45634525  0.08397594  0.89650580  1
  P  P220  1  0.45773495  0.41840024  0.14737162  1
  P  P221  1  0.45840344  0.41730906  0.39856472  1
  P  P222  1  0.45745328  0.41585135  0.64715579  1
  P  P223  1  0.45789496  0.41642757  0.89899756  1
  P  P224  1  0.45754782  0.74852806  0.14766835  1
  P  P225  1  0.45744945  0.74949940  0.39619505  1
  P  P226  1  0.45784732  0.75121200  0.64790190  1
  P  P227  1  0.45767796  0.75160068  0.89802917  1
  P  P228  1  0.95770408  0.08372903  0.14732589  1
  P  P229  1  0.95811173  0.08429094  0.39737145  1
  P  P230  1  0.95892025  0.08305573  0.64852889  1
  P  P231  1  0.95788583  0.08134113  0.89682442  1
  P  P232  1  0.95741082  0.41706957  0.14546041  1
  P  P233  1  0.95749109  0.41640964  0.39608719  1
  P  P234  1  0.95786302  0.41734089  0.64745958  1
  P  P235  1  0.95842714  0.41814591  0.89670289  1
  P  P236  1  0.95908240  0.74995362  0.14720125  1
  P  P237  1  0.95833281  0.75001490  0.39529642  1
  P  P238  1  0.95773407  0.74843952  0.64808320  1
  P  P239  1  0.95853014  0.74950192  0.89845763  1
  P  P240  1  0.20872356  0.08240993  0.22620455  1
  P  P241  1  0.20766354  0.08289520  0.47861357  1
  P  P242  1  0.20901892  0.08238596  0.72644643  1
  P  P243  1  0.20747438  0.08273224  0.97958548  1
  P  P244  1  0.20862657  0.41754724  0.22683059  1
  P  P245  1  0.20776914  0.41857587  0.47711032  1
  P  P246  1  0.20685827  0.41735810  0.72842118  1
  P  P247  1  0.20744654  0.41691593  0.97963975  1
  P  P248  1  0.20823831  0.74959501  0.22654169  1
  P  P249  1  0.20861697  0.75046292  0.47611616  1
  P  P250  1  0.20825338  0.74858725  0.72825965  1
  P  P251  1  0.20868223  0.74982316  0.97715788  1
  P  P252  1  0.70808212  0.08201855  0.22796278  1
  P  P253  1  0.70772967  0.08456067  0.47722281  1
  P  P254  1  0.70696929  0.08365790  0.72835810  1
  P  P255  1  0.70670830  0.08238695  0.97891992  1
  P  P256  1  0.70760606  0.41785913  0.22746818  1
  P  P257  1  0.70747503  0.41845931  0.47662110  1
  P  P258  1  0.70765064  0.41701243  0.72908942  1
  P  P259  1  0.70859828  0.41729960  0.97682431  1
  P  P260  1  0.70870035  0.74981995  0.22693070  1
  P  P261  1  0.70766872  0.75198433  0.47726855  1
  P  P262  1  0.70771306  0.75120429  0.72761154  1
  P  P263  1  0.70754209  0.74965059  0.98012424  1
  P  P264  1  0.29163755  0.25026526  0.02430273  1
  P  P265  1  0.29255551  0.25035363  0.27074255  1
  P  P266  1  0.29218664  0.24925927  0.52249308  1
  P  P267  1  0.29204896  0.24949964  0.77162039  1
  P  P268  1  0.29098233  0.58419753  0.02354861  1
  P  P269  1  0.29055516  0.58368541  0.27254280  1
  P  P270  1  0.29218737  0.58544660  0.52179606  1
  P  P271  1  0.29247819  0.58518471  0.77291632  1
  P  P272  1  0.29109703  0.91573560  0.02338900  1
  P  P273  1  0.29169744  0.91478849  0.27110054  1
  P  P274  1  0.29266775  0.91717163  0.52205469  1
  P  P275  1  0.29206382  0.91528903  0.77246369  1
  P  P276  1  0.79286039  0.25062251  0.02100690  1
  P  P277  1  0.79238221  0.24840920  0.27206136  1
  P  P278  1  0.79305616  0.25022161  0.52096694  1
  P  P279  1  0.79223488  0.25147335  0.77290830  1
  P  P280  1  0.79097471  0.58265807  0.02359168  1
  P  P281  1  0.79169286  0.58213983  0.27127929  1
  P  P282  1  0.79294860  0.58366794  0.52092183  1
  P  P283  1  0.79254463  0.58275305  0.77312573  1
  P  P284  1  0.79155077  0.91622846  0.02431163  1
  P  P285  1  0.79213073  0.91479669  0.27179315  1
  P  P286  1  0.79270479  0.91525406  0.52223357  1
  P  P287  1  0.79312359  0.91605326  0.77187572  1
  O  O288  1  0.03754393  0.24895019  0.18316029  1
  O  O289  1  0.03737938  0.24796717  0.43223426  1
  O  O290  1  0.03722493  0.24809236  0.68283684  1
  O  O291  1  0.03768037  0.24878433  0.93222151  1
  O  O292  1  0.03631536  0.58463029  0.18091502  1
  O  O293  1  0.03830269  0.58420154  0.43109334  1
  O  O294  1  0.03733717  0.58298951  0.68371336  1
  O  O295  1  0.03567550  0.58317375  0.93225742  1
  O  O296  1  0.03621297  0.91561455  0.18171958  1
  O  O297  1  0.03825098  0.91548883  0.43178274  1
  O  O298  1  0.03769640  0.91680296  0.68384876  1
  O  O299  1  0.03662610  0.91746793  0.93330366  1
  O  O300  1  0.53696460  0.25057412  0.18269298  1
  O  O301  1  0.53712321  0.25062183  0.43225610  1
  O  O302  1  0.53618982  0.25166596  0.68298665  1
  O  O303  1  0.53590492  0.25144489  0.93193255  1
  O  O304  1  0.53589634  0.58212687  0.18350870  1
  O  O305  1  0.53637627  0.58273553  0.43192102  1
  O  O306  1  0.53773587  0.58251036  0.68269921  1
  O  O307  1  0.53696659  0.58260697  0.93420119  1
  O  O308  1  0.53591591  0.91675213  0.18315679  1
  O  O309  1  0.53759109  0.91808267  0.43213674  1
  O  O310  1  0.53732130  0.91645221  0.68364572  1
  O  O311  1  0.53649790  0.91497543  0.93314410  1
  O  O312  1  0.46326136  0.08358473  0.06834866  1
  O  O313  1  0.46282432  0.08346512  0.31579560  1
  O  O314  1  0.46264421  0.08537605  0.56786098  1
  O  O315  1  0.46175685  0.08441237  0.81657581  1
  O  O316  1  0.46282370  0.41812468  0.06749665  1
  O  O317  1  0.46347904  0.41792438  0.31857763  1
  O  O318  1  0.46311309  0.41623140  0.56731238  1
  O  O319  1  0.46274962  0.41598817  0.81900000  1
  O  O320  1  0.46253638  0.74910782  0.06771917  1
  O  O321  1  0.46277842  0.74878423  0.31626706  1
  O  O322  1  0.46290853  0.75082158  0.56790609  1
  O  O323  1  0.46315311  0.75182474  0.81809696  1
  O  O324  1  0.96273047  0.08272116  0.06738237  1
  O  O325  1  0.96328704  0.08428073  0.31741382  1
  O  O326  1  0.96409760  0.08347023  0.56852634  1
  O  O327  1  0.96350255  0.08142485  0.81695044  1
  O  O328  1  0.96281443  0.41765992  0.06551507  1
  O  O329  1  0.96242132  0.41636893  0.31607339  1
  O  O330  1  0.96296515  0.41684165  0.56745648  1
  O  O331  1  0.96393134  0.41842939  0.81674683  1
  O  O332  1  0.96368190  0.75010746  0.06724424  1
  O  O333  1  0.96373137  0.75026123  0.31535356  1
  O  O334  1  0.96291407  0.74876452  0.56810198  1
  O  O335  1  0.96308395  0.74910468  0.81848324  1
  O  O336  1  0.21295648  0.08268115  0.05945462  1
  O  O337  1  0.21319291  0.08243653  0.30623489  1
  O  O338  1  0.21337549  0.08294283  0.55849148  1
  O  O339  1  0.21387516  0.08251548  0.80649813  1
  O  O340  1  0.21277429  0.41689674  0.05957321  1
  O  O341  1  0.21356538  0.41837997  0.30681727  1
  O  O342  1  0.21283589  0.41828326  0.55708667  1
  O  O343  1  0.21195839  0.41721734  0.80844148  1
  O  O344  1  0.21377504  0.74946792  0.05705539  1
  O  O345  1  0.21295597  0.75022838  0.30641449  1
  O  O346  1  0.21347831  0.74977160  0.55608186  1
  O  O347  1  0.21372773  0.74883140  0.80811335  1
  O  O348  1  0.71212330  0.08179321  0.05890243  1
  O  O349  1  0.71356100  0.08272747  0.30791405  1
  O  O350  1  0.71277214  0.08428164  0.55722341  1
  O  O351  1  0.71169477  0.08362371  0.80838776  1
  O  O352  1  0.71344908  0.41735440  0.05683709  1
  O  O353  1  0.71291830  0.41797152  0.30736128  1
  O  O354  1  0.71263681  0.41814349  0.55659659  1
  O  O355  1  0.71305988  0.41682613  0.80902663  1
  O  O356  1  0.71300300  0.74959860  0.06000920  1
  O  O357  1  0.71335016  0.75010923  0.30692933  1
  O  O358  1  0.71298934  0.75199781  0.55722959  1
  O  O359  1  0.71253283  0.75054860  0.80766306  1
  O  O360  1  0.28705904  0.25063842  0.19084545  1
  O  O361  1  0.28731797  0.24960939  0.44245567  1
  O  O362  1  0.28663572  0.24920888  0.69168138  1
  O  O363  1  0.28686811  0.24991741  0.94424787  1
  O  O364  1  0.28544925  0.58379963  0.19264484  1
  O  O365  1  0.28671606  0.58492844  0.44192802  1
  O  O366  1  0.28758764  0.58537655  0.69292881  1
  O  O367  1  0.28637294  0.58416595  0.94356882  1
  O  O368  1  0.28615970  0.91519056  0.19123073  1
  O  O369  1  0.28733034  0.91655118  0.44211916  1
  O  O370  1  0.28689588  0.91602488  0.69251446  1
  O  O371  1  0.28635026  0.91534765  0.94340816  1
  O  O372  1  0.78738713  0.24860265  0.19204364  1
  O  O373  1  0.78775782  0.24935427  0.44097879  1
  O  O374  1  0.78750294  0.25142438  0.69285306  1
  O  O375  1  0.78743608  0.25129026  0.94108317  1
  O  O376  1  0.78599803  0.58218123  0.19142371  1
  O  O377  1  0.78761770  0.58336098  0.44095831  1
  O  O378  1  0.78772061  0.58348370  0.69314461  1
  O  O379  1  0.78629004  0.58277630  0.94360308  1
  O  O380  1  0.78641280  0.91529419  0.19192611  1
  O  O381  1  0.78736745  0.91529821  0.44224441  1
  O  O382  1  0.78823228  0.91569264  0.69187818  1
  O  O383  1  0.78695591  0.91637562  0.94429033  1
  O  O384  1  0.22746162  0.25064680  0.05997763  1
  O  O385  1  0.22842103  0.25076983  0.30663335  1
  O  O386  1  0.22783823  0.24869905  0.55781509  1
  O  O387  1  0.22782190  0.24973783  0.80728763  1
  O  O388  1  0.22674227  0.58474767  0.05921263  1
  O  O389  1  0.22661153  0.58305931  0.30899831  1
  O  O390  1  0.22806814  0.58579968  0.55808250  1
  O  O391  1  0.22809624  0.58532341  0.80837035  1
  O  O392  1  0.22688524  0.91667339  0.05910776  1
  O  O393  1  0.22760300  0.91434280  0.30736722  1
  O  O394  1  0.22844561  0.91779653  0.55799333  1
  O  O395  1  0.22784305  0.91443258  0.80835031  1
  O  O396  1  0.72856841  0.25006071  0.05643284  1
  O  O397  1  0.72808580  0.24867694  0.30752608  1
  O  O398  1  0.72866319  0.25045605  0.55625751  1
  O  O399  1  0.72780452  0.25181008  0.80807411  1
  O  O400  1  0.72679072  0.58244780  0.05935477  1
  O  O401  1  0.72766170  0.58178316  0.30775504  1
  O  O402  1  0.72860288  0.58434135  0.55629323  1
  O  O403  1  0.72810002  0.58190631  0.80842451  1
  O  O404  1  0.72724185  0.91581024  0.05980527  1
  O  O405  1  0.72808125  0.91479855  0.30813751  1
  O  O406  1  0.72843107  0.91503316  0.55804546  1
  O  O407  1  0.72864428  0.91593896  0.80690542  1
  O  O408  1  0.27300732  0.08165356  0.19075851  1
  O  O409  1  0.27175745  0.08262366  0.44253856  1
  O  O410  1  0.27311252  0.08223851  0.69039271  1
  O  O411  1  0.27166619  0.08251718  0.94381138  1
  O  O412  1  0.27273985  0.41691769  0.19089515  1
  O  O413  1  0.27213223  0.41920686  0.44163150  1
  O  O414  1  0.27123273  0.41717361  0.69329901  1
  O  O415  1  0.27167495  0.41713175  0.94392331  1
  O  O416  1  0.27239582  0.74878126  0.19059517  1
  O  O417  1  0.27270034  0.75097904  0.44001753  1
  O  O418  1  0.27230107  0.74877941  0.69182394  1
  O  O419  1  0.27274045  0.75007479  0.94073429  1
  O  O420  1  0.77224663  0.08141489  0.19198026  1
  O  O421  1  0.77213686  0.08452887  0.44192683  1
  O  O422  1  0.77150371  0.08339266  0.69357864  1
  O  O423  1  0.77106381  0.08327183  0.94366613  1
  O  O424  1  0.77186901  0.41805615  0.19172785  1
  O  O425  1  0.77180495  0.41854966  0.44107466  1
  O  O426  1  0.77186927  0.41734510  0.69331248  1
  O  O427  1  0.77280513  0.41756464  0.94091923  1
  O  O428  1  0.77286666  0.75024083  0.19116718  1
  O  O429  1  0.77193542  0.75155824  0.44150975  1
  O  O430  1  0.77219398  0.75164249  0.69234689  1
  O  O431  1  0.77174637  0.74926031  0.94432329  1
  O  O432  1  0.02206067  0.08437916  0.18290797  1
  O  O433  1  0.02242632  0.08446236  0.43305320  1
  O  O434  1  0.02306259  0.08330772  0.68468637  1
  O  O435  1  0.02196279  0.08063417  0.93311468  1
  O  O436  1  0.02170492  0.41687082  0.18085889  1
  O  O437  1  0.02193009  0.41590011  0.43110268  1
  O  O438  1  0.02214212  0.41749438  0.68297515  1
  O  O439  1  0.02252489  0.41841495  0.93276856  1
  O  O440  1  0.02330299  0.74951339  0.18306320  1
  O  O441  1  0.02256103  0.74990746  0.43104927  1
  O  O442  1  0.02200496  0.74798474  0.68372823  1
  O  O443  1  0.02281687  0.74955089  0.93391885  1
  O  O444  1  0.52301151  0.08363663  0.18404670  1
  O  O445  1  0.52141746  0.08431684  0.43158731  1
  O  O446  1  0.52174852  0.08541505  0.68354804  1
  O  O447  1  0.52065887  0.08365064  0.93187259  1
  O  O448  1  0.52193844  0.41871494  0.18327979  1
  O  O449  1  0.52258563  0.41696208  0.43458606  1
  O  O450  1  0.52151947  0.41512648  0.68356080  1
  O  O451  1  0.52214358  0.41635369  0.93491443  1
  O  O452  1  0.52182172  0.74820277  0.18327600  1
  O  O453  1  0.52173275  0.74952720  0.43162132  1
  O  O454  1  0.52220319  0.75183689  0.68339437  1
  O  O455  1  0.52183674  0.75136063  0.93399860  1
  O  O456  1  0.47783433  0.25213804  0.06712330  1
  O  O457  1  0.47796671  0.24953205  0.31665717  1
  O  O458  1  0.47778354  0.25272559  0.56673688  1
  O  O459  1  0.47680695  0.25091342  0.81583288  1
  O  O460  1  0.47721912  0.58185907  0.06743816  1
  O  O461  1  0.47689293  0.58350632  0.31608616  1
  O  O462  1  0.47814801  0.58167994  0.56739667  1
  O  O463  1  0.47828011  0.58346628  0.81867800  1
  O  O464  1  0.47698502  0.91518803  0.06730760  1
  O  O465  1  0.47808668  0.91796350  0.31689057  1
  O  O466  1  0.47832479  0.91711257  0.56831653  1
  O  O467  1  0.47783000  0.91533808  0.81724190  1
  O  O468  1  0.97868836  0.24953639  0.06768252  1
  O  O469  1  0.97832599  0.24792504  0.31653041  1
  O  O470  1  0.97823866  0.24777055  0.56699941  1
  O  O471  1  0.97858054  0.24798651  0.81669461  1
  O  O472  1  0.97685181  0.58379631  0.06524338  1
  O  O473  1  0.97844234  0.58534097  0.31596834  1
  O  O474  1  0.97869786  0.58303260  0.56792156  1
  O  O475  1  0.97708367  0.58361079  0.81577315  1
  O  O476  1  0.97670830  0.91654926  0.06581701  1
  O  O477  1  0.97844032  0.91551674  0.31669120  1
  O  O478  1  0.97878679  0.91629009  0.56830361  1
  O  O479  1  0.97817259  0.91742595  0.81712254  1
  O  O480  1  0.07401991  0.31291092  0.07530637  1
  O  O481  1  0.07354575  0.31195831  0.32452115  1
  O  O482  1  0.07329374  0.31193953  0.57502451  1
  O  O483  1  0.07378781  0.31207938  0.82445105  1
  O  O484  1  0.07205676  0.64745289  0.07223977  1
  O  O485  1  0.07390818  0.64797448  0.32251845  1
  O  O486  1  0.07402159  0.64662815  0.57541598  1
  O  O487  1  0.07207047  0.64720438  0.82439186  1
  O  O488  1  0.07175786  0.98005370  0.07401013  1
  O  O489  1  0.07397241  0.97911979  0.32397468  1
  O  O490  1  0.07424137  0.97962616  0.57527147  1
  O  O491  1  0.07336538  0.98063083  0.82444699  1
  O  O492  1  0.57313727  0.31485603  0.07448254  1
  O  O493  1  0.57342763  0.31335103  0.32415488  1
  O  O494  1  0.57321643  0.31520878  0.57437232  1
  O  O495  1  0.57192515  0.31454025  0.82351544  1
  O  O496  1  0.57257204  0.64563594  0.07579222  1
  O  O497  1  0.57212119  0.64678210  0.32366796  1
  O  O498  1  0.57327748  0.64598127  0.57462167  1
  O  O499  1  0.57383651  0.64654730  0.82654956  1
  O  O500  1  0.57236875  0.97903393  0.07471625  1
  O  O501  1  0.57310854  0.98160082  0.32340867  1
  O  O502  1  0.57351278  0.98096444  0.57603864  1
  O  O503  1  0.57314210  0.97901238  0.82573996  1
  O  O504  1  0.42800693  0.01981542  0.17636202  1
  O  O505  1  0.42624770  0.02034280  0.42447961  1
  O  O506  1  0.42637148  0.02172448  0.67535279  1
  O  O507  1  0.42525275  0.02032531  0.92447424  1
  O  O508  1  0.42677801  0.35478268  0.17572204  1
  O  O509  1  0.42759892  0.35334336  0.42612128  1
  O  O510  1  0.42594435  0.35280131  0.67588086  1
  O  O511  1  0.42677960  0.35308445  0.92758929  1
  O  O512  1  0.42686386  0.68483712  0.17605131  1
  O  O513  1  0.42595229  0.68654140  0.42501340  1
  O  O514  1  0.42733882  0.68725542  0.67588834  1
  O  O515  1  0.42648808  0.68776296  0.92540922  1
  O  O516  1  0.92683175  0.02023872  0.17595570  1
  O  O517  1  0.92740123  0.02024696  0.42512249  1
  O  O518  1  0.92855577  0.01890759  0.67639998  1
  O  O519  1  0.92641625  0.01829276  0.92573802  1
  O  O520  1  0.92629409  0.35346946  0.17336272  1
  O  O521  1  0.92616673  0.35309074  0.42428352  1
  O  O522  1  0.92675919  0.35370769  0.67541737  1
  O  O523  1  0.92764675  0.35403776  0.92392467  1
  O  O524  1  0.92790604  0.68647165  0.17560481  1
  O  O525  1  0.92701206  0.68656157  0.42345391  1
  O  O526  1  0.92667897  0.68505803  0.67646733  1
  O  O527  1  0.92730631  0.68627118  0.92724944  1
  O  O528  1  0.17715698  0.01914335  0.19822344  1
  O  O529  1  0.17615102  0.01959781  0.45027452  1
  O  O530  1  0.17808750  0.01862303  0.69870226  1
  O  O531  1  0.17612326  0.01949109  0.95094884  1
  O  O532  1  0.17733070  0.35387317  0.19931910  1
  O  O533  1  0.17714070  0.35465872  0.44919836  1
  O  O534  1  0.17556143  0.35404498  0.70018826  1
  O  O535  1  0.17630527  0.35348090  0.95121693  1
  O  O536  1  0.17670323  0.68633097  0.19822181  1
  O  O537  1  0.17805306  0.68686668  0.44711532  1
  O  O538  1  0.17752838  0.68515113  0.69933353  1
  O  O539  1  0.17782418  0.68620179  0.94864066  1
  O  O540  1  0.67721470  0.01825054  0.19997514  1
  O  O541  1  0.67665457  0.02083388  0.44951353  1
  O  O542  1  0.67589095  0.02024846  0.70005250  1
  O  O543  1  0.67583004  0.01895288  0.95040117  1
  O  O544  1  0.67681954  0.35387420  0.19980513  1
  O  O545  1  0.67647337  0.35477418  0.44877995  1
  O  O546  1  0.67662713  0.35367281  0.70024203  1
  O  O547  1  0.67816235  0.35330875  0.94862971  1
  O  O548  1  0.67862170  0.68549426  0.19886596  1
  O  O549  1  0.67636830  0.68832436  0.44950563  1
  O  O550  1  0.67696838  0.68744374  0.69944973  1
  O  O551  1  0.67598612  0.68641934  0.95176436  1
  O  O552  1  0.32279839  0.31380457  0.05214932  1
  O  O553  1  0.32417006  0.31351516  0.29931483  1
  O  O554  1  0.32287709  0.31317232  0.55021748  1
  O  O555  1  0.32315516  0.31312872  0.79966013  1
  O  O556  1  0.32261822  0.64731748  0.05175895  1
  O  O557  1  0.32089039  0.64765490  0.30109123  1
  O  O558  1  0.32317929  0.64891651  0.55039445  1
  O  O559  1  0.32358824  0.64825142  0.80202350  1
  O  O560  1  0.32269346  0.97902388  0.05150992  1
  O  O561  1  0.32277249  0.97836412  0.29933189  1
  O  O562  1  0.32369301  0.98063565  0.55042377  1
  O  O563  1  0.32293938  0.97884706  0.80086535  1
  O  O564  1  0.82396975  0.31388822  0.04968217  1
  O  O565  1  0.82368265  0.31211796  0.29941283  1
  O  O566  1  0.82393621  0.31412122  0.54855702  1
  O  O567  1  0.82315462  0.31492375  0.80145427  1
  O  O568  1  0.82129328  0.64662984  0.05226409  1
  O  O569  1  0.82269152  0.64597235  0.29903916  1
  O  O570  1  0.82423254  0.64723839  0.54883856  1
  O  O571  1  0.82301497  0.64652307  0.80157011  1
  O  O572  1  0.82192284  0.98013531  0.05261834  1
  O  O573  1  0.82360563  0.97816210  0.30002470  1
  O  O574  1  0.82342951  0.97931736  0.54982994  1
  O  O575  1  0.82378396  0.97980833  0.80015593  1
  O  O576  1  0.42830183  0.14753397  0.17640279  1
  O  O577  1  0.42571447  0.14703992  0.42386262  1
  O  O578  1  0.42689952  0.14903638  0.67613568  1
  O  O579  1  0.42523202  0.14717795  0.92518715  1
  O  O580  1  0.42663469  0.48156477  0.17639392  1
  O  O581  1  0.42767264  0.48079038  0.42725735  1
  O  O582  1  0.42669646  0.47962204  0.67541014  1
  O  O583  1  0.42755842  0.48053460  0.92693950  1
  O  O584  1  0.42640356  0.81195649  0.17569551  1
  O  O585  1  0.42669500  0.81341660  0.42376412  1
  O  O586  1  0.42675310  0.81455841  0.67615998  1
  O  O587  1  0.42677249  0.81474730  0.92712986  1
  O  O588  1  0.92688629  0.14732764  0.17539862  1
  O  O589  1  0.92704994  0.14733676  0.42629460  1
  O  O590  1  0.92763808  0.14632837  0.67696970  1
  O  O591  1  0.92709616  0.14520870  0.92462604  1
  O  O592  1  0.92621119  0.48029636  0.17395396  1
  O  O593  1  0.92696698  0.48019522  0.42408878  1
  O  O594  1  0.92714549  0.48089282  0.67581822  1
  O  O595  1  0.92718316  0.48127340  0.92540305  1
  O  O596  1  0.92878287  0.81375181  0.17605754  1
  O  O597  1  0.92719421  0.81323396  0.42416187  1
  O  O598  1  0.92699983  0.81218479  0.67596073  1
  O  O599  1  0.92819776  0.81346042  0.92679290  1
  O  O600  1  0.07409736  0.18602574  0.07493675  1
  O  O601  1  0.07364267  0.18482871  0.32339541  1
  O  O602  1  0.07350314  0.18479850  0.57423546  1
  O  O603  1  0.07369126  0.18472781  0.82427434  1
  O  O604  1  0.07182129  0.52019979  0.07312242  1
  O  O605  1  0.07336022  0.52080496  0.32290064  1
  O  O606  1  0.07416317  0.51991558  0.57513845  1
  O  O607  1  0.07196040  0.51987742  0.82379900  1
  O  O608  1  0.07145052  0.85263807  0.07290327  1
  O  O609  1  0.07341262  0.85206118  0.32261129  1
  O  O610  1  0.07403720  0.85271253  0.57616973  1
  O  O611  1  0.07338412  0.85370179  0.82576857  1
  O  O612  1  0.57294464  0.18774309  0.07432626  1
  O  O613  1  0.57285559  0.18625757  0.32389620  1
  O  O614  1  0.57272876  0.18834894  0.57493145  1
  O  O615  1  0.57154653  0.18711085  0.82400784  1
  O  O616  1  0.57231179  0.51878527  0.07465384  1
  O  O617  1  0.57173614  0.51947278  0.32337213  1
  O  O618  1  0.57338583  0.51876686  0.57415959  1
  O  O619  1  0.57349030  0.51964584  0.82586771  1
  O  O620  1  0.57183808  0.85178315  0.07564361  1
  O  O621  1  0.57351660  0.85441269  0.32451459  1
  O  O622  1  0.57394293  0.85401590  0.57478778  1
  O  O623  1  0.57298803  0.85189062  0.82442451  1
  O  O624  1  0.32194315  0.18625382  0.05260097  1
  O  O625  1  0.32338406  0.18665792  0.29873378  1
  O  O626  1  0.32311300  0.18581290  0.55086737  1
  O  O627  1  0.32313840  0.18621688  0.80009129  1
  O  O628  1  0.32098019  0.52010754  0.05217631  1
  O  O629  1  0.32206976  0.52048727  0.30096746  1
  O  O630  1  0.32322093  0.52194755  0.55023402  1
  O  O631  1  0.32316727  0.52124710  0.80076121  1
  O  O632  1  0.32113574  0.85176779  0.05206799  1
  O  O633  1  0.32277481  0.85142678  0.29958989  1
  O  O634  1  0.32355684  0.85361349  0.55025324  1
  O  O635  1  0.32298288  0.85178270  0.80074466  1
  O  O636  1  0.82412633  0.18701066  0.04858280  1
  O  O637  1  0.82277566  0.18474556  0.30054412  1
  O  O638  1  0.82428137  0.18725315  0.55008617  1
  O  O639  1  0.82300450  0.18769066  0.80067482  1
  O  O640  1  0.82222885  0.51931643  0.05165070  1
  O  O641  1  0.82296792  0.51896077  0.29987258  1
  O  O642  1  0.82387481  0.52036247  0.54950159  1
  O  O643  1  0.82352757  0.51938231  0.80144452  1
  O  O644  1  0.82263772  0.85265240  0.05220283  1
  O  O645  1  0.82301163  0.85127484  0.30013089  1
  O  O646  1  0.82378532  0.85207063  0.55087646  1
  O  O647  1  0.82439755  0.85298054  0.80078528  1
  O  O648  1  0.17888918  0.14669758  0.19809286  1
  O  O649  1  0.17663507  0.14629655  0.45006223  1
  O  O650  1  0.17856480  0.14624313  0.69825086  1
  O  O651  1  0.17643157  0.14619049  0.95115691  1
  O  O652  1  0.17813030  0.48120680  0.19787793  1
  O  O653  1  0.17670931  0.48190541  0.44874612  1
  O  O654  1  0.17616357  0.48105071  0.70050132  1
  O  O655  1  0.17618850  0.48026718  0.95128560  1
  O  O656  1  0.17810358  0.81331496  0.19705867  1
  O  O657  1  0.17766092  0.81419037  0.44832372  1
  O  O658  1  0.17679605  0.81197250  0.70015246  1
  O  O659  1  0.17777354  0.81344421  0.94890998  1
  O  O660  1  0.67695879  0.14539652  0.19973116  1
  O  O661  1  0.67707757  0.14809751  0.44872750  1
  O  O662  1  0.67625192  0.14730980  0.70026753  1
  O  O663  1  0.67528867  0.14588093  0.95121496  1
  O  O664  1  0.67652867  0.48096689  0.19856697  1
  O  O665  1  0.67678007  0.48199780  0.44830677  1
  O  O666  1  0.67627061  0.48037171  0.70089622  1
  O  O667  1  0.67753027  0.48074016  0.94862469  1
  O  O668  1  0.67708163  0.81281929  0.19850457  1
  O  O669  1  0.67696471  0.81528865  0.44835541  1
  O  O670  1  0.67703163  0.81466829  0.69918517  1
  O  O671  1  0.67661930  0.81312467  0.95169465  1
