# generated using pymatgen
data_Na2MnFe(PO4)2
_symmetry_space_group_name_H-M   'P 1'
_cell_length_a   22.34419425
_cell_length_b   20.09205279
_cell_length_c   19.45012268
_cell_angle_alpha   89.98912417
_cell_angle_beta   90.06083607
_cell_angle_gamma   90.04263688
_symmetry_Int_Tables_number   1
_chemical_formula_structural   Na2MnFe(PO4)2
_chemical_formula_sum   'Na96 Mn48 Fe48 P96 O384'
_cell_volume   8731.94478546
_cell_formula_units_Z   48
loop_
 _symmetry_equiv_pos_site_id
 _symmetry_equiv_pos_as_xyz
  1  'x, y, z'
loop_
 _atom_site_type_symbol
 _atom_site_label
 _atom_site_symmetry_multiplicity
 _atom_site_fract_x
 _atom_site_fract_y
 _atom_site_fract_z
 _atom_site_occupancy
  Na  Na0  1  0.14046810  0.24886849  0.24408257  1
  Na  Na1  1  0.14064394  0.24853170  0.49399601  1
  Na  Na2  1  0.14029207  0.25019648  0.74399265  1
  Na  Na3  1  0.14061977  0.24966752  0.99271961  1
  Na  Na4  1  0.14072644  0.58391191  0.24381444  1
  Na  Na5  1  0.13987668  0.58267893  0.49417130  1
  Na  Na6  1  0.13991434  0.58355507  0.74280056  1
  Na  Na7  1  0.14088015  0.58383809  0.99252001  1
  Na  Na8  1  0.14008387  0.91762755  0.24301799  1
  Na  Na9  1  0.14006048  0.91607990  0.49349765  1
  Na  Na10  1  0.14071814  0.91775551  0.74374424  1
  Na  Na11  1  0.14031635  0.91759547  0.99431637  1
  Na  Na12  1  0.63990588  0.25098940  0.24409744  1
  Na  Na13  1  0.63993493  0.24972277  0.49414887  1
  Na  Na14  1  0.63980773  0.24930437  0.74445104  1
  Na  Na15  1  0.63954970  0.24977294  0.99369473  1
  Na  Na16  1  0.64022772  0.58381130  0.24281612  1
  Na  Na17  1  0.63949495  0.58393007  0.49229378  1
  Na  Na18  1  0.63925561  0.58457815  0.74297151  1
  Na  Na19  1  0.63982218  0.58246701  0.99264936  1
  Na  Na20  1  0.63956776  0.91640912  0.24455491  1
  Na  Na21  1  0.63961828  0.91730045  0.49423025  1
  Na  Na22  1  0.64036945  0.91698814  0.74381007  1
  Na  Na23  1  0.64047221  0.91506280  0.99570911  1
  Na  Na24  1  0.35939645  0.08291307  0.00723388  1
  Na  Na25  1  0.35999988  0.08285288  0.25637494  1
  Na  Na26  1  0.36012709  0.08157426  0.50744341  1
  Na  Na27  1  0.35992198  0.08416180  0.75697475  1
  Na  Na28  1  0.36017472  0.41520169  0.00578075  1
  Na  Na29  1  0.35993548  0.41576238  0.25577429  1
  Na  Na30  1  0.35960671  0.41648467  0.50641459  1
  Na  Na31  1  0.35950543  0.41640690  0.75741809  1
  Na  Na32  1  0.35998133  0.75006583  0.00672358  1
  Na  Na33  1  0.36019012  0.75004350  0.25731063  1
  Na  Na34  1  0.35975077  0.74796159  0.50654005  1
  Na  Na35  1  0.35968100  0.74866387  0.75626089  1
  Na  Na36  1  0.85982436  0.08396631  0.00674890  1
  Na  Na37  1  0.85961102  0.08339098  0.25728510  1
  Na  Na38  1  0.86034014  0.08293467  0.50736919  1
  Na  Na39  1  0.86050709  0.08379207  0.75622958  1
  Na  Na40  1  0.85960393  0.41649092  0.00444763  1
  Na  Na41  1  0.85965578  0.41670580  0.25526636  1
  Na  Na42  1  0.85975442  0.41741663  0.50545188  1
  Na  Na43  1  0.85945333  0.41834731  0.75588887  1
  Na  Na44  1  0.86015832  0.74977963  0.00562971  1
  Na  Na45  1  0.86064925  0.75098438  0.25621376  1
  Na  Na46  1  0.85989204  0.75215163  0.50573196  1
  Na  Na47  1  0.85961937  0.75080349  0.75527429  1
  Na  Na48  1  0.10985143  0.08216722  0.11855082  1
  Na  Na49  1  0.10999161  0.08201969  0.36910631  1
  Na  Na50  1  0.10988787  0.08293563  0.61869890  1
  Na  Na51  1  0.10968891  0.08417663  0.86906204  1
  Na  Na52  1  0.10974878  0.41619909  0.11802774  1
  Na  Na53  1  0.10976121  0.41845236  0.36929958  1
  Na  Na54  1  0.10971698  0.41695682  0.61887223  1
  Na  Na55  1  0.11001771  0.41713729  0.86691298  1
  Na  Na56  1  0.11026511  0.75117614  0.11927246  1
  Na  Na57  1  0.10930518  0.75188916  0.36846209  1
  Na  Na58  1  0.10948696  0.75016879  0.61856669  1
  Na  Na59  1  0.10991057  0.75199525  0.86825151  1
  Na  Na60  1  0.60896942  0.08290945  0.11948835  1
  Na  Na61  1  0.60890561  0.08331685  0.37000655  1
  Na  Na62  1  0.60915117  0.08337684  0.61931342  1
  Na  Na63  1  0.60936289  0.08326657  0.86967427  1
  Na  Na64  1  0.60911108  0.41521424  0.11761124  1
  Na  Na65  1  0.60921052  0.41753041  0.36812127  1
  Na  Na66  1  0.60895221  0.41739645  0.61860102  1
  Na  Na67  1  0.60927336  0.41599238  0.86827968  1
  Na  Na68  1  0.60953743  0.74892290  0.11926491  1
  Na  Na69  1  0.60919826  0.75085540  0.36823665  1
  Na  Na70  1  0.60914479  0.74996767  0.61800066  1
  Na  Na71  1  0.60940880  0.74790511  0.86860804  1
  Na  Na72  1  0.39013603  0.24836046  0.13095148  1
  Na  Na73  1  0.39082936  0.25015458  0.38184894  1
  Na  Na74  1  0.39020500  0.24974285  0.63210770  1
  Na  Na75  1  0.39003602  0.24986163  0.88256031  1
  Na  Na76  1  0.39073997  0.58226185  0.13064327  1
  Na  Na77  1  0.39056806  0.58313560  0.38138422  1
  Na  Na78  1  0.39042511  0.58244016  0.63104732  1
  Na  Na79  1  0.39046737  0.58146039  0.88115261  1
  Na  Na80  1  0.39019881  0.91531669  0.13336413  1
  Na  Na81  1  0.39021625  0.91677832  0.38152264  1
  Na  Na82  1  0.39028579  0.91604792  0.63210589  1
  Na  Na83  1  0.39037046  0.91553865  0.88221339  1
  Na  Na84  1  0.89037201  0.24958808  0.13111080  1
  Na  Na85  1  0.89067571  0.25072055  0.38169190  1
  Na  Na86  1  0.89103657  0.24998961  0.63105458  1
  Na  Na87  1  0.89037150  0.25038239  0.88112600  1
  Na  Na88  1  0.89112588  0.58451820  0.13014506  1
  Na  Na89  1  0.89110437  0.58554559  0.38035394  1
  Na  Na90  1  0.89049316  0.58370692  0.63058937  1
  Na  Na91  1  0.89054476  0.58517305  0.87990917  1
  Na  Na92  1  0.89077985  0.91545681  0.13216465  1
  Na  Na93  1  0.89072200  0.91752953  0.38171186  1
  Na  Na94  1  0.89031264  0.91736584  0.63108859  1
  Na  Na95  1  0.89075433  0.91825001  0.88062372  1
  Mn  Mn96  1  0.74938594  0.16785298  0.12585661  1
  Mn  Mn97  1  0.24994939  0.83368429  0.37546567  1
  Mn  Mn98  1  -0.00005850  0.33258617  -0.00127601  1
  Mn  Mn99  1  0.25030757  0.33301086  0.37499263  1
  Mn  Mn100  1  0.49968381  0.00067128  0.75131773  1
  Mn  Mn101  1  0.75012526  -0.00038366  0.87574327  1
  Mn  Mn102  1  0.00059659  0.33352688  0.25039578  1
  Mn  Mn103  1  0.24986597  0.33296063  0.62520481  1
  Mn  Mn104  1  0.74955097  0.50038415  0.87452755  1
  Mn  Mn105  1  0.74982989  0.16745931  0.37577818  1
  Mn  Mn106  1  0.00043016  0.33410000  0.50053686  1
  Mn  Mn107  1  0.50019463  0.83149975  0.00099661  1
  Mn  Mn108  1  0.25088007  0.16490592  0.37457303  1
  Mn  Mn109  1  0.49984583  0.33398611  0.50083416  1
  Mn  Mn110  1  0.24943595  0.66736125  0.87466376  1
  Mn  Mn111  1  0.74903865  0.50091649  0.62463444  1
  Mn  Mn112  1  0.50000919  0.49979365  0.24928664  1
  Mn  Mn113  1  0.74998786  0.66836060  0.62332848  1
  Mn  Mn114  1  0.00009894  0.50154451  0.24905429  1
  Mn  Mn115  1  0.24933016  0.33234373  0.12503511  1
  Mn  Mn116  1  0.24940474  0.66549303  0.37592152  1
  Mn  Mn117  1  0.00056101  0.16552312  0.25088356  1
  Mn  Mn118  1  0.49920147  0.83299750  0.50008586  1
  Mn  Mn119  1  0.75020619  0.49927034  0.12357009  1
  Mn  Mn120  1  0.50009223  0.16648511  0.25042438  1
  Mn  Mn121  1  0.25060881  0.00003198  0.87522660  1
  Mn  Mn122  1  0.75033855  0.49950773  0.37352211  1
  Mn  Mn123  1  0.00118942  0.66836239  -0.00026431  1
  Mn  Mn124  1  0.75007692  -0.00078232  0.12606858  1
  Mn  Mn125  1  0.25048212  -0.00072141  0.62590949  1
  Mn  Mn126  1  0.74954158  0.16729586  0.87566968  1
  Mn  Mn127  1  0.00076919  0.50076398  -0.00064490  1
  Mn  Mn128  1  0.49976248  0.33273645  0.75012603  1
  Mn  Mn129  1  0.50018509  -0.00050209  0.00065243  1
  Mn  Mn130  1  0.00020128  0.66759943  0.49963724  1
  Mn  Mn131  1  0.74983259  0.33373363  0.62483967  1
  Mn  Mn132  1  0.75089234  0.16659575  0.62503418  1
  Mn  Mn133  1  0.50025477  0.83186872  0.75045637  1
  Mn  Mn134  1  0.75017482  0.66805532  0.37397268  1
  Mn  Mn135  1  -0.00020277  0.33329009  0.74929575  1
  Mn  Mn136  1  0.75063307  0.66723238  0.12450645  1
  Mn  Mn137  1  0.24971337  0.49949275  0.12464101  1
  Mn  Mn138  1  -0.00042350  0.00014860  0.00018397  1
  Mn  Mn139  1  0.74973078  -0.00060135  0.37579417  1
  Mn  Mn140  1  0.00022072  0.83445561  0.74923419  1
  Mn  Mn141  1  0.24971753  0.66602506  0.62568754  1
  Mn  Mn142  1  0.75063579  0.83252376  0.87417733  1
  Mn  Mn143  1  0.25115109  0.66755056  0.12449757  1
  Fe  Fe144  1  0.25001730  0.16684367  0.87580007  1
  Fe  Fe145  1  0.00002774  0.83381440  0.00000768  1
  Fe  Fe146  1  0.74926101  0.83412704  0.62542031  1
  Fe  Fe147  1  0.74944145  0.66682785  0.87455411  1
  Fe  Fe148  1  0.74960858  0.33347708  0.87457722  1
  Fe  Fe149  1  0.49950848  0.16649716  0.75033096  1
  Fe  Fe150  1  0.00006745  0.50107795  0.49972453  1
  Fe  Fe151  1  0.74965234  0.00003006  0.62549256  1
  Fe  Fe152  1  0.25057756  0.16642598  0.62573048  1
  Fe  Fe153  1  0.24984662  0.49932088  0.62540601  1
  Fe  Fe154  1  0.49994970  0.33225667  -0.00042856  1
  Fe  Fe155  1  0.25004819  0.16622690  0.12476902  1
  Fe  Fe156  1  0.74976323  0.33360041  0.37485589  1
  Fe  Fe157  1  0.49930799  -0.00032073  0.25069498  1
  Fe  Fe158  1  0.24985257  0.33317538  0.87467473  1
  Fe  Fe159  1  0.49969095  0.16684548  0.50019172  1
  Fe  Fe160  1  0.49981701  0.49970328  0.74993704  1
  Fe  Fe161  1  0.25047612  0.83380985  0.87551713  1
  Fe  Fe162  1  -0.00019950  0.50078031  0.74924632  1
  Fe  Fe163  1  -0.00015466  0.66750407  0.74918212  1
  Fe  Fe164  1  0.24990396  0.49992304  0.87478107  1
  Fe  Fe165  1  0.49966484  0.50046866  0.49970473  1
  Fe  Fe166  1  0.49955018  -0.00002599  0.50055350  1
  Fe  Fe167  1  0.49965440  0.66535418  -0.00019077  1
  Fe  Fe168  1  -0.00063409  -0.00014038  0.25036023  1
  Fe  Fe169  1  0.49940168  0.16607403  0.00068272  1
  Fe  Fe170  1  0.75007820  0.33344485  0.12469887  1
  Fe  Fe171  1  0.24999203  0.83291176  0.62506789  1
  Fe  Fe172  1  0.25044256  0.00014805  0.12456718  1
  Fe  Fe173  1  0.75007568  0.83411628  0.37548373  1
  Fe  Fe174  1  -0.00018079  0.83447841  0.49957453  1
  Fe  Fe175  1  0.00119761  0.66816574  0.25011230  1
  Fe  Fe176  1  0.50037940  0.66580966  0.24991789  1
  Fe  Fe177  1  0.75016814  0.83300477  0.12464520  1
  Fe  Fe178  1  0.00028685  0.00068897  0.74965935  1
  Fe  Fe179  1  0.00038502  0.16631013  0.50049952  1
  Fe  Fe180  1  0.49986918  0.66631136  0.49942970  1
  Fe  Fe181  1  0.00037397  0.00019357  0.49991038  1
  Fe  Fe182  1  0.25045525  0.83408907  0.12562369  1
  Fe  Fe183  1  0.25000600  0.49937802  0.37503802  1
  Fe  Fe184  1  -0.00014038  0.16626478  0.00012507  1
  Fe  Fe185  1  0.00016652  0.16642513  0.74986795  1
  Fe  Fe186  1  0.49967376  0.83247838  0.25069854  1
  Fe  Fe187  1  0.00026626  0.83420678  0.25008248  1
  Fe  Fe188  1  0.50025922  0.49913797  -0.00012408  1
  Fe  Fe189  1  0.49954620  0.66507469  0.74944083  1
  Fe  Fe190  1  0.49982358  0.33308135  0.24970620  1
  Fe  Fe191  1  0.25000330  -0.00030005  0.37452624  1
  P  P192  1  0.04250618  0.24837558  0.10222761  1
  P  P193  1  0.04307470  0.24961638  0.35424783  1
  P  P194  1  0.04240429  0.24844696  0.60295323  1
  P  P195  1  0.04203305  0.24853605  0.85228507  1
  P  P196  1  0.04378187  0.58466309  0.10296665  1
  P  P197  1  0.04259151  0.58566327  0.35253547  1
  P  P198  1  0.04192751  0.58273410  0.60293370  1
  P  P199  1  0.04172471  0.58458553  0.85080805  1
  P  P200  1  0.04195064  0.91527745  0.10314415  1
  P  P201  1  0.04161038  0.91739636  0.35218975  1
  P  P202  1  0.04148493  0.91736603  0.60166321  1
  P  P203  1  0.04240455  0.91878020  0.85230301  1
  P  P204  1  0.54104260  0.24940638  0.10191601  1
  P  P205  1  0.54176048  0.25134041  0.35295497  1
  P  P206  1  0.54179719  0.24864830  0.60301176  1
  P  P207  1  0.54149919  0.24824736  0.85340898  1
  P  P208  1  0.54154230  0.58277813  0.10150053  1
  P  P209  1  0.54241104  0.58435490  0.35256419  1
  P  P210  1  0.54130361  0.58342043  0.60164908  1
  P  P211  1  0.54104627  0.58234556  0.85197309  1
  P  P212  1  0.54202181  0.91575075  0.10481912  1
  P  P213  1  0.54053878  0.91678847  0.35240184  1
  P  P214  1  0.54147205  0.91757349  0.60276563  1
  P  P215  1  0.54279571  0.91586085  0.85367987  1
  P  P216  1  0.45770386  0.08193350  0.14791054  1
  P  P217  1  0.45849367  0.08318649  0.39862662  1
  P  P218  1  0.45762959  0.08450382  0.64727694  1
  P  P219  1  0.45735591  0.08439856  0.89804919  1
  P  P220  1  0.45805028  0.41461581  0.14640348  1
  P  P221  1  0.45771508  0.41796189  0.39742614  1
  P  P222  1  0.45761020  0.41787512  0.64765968  1
  P  P223  1  0.45905686  0.41627904  0.89820470  1
  P  P224  1  0.45865569  0.74850538  0.14862048  1
  P  P225  1  0.45771787  0.74854227  0.39682649  1
  P  P226  1  0.45777143  0.74770819  0.64723876  1
  P  P227  1  0.45782387  0.74715519  0.89734463  1
  P  P228  1  0.95750246  0.08186488  0.14776250  1
  P  P229  1  0.95851280  0.08309039  0.39858371  1
  P  P230  1  0.95909877  0.08346612  0.64745888  1
  P  P231  1  0.95756708  0.08493734  0.89700344  1
  P  P232  1  0.95756438  0.41663489  0.14637100  1
  P  P233  1  0.95811395  0.41877784  0.39746897  1
  P  P234  1  0.95785782  0.41840088  0.64682378  1
  P  P235  1  0.95779545  0.41761159  0.89552126  1
  P  P236  1  0.95910205  0.75073987  0.14817921  1
  P  P237  1  0.95819825  0.75265645  0.39670554  1
  P  P238  1  0.95776729  0.74977214  0.64673765  1
  P  P239  1  0.95820001  0.75220160  0.89678609  1
  P  P240  1  0.20890397  0.08289772  0.22643302  1
  P  P241  1  0.20834504  0.08110583  0.47777325  1
  P  P242  1  0.20833470  0.08477284  0.72820548  1
  P  P243  1  0.20807364  0.08413083  0.97809188  1
  P  P244  1  0.20695147  0.41638744  0.22844896  1
  P  P245  1  0.20801772  0.41748516  0.47801026  1
  P  P246  1  0.20791141  0.41752572  0.72822182  1
  P  P247  1  0.20848911  0.41636414  0.97602903  1
  P  P248  1  0.20844390  0.75138063  0.22751335  1
  P  P249  1  0.20705502  0.74973421  0.47882875  1
  P  P250  1  0.20755283  0.75160708  0.72795718  1
  P  P251  1  0.20813637  0.75233630  0.97798274  1
  P  P252  1  0.70690429  0.08346864  0.22884814  1
  P  P253  1  0.70747230  0.08294377  0.47916713  1
  P  P254  1  0.70784683  0.08259745  0.72769423  1
  P  P255  1  0.70695365  0.08310303  0.97895209  1
  P  P256  1  0.70748965  0.41526124  0.22694629  1
  P  P257  1  0.70711274  0.41591515  0.47681135  1
  P  P258  1  0.70665339  0.41684226  0.72830117  1
  P  P259  1  0.70745791  0.41503031  0.97711826  1
  P  P260  1  0.70814747  0.75189953  0.22760063  1
  P  P261  1  0.70731070  0.75229402  0.47734377  1
  P  P262  1  0.70714419  0.75118049  0.72719456  1
  P  P263  1  0.70766311  0.74884398  0.97736539  1
  P  P264  1  0.29171974  0.24837305  0.02182961  1
  P  P265  1  0.29312783  0.24904128  0.27163173  1
  P  P266  1  0.29250680  0.24807429  0.52296560  1
  P  P267  1  0.29134470  0.24956416  0.77356640  1
  P  P268  1  0.29252084  0.58290259  0.02103538  1
  P  P269  1  0.29245698  0.58193907  0.27274437  1
  P  P270  1  0.29174522  0.58116116  0.52279817  1
  P  P271  1  0.29160990  0.58195225  0.77238462  1
  P  P272  1  0.29175335  0.91642211  0.02350770  1
  P  P273  1  0.29211061  0.91797010  0.27190530  1
  P  P274  1  0.29249499  0.91491890  0.52277621  1
  P  P275  1  0.29269007  0.91505563  0.77262919  1
  P  P276  1  0.79202438  0.25171289  0.02217457  1
  P  P277  1  0.79233183  0.25190119  0.27253828  1
  P  P278  1  0.79315572  0.25076914  0.52144474  1
  P  P279  1  0.79242897  0.25132678  0.77267146  1
  P  P280  1  0.79288540  0.58360635  0.02067723  1
  P  P281  1  0.79321529  0.58380249  0.27105330  1
  P  P282  1  0.79270023  0.58389791  0.52089281  1
  P  P283  1  0.79171987  0.58541426  0.77187235  1
  P  P284  1  0.79293443  0.91509016  0.02281190  1
  P  P285  1  0.79225604  0.91528313  0.27259428  1
  P  P286  1  0.79104210  0.91666139  0.52365835  1
  P  P287  1  0.79286318  0.91717097  0.77103780  1
  O  O288  1  0.03768598  0.24885886  0.18225081  1
  O  O289  1  0.03770000  0.24928332  0.43418904  1
  O  O290  1  0.03684457  0.24824591  0.68288731  1
  O  O291  1  0.03676493  0.24852257  0.93222148  1
  O  O292  1  0.03869639  0.58518175  0.18290860  1
  O  O293  1  0.03704896  0.58498056  0.43244264  1
  O  O294  1  0.03632092  0.58292180  0.68279513  1
  O  O295  1  0.03709986  0.58461396  0.93083854  1
  O  O296  1  0.03654344  0.91513986  0.18298163  1
  O  O297  1  0.03645995  0.91753965  0.43208556  1
  O  O298  1  0.03647495  0.91788597  0.68157528  1
  O  O299  1  0.03714323  0.91820183  0.93217344  1
  O  O300  1  0.53636042  0.25024566  0.18187998  1
  O  O301  1  0.53635390  0.25093441  0.43283380  1
  O  O302  1  0.53644061  0.24849686  0.68293946  1
  O  O303  1  0.53599877  0.24844429  0.93326378  1
  O  O304  1  0.53662644  0.58300662  0.18143976  1
  O  O305  1  0.53724325  0.58413849  0.43241143  1
  O  O306  1  0.53601578  0.58329351  0.68151594  1
  O  O307  1  0.53608870  0.58227896  0.93183797  1
  O  O308  1  0.53631452  0.91598481  0.18468487  1
  O  O309  1  0.53547440  0.91678970  0.43238585  1
  O  O310  1  0.53668573  0.91730618  0.68270166  1
  O  O311  1  0.53775163  0.91560222  0.93365519  1
  O  O312  1  0.46286916  0.08253545  0.06803200  1
  O  O313  1  0.46356749  0.08239994  0.31867954  1
  O  O314  1  0.46322177  0.08408853  0.56742340  1
  O  O315  1  0.46254732  0.08479693  0.81808988  1
  O  O316  1  0.46355450  0.41467101  0.06657907  1
  O  O317  1  0.46283883  0.41733782  0.31751116  1
  O  O318  1  0.46266265  0.41801693  0.56773679  1
  O  O319  1  0.46342221  0.41646286  0.81824604  1
  O  O320  1  0.46349321  0.74845282  0.06864713  1
  O  O321  1  0.46329454  0.74875023  0.31700302  1
  O  O322  1  0.46287945  0.74802037  0.56728358  1
  O  O323  1  0.46314165  0.74718200  0.81742072  1
  O  O324  1  0.96236316  0.08240413  0.06783513  1
  O  O325  1  0.96338624  0.08244687  0.31860627  1
  O  O326  1  0.96453213  0.08359385  0.56758342  1
  O  O327  1  0.96277897  0.08485430  0.81712990  1
  O  O328  1  0.96280182  0.41635216  0.06639608  1
  O  O329  1  0.96352861  0.41828887  0.31753582  1
  O  O330  1  0.96325284  0.41855168  0.56689624  1
  O  O331  1  0.96306826  0.41798147  0.81555451  1
  O  O332  1  0.96407718  0.75121119  0.06820084  1
  O  O333  1  0.96392692  0.75266220  0.31688743  1
  O  O334  1  0.96298964  0.75027183  0.56685117  1
  O  O335  1  0.96331524  0.75161293  0.81689128  1
  O  O336  1  0.21332005  0.08381417  0.05796540  1
  O  O337  1  0.21371057  0.08194468  0.30640784  1
  O  O338  1  0.21336666  0.08148785  0.55765918  1
  O  O339  1  0.21363756  0.08482234  0.80811433  1
  O  O340  1  0.21285055  0.41589498  0.05605961  1
  O  O341  1  0.21224732  0.41673913  0.30839579  1
  O  O342  1  0.21349225  0.41749397  0.55799240  1
  O  O343  1  0.21313352  0.41749346  0.80811520  1
  O  O344  1  0.21379032  0.75223077  0.05789255  1
  O  O345  1  0.21315005  0.75092371  0.30749227  1
  O  O346  1  0.21227253  0.74998474  0.55878138  1
  O  O347  1  0.21296065  0.75182579  0.80792532  1
  O  O348  1  0.71201986  0.08328718  0.05893129  1
  O  O349  1  0.71201227  0.08351606  0.30883476  1
  O  O350  1  0.71291378  0.08235607  0.55910303  1
  O  O351  1  0.71259436  0.08289481  0.80772336  1
  O  O352  1  0.71286749  0.41501772  0.05704415  1
  O  O353  1  0.71268236  0.41519141  0.30690324  1
  O  O354  1  0.71197965  0.41663097  0.55682204  1
  O  O355  1  0.71196446  0.41647624  0.80825140  1
  O  O356  1  0.71298207  0.74944619  0.05730721  1
  O  O357  1  0.71337532  0.75214936  0.30754358  1
  O  O358  1  0.71223017  0.75241732  0.55732566  1
  O  O359  1  0.71243796  0.74991188  0.80712424  1
  O  O360  1  0.28779263  0.24880157  0.19169378  1
  O  O361  1  0.28756385  0.24824632  0.44302831  1
  O  O362  1  0.28673089  0.24954635  0.69354619  1
  O  O363  1  0.28625978  0.24854379  0.94194401  1
  O  O364  1  0.28747621  0.58262440  0.19275095  1
  O  O365  1  0.28648322  0.58111896  0.44285494  1
  O  O366  1  0.28621861  0.58158760  0.69244631  1
  O  O367  1  0.28683166  0.58282763  0.94112199  1
  O  O368  1  0.28705245  0.91771053  0.19199316  1
  O  O369  1  0.28734558  0.91582576  0.44286279  1
  O  O370  1  0.28725887  0.91499071  0.69270175  1
  O  O371  1  0.28727831  0.91644080  0.94348636  1
  O  O372  1  0.78707591  0.25180874  0.19254186  1
  O  O373  1  0.78798438  0.25108781  0.44149228  1
  O  O374  1  0.78760883  0.25073658  0.69268383  1
  O  O375  1  0.78673590  0.25148576  0.94221147  1
  O  O376  1  0.78828213  0.58375967  0.19105837  1
  O  O377  1  0.78792447  0.58378092  0.44090491  1
  O  O378  1  0.78652334  0.58527538  0.69189310  1
  O  O379  1  0.78734538  0.58423390  0.94074568  1
  O  O380  1  0.78723129  0.91502285  0.19265592  1
  O  O381  1  0.78620435  0.91628834  0.44365222  1
  O  O382  1  0.78731099  0.91748333  0.69113692  1
  O  O383  1  0.78789988  0.91534193  0.94283700  1
  O  O384  1  0.22761697  0.24773284  0.05804929  1
  O  O385  1  0.22884166  0.24898873  0.30697966  1
  O  O386  1  0.22818061  0.24807458  0.55839368  1
  O  O387  1  0.22713642  0.24949722  0.80916129  1
  O  O388  1  0.22837453  0.58362915  0.05668335  1
  O  O389  1  0.22807604  0.58111252  0.30817230  1
  O  O390  1  0.22753885  0.58145247  0.55851213  1
  O  O391  1  0.22742252  0.58217211  0.80817202  1
  O  O392  1  0.22754668  0.91593612  0.05908044  1
  O  O393  1  0.22787520  0.91814286  0.30774315  1
  O  O394  1  0.22819887  0.91480308  0.55844618  1
  O  O395  1  0.22845778  0.91545385  0.80839047  1
  O  O396  1  0.72769463  0.25198404  0.05775193  1
  O  O397  1  0.72798694  0.25190333  0.30810409  1
  O  O398  1  0.72876549  0.25003900  0.55650977  1
  O  O399  1  0.72795084  0.25160399  0.80778593  1
  O  O400  1  0.72861211  0.58356343  0.05609765  1
  O  O401  1  0.72873507  0.58373270  0.30585428  1
  O  O402  1  0.72812050  0.58433321  0.55551177  1
  O  O403  1  0.72741216  0.58530066  0.80738692  1
  O  O404  1  0.72851286  0.91489387  0.05809509  1
  O  O405  1  0.72788965  0.91510498  0.30805805  1
  O  O406  1  0.72683909  0.91660562  0.55950727  1
  O  O407  1  0.72864903  0.91663353  0.80671865  1
  O  O408  1  0.27305322  0.08406195  0.19065450  1
  O  O409  1  0.27267012  0.08055439  0.44217985  1
  O  O410  1  0.27255746  0.08438136  0.69242518  1
  O  O411  1  0.27225937  0.08437130  0.94216066  1
  O  O412  1  0.27128690  0.41591305  0.19315974  1
  O  O413  1  0.27220245  0.41777619  0.44207213  1
  O  O414  1  0.27208761  0.41731762  0.69230452  1
  O  O415  1  0.27279452  0.41669418  0.94072612  1
  O  O416  1  0.27284688  0.75192912  0.19225518  1
  O  O417  1  0.27135173  0.74945117  0.44354249  1
  O  O418  1  0.27176826  0.75134713  0.69214686  1
  O  O419  1  0.27229589  0.75167093  0.94203172  1
  O  O420  1  0.77130890  0.08378278  0.19386366  1
  O  O421  1  0.77172495  0.08327014  0.44371881  1
  O  O422  1  0.77225169  0.08216587  0.69253962  1
  O  O423  1  0.77137628  0.08350447  0.94398377  1
  O  O424  1  0.77183625  0.41513241  0.19140625  1
  O  O425  1  0.77158314  0.41528460  0.44165201  1
  O  O426  1  0.77102752  0.41743447  0.69313590  1
  O  O427  1  0.77162159  0.41536374  0.94124241  1
  O  O428  1  0.77245308  0.75201871  0.19201540  1
  O  O429  1  0.77177001  0.75245525  0.44214438  1
  O  O430  1  0.77144780  0.75235430  0.69158497  1
  O  O431  1  0.77195677  0.74801639  0.94171465  1
  O  O432  1  0.02192216  0.08118953  0.18322524  1
  O  O433  1  0.02276774  0.08303276  0.43441019  1
  O  O434  1  0.02304390  0.08333681  0.68419777  1
  O  O435  1  0.02174975  0.08477244  0.93317948  1
  O  O436  1  0.02197358  0.41715306  0.18156966  1
  O  O437  1  0.02233513  0.41891946  0.43339067  1
  O  O438  1  0.02203136  0.41815725  0.68276161  1
  O  O439  1  0.02211107  0.41695483  0.93099120  1
  O  O440  1  0.02324656  0.75070609  0.18434092  1
  O  O441  1  0.02221063  0.75274114  0.43320572  1
  O  O442  1  0.02198565  0.74939346  0.68268875  1
  O  O443  1  0.02254847  0.75294513  0.93250215  1
  O  O444  1  0.52185671  0.08149798  0.18396652  1
  O  O445  1  0.52252457  0.08395113  0.43492077  1
  O  O446  1  0.52172329  0.08499982  0.68374158  1
  O  O447  1  0.52165028  0.08447912  0.93378443  1
  O  O448  1  0.52209000  0.41481687  0.18292314  1
  O  O449  1  0.52192207  0.41830037  0.43337566  1
  O  O450  1  0.52187013  0.41753485  0.68337838  1
  O  O451  1  0.52317410  0.41626989  0.93402303  1
  O  O452  1  0.52279686  0.74843655  0.18465958  1
  O  O453  1  0.52177062  0.74859717  0.43326101  1
  O  O454  1  0.52200643  0.74737722  0.68305348  1
  O  O455  1  0.52204820  0.74698805  0.93330332  1
  O  O456  1  0.47687151  0.24874631  0.06596252  1
  O  O457  1  0.47763565  0.25119551  0.31681035  1
  O  O458  1  0.47760687  0.24880327  0.56702444  1
  O  O459  1  0.47737901  0.24792058  0.81705558  1
  O  O460  1  0.47739055  0.58294160  0.06545353  1
  O  O461  1  0.47817218  0.58430166  0.31656684  1
  O  O462  1  0.47725858  0.58344503  0.56503215  1
  O  O463  1  0.47695432  0.58245351  0.81555203  1
  O  O464  1  0.47794089  0.91558438  0.06862292  1
  O  O465  1  0.47652813  0.91699584  0.31611557  1
  O  O466  1  0.47715604  0.91736705  0.56726392  1
  O  O467  1  0.47837614  0.91595179  0.81859329  1
  O  O468  1  0.97808214  0.24834058  0.06683117  1
  O  O469  1  0.97881321  0.24959096  0.31863705  1
  O  O470  1  0.97829493  0.24890617  0.56685841  1
  O  O471  1  0.97783839  0.24874109  0.81636454  1
  O  O472  1  0.97939340  0.58450247  0.06767779  1
  O  O473  1  0.97846532  0.58641551  0.31638926  1
  O  O474  1  0.97791686  0.58272018  0.56642439  1
  O  O475  1  0.97746414  0.58481033  0.81505583  1
  O  O476  1  0.97783081  0.91525889  0.06684467  1
  O  O477  1  0.97746827  0.91723149  0.31595768  1
  O  O478  1  0.97733807  0.91729126  0.56550689  1
  O  O479  1  0.97819991  0.91901324  0.81633687  1
  O  O480  1  0.07368033  0.31183019  0.07395453  1
  O  O481  1  0.07404869  0.31332452  0.32633748  1
  O  O482  1  0.07377645  0.31226161  0.57580740  1
  O  O483  1  0.07317372  0.31227377  0.82457063  1
  O  O484  1  0.07499358  0.64787243  0.07427225  1
  O  O485  1  0.07361108  0.64935737  0.32461808  1
  O  O486  1  0.07329381  0.64632550  0.57515784  1
  O  O487  1  0.07255383  0.64836838  0.82282908  1
  O  O488  1  0.07308968  0.97897466  0.07531645  1
  O  O489  1  0.07224687  0.98109179  0.32341342  1
  O  O490  1  0.07268595  0.98070229  0.57314369  1
  O  O491  1  0.07308712  0.98249194  0.82398056  1
  O  O492  1  0.57149783  0.31294923  0.07266282  1
  O  O493  1  0.57221925  0.31504029  0.32434543  1
  O  O494  1  0.57291136  0.31259024  0.57577292  1
  O  O495  1  0.57238077  0.31202037  0.82528427  1
  O  O496  1  0.57285234  0.64604061  0.07307830  1
  O  O497  1  0.57330413  0.64783039  0.32382902  1
  O  O498  1  0.57240011  0.64694870  0.57325473  1
  O  O499  1  0.57206917  0.64584243  0.82339949  1
  O  O500  1  0.57339554  0.97906726  0.07643245  1
  O  O501  1  0.57201602  0.98014402  0.32441123  1
  O  O502  1  0.57188220  0.98133295  0.57423087  1
  O  O503  1  0.57379196  0.97952985  0.82586246  1
  O  O504  1  0.42676021  0.01840187  0.17619667  1
  O  O505  1  0.42802924  0.01943198  0.42744347  1
  O  O506  1  0.42660320  0.02084112  0.67551935  1
  O  O507  1  0.42658634  0.02026248  0.92533078  1
  O  O508  1  0.42727568  0.35115383  0.17532327  1
  O  O509  1  0.42641815  0.35460364  0.42574861  1
  O  O510  1  0.42649135  0.35408835  0.67539134  1
  O  O511  1  0.42854672  0.35224224  0.92635803  1
  O  O512  1  0.42737913  0.68505703  0.17667423  1
  O  O513  1  0.42675031  0.68511796  0.42549328  1
  O  O514  1  0.42659358  0.68441217  0.67572259  1
  O  O515  1  0.42667359  0.68392559  0.92597497  1
  O  O516  1  0.92664459  0.01832658  0.17627103  1
  O  O517  1  0.92732601  0.01976089  0.42725129  1
  O  O518  1  0.92819271  0.01971665  0.67563568  1
  O  O519  1  0.92617305  0.02147247  0.92509052  1
  O  O520  1  0.92684974  0.35309162  0.17491081  1
  O  O521  1  0.92701871  0.35518319  0.42537446  1
  O  O522  1  0.92667399  0.35453744  0.67417712  1
  O  O523  1  0.92647717  0.35406030  0.92331032  1
  O  O524  1  0.92855547  0.68672244  0.17611920  1
  O  O525  1  0.92687207  0.68905280  0.42442652  1
  O  O526  1  0.92700106  0.68613541  0.67510715  1
  O  O527  1  0.92742704  0.68854073  0.92509117  1
  O  O528  1  0.17877373  0.01907707  0.19728031  1
  O  O529  1  0.17752230  0.01761824  0.44900155  1
  O  O530  1  0.17712672  0.02101747  0.70060744  1
  O  O531  1  0.17710789  0.02042420  0.94981402  1
  O  O532  1  0.17573164  0.35283996  0.20035604  1
  O  O533  1  0.17728251  0.35336103  0.45064775  1
  O  O534  1  0.17661236  0.35394273  0.70014085  1
  O  O535  1  0.17818761  0.35243613  0.94742522  1
  O  O536  1  0.17783379  0.68759261  0.19936468  1
  O  O537  1  0.17592250  0.68613711  0.45083972  1
  O  O538  1  0.17651389  0.68769439  0.70053959  1
  O  O539  1  0.17652437  0.68886407  0.95018994  1
  O  O540  1  0.67613582  0.01977234  0.20082882  1
  O  O541  1  0.67615198  0.01973773  0.45060567  1
  O  O542  1  0.67690163  0.01910579  0.69922986  1
  O  O543  1  0.67621218  0.01932787  0.95104021  1
  O  O544  1  0.67638834  0.35207309  0.19812409  1
  O  O545  1  0.67623755  0.35224561  0.44887222  1
  O  O546  1  0.67557451  0.35346240  0.69986125  1
  O  O547  1  0.67662635  0.35165185  0.94837244  1
  O  O548  1  0.67730334  0.68790055  0.20004916  1
  O  O549  1  0.67665360  0.68841199  0.44926640  1
  O  O550  1  0.67632294  0.68777763  0.69834753  1
  O  O551  1  0.67662102  0.68532646  0.94899033  1
  O  O552  1  0.32249027  0.31230278  0.04966802  1
  O  O553  1  0.32407616  0.31264130  0.29988540  1
  O  O554  1  0.32353957  0.31181442  0.55074343  1
  O  O555  1  0.32160265  0.31374847  0.80193351  1
  O  O556  1  0.32401574  0.64631345  0.04903319  1
  O  O557  1  0.32288217  0.64583765  0.30100876  1
  O  O558  1  0.32288531  0.64494562  0.55050353  1
  O  O559  1  0.32266859  0.64586628  0.79969386  1
  O  O560  1  0.32173258  0.98068633  0.05193453  1
  O  O561  1  0.32284892  0.98147394  0.30082716  1
  O  O562  1  0.32385722  0.97813099  0.55135201  1
  O  O563  1  0.32389748  0.97880905  0.80027339  1
  O  O564  1  0.82320389  0.31500206  0.05061971  1
  O  O565  1  0.82327531  0.31523124  0.30121131  1
  O  O566  1  0.82406107  0.31420736  0.54994024  1
  O  O567  1  0.82304384  0.31509788  0.80074648  1
  O  O568  1  0.82454725  0.64658122  0.04930068  1
  O  O569  1  0.82411293  0.64737677  0.29925011  1
  O  O570  1  0.82394934  0.64738978  0.54886778  1
  O  O571  1  0.82240555  0.64902120  0.80025222  1
  O  O572  1  0.82382085  0.97877842  0.05084476  1
  O  O573  1  0.82289587  0.97935528  0.30034078  1
  O  O574  1  0.82157133  0.98071325  0.55159125  1
  O  O575  1  0.82390283  0.98049019  0.79988982  1
  O  O576  1  0.42680731  0.14549790  0.17610432  1
  O  O577  1  0.42732327  0.14693305  0.42604163  1
  O  O578  1  0.42647780  0.14779380  0.67581748  1
  O  O579  1  0.42629326  0.14741594  0.92710697  1
  O  O580  1  0.42670209  0.47820109  0.17415349  1
  O  O581  1  0.42711608  0.48166934  0.42568431  1
  O  O582  1  0.42690696  0.48116966  0.67659005  1
  O  O583  1  0.42802750  0.47959535  0.92689737  1
  O  O584  1  0.42831077  0.81244962  0.17710362  1
  O  O585  1  0.42629208  0.81199579  0.42479568  1
  O  O586  1  0.42707064  0.81154902  0.67521084  1
  O  O587  1  0.42706423  0.81100316  0.92525974  1
  O  O588  1  0.92669508  0.14540205  0.17617238  1
  O  O589  1  0.92798697  0.14705481  0.42645791  1
  O  O590  1  0.92798521  0.14695035  0.67580492  1
  O  O591  1  0.92696097  0.14836810  0.92610771  1
  O  O592  1  0.92627228  0.48015519  0.17398840  1
  O  O593  1  0.92741820  0.48256552  0.42523612  1
  O  O594  1  0.92695649  0.48168217  0.67560737  1
  O  O595  1  0.92689880  0.48105221  0.92388801  1
  O  O596  1  0.92801406  0.81402762  0.17672252  1
  O  O597  1  0.92722948  0.81595636  0.42562037  1
  O  O598  1  0.92675191  0.81330391  0.67470520  1
  O  O599  1  0.92733707  0.81568244  0.92522196  1
  O  O600  1  0.07280307  0.18450174  0.07408835  1
  O  O601  1  0.07438218  0.18635877  0.32587107  1
  O  O602  1  0.07319275  0.18507990  0.57427070  1
  O  O603  1  0.07291128  0.18519946  0.82368606  1
  O  O604  1  0.07469208  0.52100626  0.07488238  1
  O  O605  1  0.07357377  0.52214396  0.32448503  1
  O  O606  1  0.07279384  0.51932569  0.57419671  1
  O  O607  1  0.07218078  0.52066071  0.82283398  1
  O  O608  1  0.07281656  0.85206410  0.07400545  1
  O  O609  1  0.07281662  0.85403177  0.32384038  1
  O  O610  1  0.07193852  0.85335973  0.57375475  1
  O  O611  1  0.07365089  0.85548887  0.82399059  1
  O  O612  1  0.57206576  0.18556072  0.07450155  1
  O  O613  1  0.57321123  0.18790842  0.32515659  1
  O  O614  1  0.57271139  0.18549388  0.57403725  1
  O  O615  1  0.57277592  0.18509669  0.82479153  1
  O  O616  1  0.57181843  0.51867333  0.07338294  1
  O  O617  1  0.57355113  0.52094808  0.32409085  1
  O  O618  1  0.57201871  0.51968072  0.57322572  1
  O  O619  1  0.57179101  0.51869783  0.82332623  1
  O  O620  1  0.57334604  0.85234995  0.07665538  1
  O  O621  1  0.57081474  0.85269668  0.32420679  1
  O  O622  1  0.57265858  0.85409451  0.57486388  1
  O  O623  1  0.57372118  0.85242902  0.82537681  1
  O  O624  1  0.32297787  0.18524764  0.05064148  1
  O  O625  1  0.32447324  0.18582623  0.30002584  1
  O  O626  1  0.32305473  0.18451503  0.55161789  1
  O  O627  1  0.32259476  0.18640671  0.80217891  1
  O  O628  1  0.32342551  0.51937954  0.04925813  1
  O  O629  1  0.32347281  0.51844130  0.30077400  1
  O  O630  1  0.32261625  0.51787932  0.55166294  1
  O  O631  1  0.32259628  0.51872296  0.80127142  1
  O  O632  1  0.32332442  0.85332435  0.05198088  1
  O  O633  1  0.32324819  0.85448583  0.30019049  1
  O  O634  1  0.32303654  0.85105387  0.55085781  1
  O  O635  1  0.32351305  0.85172049  0.80140658  1
  O  O636  1  0.82275778  0.18792269  0.05036975  1
  O  O637  1  0.82324495  0.18804772  0.30029730  1
  O  O638  1  0.82444769  0.18732750  0.54957283  1
  O  O639  1  0.82322709  0.18768312  0.80087398  1
  O  O640  1  0.82370918  0.51971138  0.04824184  1
  O  O641  1  0.82424882  0.52030456  0.29910384  1
  O  O642  1  0.82321698  0.52032663  0.54952963  1
  O  O643  1  0.82285654  0.52179166  0.79955748  1
  O  O644  1  0.82350654  0.85141046  0.05109503  1
  O  O645  1  0.82336090  0.85231794  0.30180540  1
  O  O646  1  0.82208360  0.85329968  0.55217209  1
  O  O647  1  0.82428604  0.85374663  0.79905086  1
  O  O648  1  0.17743520  0.14641916  0.19883145  1
  O  O649  1  0.17747629  0.14467991  0.44945444  1
  O  O650  1  0.17775444  0.14814714  0.69914201  1
  O  O651  1  0.17698914  0.14738044  0.94931517  1
  O  O652  1  0.17598859  0.47971973  0.19982007  1
  O  O653  1  0.17682085  0.48061245  0.44930809  1
  O  O654  1  0.17706819  0.48087904  0.69925918  1
  O  O655  1  0.17744347  0.47999464  0.94811226  1
  O  O656  1  0.17757373  0.81492811  0.19927569  1
  O  O657  1  0.17595492  0.81300496  0.45023656  1
  O  O658  1  0.17664592  0.81485058  0.69908959  1
  O  O659  1  0.17761373  0.81590158  0.94933392  1
  O  O660  1  0.67564718  0.14686845  0.20078792  1
  O  O661  1  0.67636371  0.14657332  0.45141345  1
  O  O662  1  0.67711699  0.14637965  0.69976529  1
  O  O663  1  0.67573949  0.14641052  0.95062000  1
  O  O664  1  0.67681692  0.47924415  0.19911055  1
  O  O665  1  0.67652843  0.47959151  0.44836543  1
  O  O666  1  0.67556058  0.48044644  0.70026080  1
  O  O667  1  0.67629370  0.47881432  0.94961183  1
  O  O668  1  0.67707653  0.81499331  0.19861479  1
  O  O669  1  0.67633099  0.81555321  0.44857355  1
  O  O670  1  0.67607419  0.81484383  0.69944427  1
  O  O671  1  0.67680721  0.81245178  0.94921994  1
