# generated using pymatgen
data_Na2MnFe(PO4)2
_symmetry_space_group_name_H-M   'P 1'
_cell_length_a   22.34217340
_cell_length_b   20.09383320
_cell_length_c   19.45162222
_cell_angle_alpha   89.98703703
_cell_angle_beta   90.02931793
_cell_angle_gamma   89.95656076
_symmetry_Int_Tables_number   1
_chemical_formula_structural   Na2MnFe(PO4)2
_chemical_formula_sum   'Na96 Mn48 Fe48 P96 O384'
_cell_volume   8732.60556492
_cell_formula_units_Z   48
loop_
 _symmetry_equiv_pos_site_id
 _symmetry_equiv_pos_as_xyz
  1  'x, y, z'
loop_
 _atom_site_type_symbol
 _atom_site_label
 _atom_site_symmetry_multiplicity
 _atom_site_fract_x
 _atom_site_fract_y
 _atom_site_fract_z
 _atom_site_occupancy
  Na  Na0  1  0.14014532  0.24991051  0.24329299  1
  Na  Na1  1  0.14046060  0.25056129  0.49411230  1
  Na  Na2  1  0.14025939  0.25004101  0.74293000  1
  Na  Na3  1  0.13986729  0.25020294  0.99331626  1
  Na  Na4  1  0.14031449  0.58257141  0.24453213  1
  Na  Na5  1  0.14071439  0.58369381  0.49314805  1
  Na  Na6  1  0.14065213  0.58414332  0.74263825  1
  Na  Na7  1  0.14035262  0.58351527  0.99436356  1
  Na  Na8  1  0.14086443  0.91524561  0.24348068  1
  Na  Na9  1  0.14100244  0.91614790  0.49342732  1
  Na  Na10  1  0.14151546  0.91714023  0.74242903  1
  Na  Na11  1  0.14105677  0.91727231  0.99335610  1
  Na  Na12  1  0.63951122  0.24889563  0.24351107  1
  Na  Na13  1  0.64024911  0.24964194  0.49533717  1
  Na  Na14  1  0.63992203  0.24884263  0.74393864  1
  Na  Na15  1  0.63907229  0.24827274  0.99343785  1
  Na  Na16  1  0.63960638  0.58309533  0.24386923  1
  Na  Na17  1  0.63983043  0.58357452  0.49418272  1
  Na  Na18  1  0.63996634  0.58406339  0.74443335  1
  Na  Na19  1  0.63994685  0.58428766  0.99404481  1
  Na  Na20  1  0.63988950  0.91718871  0.24332050  1
  Na  Na21  1  0.63988147  0.91861283  0.49341703  1
  Na  Na22  1  0.64031967  0.91853514  0.74367426  1
  Na  Na23  1  0.64016494  0.91605638  0.99322762  1
  Na  Na24  1  0.36049998  0.08480069  0.00744082  1
  Na  Na25  1  0.36034070  0.08349397  0.25691510  1
  Na  Na26  1  0.35974082  0.08192242  0.50714445  1
  Na  Na27  1  0.36052196  0.08305454  0.75694491  1
  Na  Na28  1  0.35921717  0.41623064  0.00761500  1
  Na  Na29  1  0.35882271  0.41716817  0.25691297  1
  Na  Na30  1  0.35885535  0.41670792  0.50587002  1
  Na  Na31  1  0.35890577  0.41731832  0.75674361  1
  Na  Na32  1  0.36018377  0.74954018  0.00613834  1
  Na  Na33  1  0.35943578  0.74856427  0.25718908  1
  Na  Na34  1  0.35955567  0.74962672  0.50752047  1
  Na  Na35  1  0.35989300  0.74997252  0.75568989  1
  Na  Na36  1  0.86070356  0.08276464  0.00601462  1
  Na  Na37  1  0.86035687  0.08390747  0.25540548  1
  Na  Na38  1  0.85977402  0.08458731  0.50647395  1
  Na  Na39  1  0.86036378  0.08444879  0.75543921  1
  Na  Na40  1  0.85928659  0.41607339  0.00564495  1
  Na  Na41  1  0.85889088  0.41530367  0.25593523  1
  Na  Na42  1  0.85948789  0.41557485  0.50705644  1
  Na  Na43  1  0.86011346  0.41663318  0.75631083  1
  Na  Na44  1  0.85982933  0.74948395  0.00574966  1
  Na  Na45  1  0.86029940  0.74936340  0.25576634  1
  Na  Na46  1  0.86006266  0.75084728  0.50562245  1
  Na  Na47  1  0.85958331  0.75119478  0.75539544  1
  Na  Na48  1  0.10990560  0.08510514  0.11789347  1
  Na  Na49  1  0.10979703  0.08202831  0.36901621  1
  Na  Na50  1  0.11049102  0.08512955  0.61828283  1
  Na  Na51  1  0.11060237  0.08504584  0.86866847  1
  Na  Na52  1  0.10922296  0.41556062  0.11905117  1
  Na  Na53  1  0.10973831  0.41555343  0.36852338  1
  Na  Na54  1  0.10968438  0.41815092  0.61817302  1
  Na  Na55  1  0.10917502  0.41562440  0.86873956  1
  Na  Na56  1  0.11027879  0.75001951  0.11941270  1
  Na  Na57  1  0.11031821  0.74910731  0.36825911  1
  Na  Na58  1  0.11036550  0.75062139  0.61734466  1
  Na  Na59  1  0.11028082  0.74897188  0.86795134  1
  Na  Na60  1  0.60910442  0.08376844  0.11838244  1
  Na  Na61  1  0.60950189  0.08303566  0.36909357  1
  Na  Na62  1  0.61007393  0.08245973  0.61865009  1
  Na  Na63  1  0.60959564  0.08266903  0.86896305  1
  Na  Na64  1  0.60830632  0.41699859  0.11875005  1
  Na  Na65  1  0.60876213  0.41587495  0.36921654  1
  Na  Na66  1  0.60897912  0.41658369  0.61934564  1
  Na  Na67  1  0.60841128  0.41593938  0.86907833  1
  Na  Na68  1  0.60921687  0.75060951  0.11774733  1
  Na  Na69  1  0.60910442  0.75004182  0.36909169  1
  Na  Na70  1  0.60908873  0.75061879  0.61891132  1
  Na  Na71  1  0.60961315  0.75057523  0.86916889  1
  Na  Na72  1  0.38987731  0.25013909  0.13195422  1
  Na  Na73  1  0.38988773  0.24882277  0.38102297  1
  Na  Na74  1  0.39004605  0.24820578  0.63241499  1
  Na  Na75  1  0.39034374  0.24825373  0.88264717  1
  Na  Na76  1  0.39002579  0.58450245  0.13184440  1
  Na  Na77  1  0.38962122  0.58349947  0.38269502  1
  Na  Na78  1  0.38936262  0.58427431  0.63168770  1
  Na  Na79  1  0.38992398  0.58487190  0.88158175  1
  Na  Na80  1  0.39097095  0.91762307  0.13083118  1
  Na  Na81  1  0.39052211  0.91567258  0.38226840  1
  Na  Na82  1  0.39025867  0.91658271  0.63189310  1
  Na  Na83  1  0.39113678  0.91722680  0.88125989  1
  Na  Na84  1  0.89007677  0.24887997  0.13030480  1
  Na  Na85  1  0.89003620  0.24801991  0.38151831  1
  Na  Na86  1  0.89056634  0.25133433  0.63158835  1
  Na  Na87  1  0.89092595  0.24908428  0.88027506  1
  Na  Na88  1  0.89014524  0.58428361  0.13136321  1
  Na  Na89  1  0.89038067  0.58312432  0.38071804  1
  Na  Na90  1  0.89084409  0.58344107  0.63102693  1
  Na  Na91  1  0.89038585  0.58229457  0.88124405  1
  Na  Na92  1  0.89154837  0.91738915  0.13042535  1
  Na  Na93  1  0.89100378  0.91569414  0.38080882  1
  Na  Na94  1  0.89078493  0.91919328  0.63062784  1
  Na  Na95  1  0.89116752  0.91813265  0.88071993  1
  Mn  Mn96  1  0.00055658  0.83417254  -0.00033983  1
  Mn  Mn97  1  -0.00087508  0.33174203  0.24924656  1
  Mn  Mn98  1  0.49981345  0.16490419  0.50060134  1
  Mn  Mn99  1  0.24967812  0.50135246  0.87613192  1
  Mn  Mn100  1  0.75026288  0.49953919  0.62536209  1
  Mn  Mn101  1  -0.00021534  0.50001555  0.49924943  1
  Mn  Mn102  1  0.75055811  0.83385051  0.87441807  1
  Mn  Mn103  1  0.74992334  0.66678163  0.37512458  1
  Mn  Mn104  1  0.00035207  0.16705070  0.50007464  1
  Mn  Mn105  1  0.74937691  0.49952511  0.37524584  1
  Mn  Mn106  1  0.24981861  -0.00084989  0.37547764  1
  Mn  Mn107  1  0.74985241  0.66714220  0.62501939  1
  Mn  Mn108  1  0.00038729  0.66666601  -0.00028642  1
  Mn  Mn109  1  0.74976630  0.83390908  0.37460929  1
  Mn  Mn110  1  -0.00112063  0.49966055  0.24968660  1
  Mn  Mn111  1  0.74962771  0.33267134  0.87534898  1
  Mn  Mn112  1  0.50035105  0.83378081  0.75020972  1
  Mn  Mn113  1  0.25108208  0.00112378  0.87409822  1
  Mn  Mn114  1  0.49894806  0.50051610  0.50030612  1
  Mn  Mn115  1  0.25082021  0.00058135  0.12476192  1
  Mn  Mn116  1  0.75035331  0.16536828  0.87379274  1
  Mn  Mn117  1  0.49906570  0.33305152  0.24990435  1
  Mn  Mn118  1  0.00083053  0.83432042  0.74933004  1
  Mn  Mn119  1  0.49920070  0.33246410  0.49994666  1
  Mn  Mn120  1  0.49922037  0.83424129  0.24984804  1
  Mn  Mn121  1  0.00055711  0.00002177  0.24956804  1
  Mn  Mn122  1  0.00048152  0.83330565  0.49968233  1
  Mn  Mn123  1  0.75043867  0.00004414  0.12465104  1
  Mn  Mn124  1  0.49895477  0.33221088  0.75026924  1
  Mn  Mn125  1  0.49903986  0.50064049  -0.00040454  1
  Mn  Mn126  1  0.74952035  0.83526638  0.62556667  1
  Mn  Mn127  1  0.00006970  0.49887977  0.00022456  1
  Mn  Mn128  1  0.24983071  0.49996301  0.12569837  1
  Mn  Mn129  1  0.24940588  0.16707196  0.37559594  1
  Mn  Mn130  1  0.24982898  0.33296615  0.87528722  1
  Mn  Mn131  1  0.75059908  0.00167557  0.37376067  1
  Mn  Mn132  1  0.25014374  0.33351887  0.62519464  1
  Mn  Mn133  1  -0.00039935  0.66622042  0.74930935  1
  Mn  Mn134  1  0.25064415  0.83188943  0.12433200  1
  Mn  Mn135  1  0.49920015  0.50098999  0.74982960  1
  Mn  Mn136  1  0.74882075  0.33177698  0.12564351  1
  Mn  Mn137  1  0.74896018  0.50068477  0.87558438  1
  Mn  Mn138  1  0.00158788  0.00182589  0.75059858  1
  Mn  Mn139  1  0.74932062  0.50009285  0.12530411  1
  Mn  Mn140  1  0.75066494  0.83224100  0.12366067  1
  Mn  Mn141  1  0.49911184  0.66674872  0.25004982  1
  Mn  Mn142  1  0.25061932  0.83268142  0.87401775  1
  Mn  Mn143  1  0.74923247  0.33210588  0.37562980  1
  Fe  Fe144  1  0.00066377  0.66679701  0.25014772  1
  Fe  Fe145  1  0.75053611  0.00114364  0.62402769  1
  Fe  Fe146  1  0.25008204  0.33321759  0.37524796  1
  Fe  Fe147  1  0.00169874  0.00102930  0.00024228  1
  Fe  Fe148  1  0.50027589  -0.00010232  0.25007149  1
  Fe  Fe149  1  0.74995148  0.66633382  0.12503502  1
  Fe  Fe150  1  0.49982697  0.66752619  0.75048154  1
  Fe  Fe151  1  0.49997207  0.66733186  0.00033323  1
  Fe  Fe152  1  0.49990158  0.83420680  -0.00018315  1
  Fe  Fe153  1  0.24934319  0.49975932  0.37499273  1
  Fe  Fe154  1  0.24983539  0.66605277  0.12585007  1
  Fe  Fe155  1  0.24987880  0.16745490  0.12591704  1
  Fe  Fe156  1  0.75046368  0.16673861  0.62534785  1
  Fe  Fe157  1  0.75064732  0.00025715  0.87464261  1
  Fe  Fe158  1  0.74978468  0.16695150  0.37564892  1
  Fe  Fe159  1  0.25068825  0.83257989  0.37530446  1
  Fe  Fe160  1  0.74967802  0.16578099  0.12439840  1
  Fe  Fe161  1  0.24985462  0.66708004  0.87425427  1
  Fe  Fe162  1  0.00051128  0.00013415  0.49941537  1
  Fe  Fe163  1  0.49927721  -0.00039834  0.50029725  1
  Fe  Fe164  1  0.25093863  0.16652777  0.62484585  1
  Fe  Fe165  1  0.00010134  0.33370156  0.75020250  1
  Fe  Fe166  1  0.49925581  0.50048293  0.24981664  1
  Fe  Fe167  1  0.50014865  0.83339337  0.50041497  1
  Fe  Fe168  1  0.50019209  0.00059319  0.00039289  1
  Fe  Fe169  1  0.75021494  0.66699928  0.87473031  1
  Fe  Fe170  1  0.50036298  -0.00001542  0.75096763  1
  Fe  Fe171  1  0.50042952  0.16560008  0.75113287  1
  Fe  Fe172  1  0.00037236  0.16756457  0.74984064  1
  Fe  Fe173  1  0.49908340  0.33308053  0.00021881  1
  Fe  Fe174  1  0.24993807  0.66675943  0.62434281  1
  Fe  Fe175  1  0.49973650  0.16621549  0.24987068  1
  Fe  Fe176  1  0.25013824  0.66623792  0.37590269  1
  Fe  Fe177  1  0.25045314  -0.00012722  0.62494195  1
  Fe  Fe178  1  0.25005436  0.83285674  0.62450756  1
  Fe  Fe179  1  0.25025621  0.16689849  0.87478759  1
  Fe  Fe180  1  0.00036309  0.16631508  0.24957621  1
  Fe  Fe181  1  0.24985430  0.50037583  0.62487030  1
  Fe  Fe182  1  0.24915761  0.33331870  0.12542489  1
  Fe  Fe183  1  0.00037439  0.16742987  -0.00090567  1
  Fe  Fe184  1  0.74922463  0.33293145  0.62536852  1
  Fe  Fe185  1  -0.00004305  0.66671526  0.49947736  1
  Fe  Fe186  1  0.50013470  0.66666931  0.50030007  1
  Fe  Fe187  1  0.00087948  0.83337721  0.24997895  1
  Fe  Fe188  1  0.00005193  0.33369169  0.50041443  1
  Fe  Fe189  1  0.49971866  0.16622408  0.00058001  1
  Fe  Fe190  1  -0.00089170  0.33263531  -0.00071503  1
  Fe  Fe191  1  0.00063547  0.49974255  0.74946538  1
  P  P192  1  0.04137267  0.24978569  0.10124254  1
  P  P193  1  0.04224548  0.24820861  0.35245245  1
  P  P194  1  0.04230838  0.25214219  0.60312476  1
  P  P195  1  0.04175055  0.25014638  0.85188733  1
  P  P196  1  0.04256754  0.58340461  0.10366140  1
  P  P197  1  0.04182411  0.58392549  0.35256605  1
  P  P198  1  0.04229997  0.58434152  0.60195530  1
  P  P199  1  0.04249376  0.58152090  0.85199897  1
  P  P200  1  0.04329307  0.91813124  0.10263157  1
  P  P201  1  0.04291544  0.91533716  0.35244478  1
  P  P202  1  0.04293057  0.91879376  0.60202126  1
  P  P203  1  0.04417683  0.91759605  0.85337831  1
  P  P204  1  0.54048341  0.24992233  0.10201143  1
  P  P205  1  0.54163988  0.24808143  0.35237179  1
  P  P206  1  0.54204006  0.24873758  0.60391975  1
  P  P207  1  0.54169764  0.24816368  0.85366963  1
  P  P208  1  0.54152789  0.58448563  0.10265133  1
  P  P209  1  0.54147746  0.58253021  0.35279891  1
  P  P210  1  0.54176088  0.58497405  0.60318165  1
  P  P211  1  0.54144336  0.58517008  0.85303426  1
  P  P212  1  0.54155260  0.91763587  0.10173418  1
  P  P213  1  0.54192655  0.91769916  0.35319754  1
  P  P214  1  0.54111837  0.91693933  0.60205687  1
  P  P215  1  0.54233269  0.91796466  0.85352807  1
  P  P216  1  0.45869205  0.08304081  0.14801781  1
  P  P217  1  0.45730120  0.08127972  0.39714269  1
  P  P218  1  0.45891532  0.08232865  0.64902357  1
  P  P219  1  0.45879939  0.08296793  0.89849140  1
  P  P220  1  0.45692976  0.41802979  0.14745375  1
  P  P221  1  0.45672802  0.41666199  0.39646949  1
  P  P222  1  0.45631019  0.41665738  0.64718340  1
  P  P223  1  0.45671876  0.41522928  0.89787223  1
  P  P224  1  0.45723230  0.75081182  0.14613252  1
  P  P225  1  0.45836680  0.74998490  0.39906477  1
  P  P226  1  0.45815510  0.74930157  0.64710317  1
  P  P227  1  0.45891557  0.75030448  0.89830087  1
  P  P228  1  0.95864968  0.08483510  0.14633817  1
  P  P229  1  0.95808411  0.08201437  0.39725231  1
  P  P230  1  0.95865762  0.08546062  0.64730139  1
  P  P231  1  0.95948285  0.08400655  0.89808680  1
  P  P232  1  0.95632566  0.41562352  0.14610151  1
  P  P233  1  0.95725002  0.41460515  0.39751954  1
  P  P234  1  0.95873858  0.41676297  0.64798853  1
  P  P235  1  0.95776192  0.41475691  0.89646554  1
  P  P236  1  0.95926570  0.75051902  0.14832091  1
  P  P237  1  0.95840364  0.74857902  0.39648863  1
  P  P238  1  0.95756455  0.75059312  0.64595020  1
  P  P239  1  0.95754815  0.75026833  0.89646736  1
  P  P240  1  0.20787227  0.08425675  0.22752675  1
  P  P241  1  0.20773619  0.08291557  0.47930157  1
  P  P242  1  0.20934103  0.08380382  0.72644672  1
  P  P243  1  0.20891649  0.08530189  0.97766556  1
  P  P244  1  0.20740501  0.41535842  0.22833944  1
  P  P245  1  0.20858510  0.41662362  0.47689672  1
  P  P246  1  0.20784992  0.41827580  0.72733525  1
  P  P247  1  0.20702339  0.41642236  0.97879468  1
  P  P248  1  0.20857637  0.74820131  0.22857164  1
  P  P249  1  0.20894764  0.74996705  0.47732529  1
  P  P250  1  0.20870915  0.74962847  0.72607512  1
  P  P251  1  0.20799340  0.74845903  0.97736484  1
  P  P252  1  0.70758421  0.08470681  0.22735136  1
  P  P253  1  0.70809907  0.08501659  0.47817969  1
  P  P254  1  0.70888736  0.08296347  0.72642768  1
  P  P255  1  0.70793196  0.08197936  0.97731822  1
  P  P256  1  0.70607536  0.41594127  0.22839006  1
  P  P257  1  0.70664996  0.41579126  0.47912060  1
  P  P258  1  0.70737122  0.41544158  0.72776602  1
  P  P259  1  0.70618416  0.41635553  0.97845290  1
  P  P260  1  0.70740667  0.74895323  0.22690429  1
  P  P261  1  0.70684991  0.75096886  0.47822360  1
  P  P262  1  0.70704391  0.75074774  0.72863667  1
  P  P263  1  0.70811922  0.74872735  0.97725406  1
  P  P264  1  0.29102230  0.25009682  0.02375057  1
  P  P265  1  0.29159930  0.25122896  0.27214385  1
  P  P266  1  0.29238683  0.24924495  0.52257237  1
  P  P267  1  0.29244900  0.24867046  0.77242605  1
  P  P268  1  0.29214620  0.58479601  0.02293933  1
  P  P269  1  0.29116930  0.58330165  0.27395753  1
  P  P270  1  0.29094571  0.58311686  0.52270288  1
  P  P271  1  0.29186967  0.58484739  0.77187056  1
  P  P272  1  0.29324620  0.91665431  0.02154957  1
  P  P273  1  0.29249004  0.91492401  0.27289143  1
  P  P274  1  0.29146463  0.91595338  0.52334235  1
  P  P275  1  0.29312620  0.91672134  0.77057237  1
  P  P276  1  0.79184373  0.24797573  0.02240400  1
  P  P277  1  0.79183951  0.24786596  0.27242634  1
  P  P278  1  0.79146588  0.24969022  0.52363105  1
  P  P279  1  0.79252281  0.24994158  0.77079440  1
  P  P280  1  0.79211311  0.58461315  0.02229410  1
  P  P281  1  0.79254704  0.58321206  0.27150966  1
  P  P282  1  0.79297174  0.58332071  0.52202035  1
  P  P283  1  0.79234005  0.58448351  0.77269217  1
  P  P284  1  0.79337642  0.91673936  0.02083620  1
  P  P285  1  0.79322985  0.91680519  0.27118517  1
  P  P286  1  0.79251217  0.91875408  0.52201263  1
  P  P287  1  0.79290739  0.91920122  0.77171709  1
  O  O288  1  0.03635956  0.24903914  0.18117444  1
  O  O289  1  0.03739376  0.24899676  0.43234810  1
  O  O290  1  0.03697989  0.25212049  0.68296318  1
  O  O291  1  0.03623726  0.24981790  0.93174634  1
  O  O292  1  0.03703240  0.58393596  0.18357853  1
  O  O293  1  0.03662446  0.58410967  0.43250907  1
  O  O294  1  0.03705530  0.58355637  0.68185703  1
  O  O295  1  0.03752471  0.58171266  0.93197778  1
  O  O296  1  0.03784704  0.91735018  0.18252693  1
  O  O297  1  0.03769239  0.91595914  0.43233818  1
  O  O298  1  0.03818521  0.91869980  0.68200848  1
  O  O299  1  0.03919200  0.91788356  0.93335234  1
  O  O300  1  0.53548508  0.24930461  0.18193844  1
  O  O301  1  0.53651013  0.24810343  0.43231184  1
  O  O302  1  0.53680526  0.24825963  0.68385166  1
  O  O303  1  0.53621529  0.24872717  0.93354089  1
  O  O304  1  0.53609133  0.58360270  0.18256387  1
  O  O305  1  0.53642302  0.58308821  0.43275908  1
  O  O306  1  0.53666183  0.58523170  0.68314329  1
  O  O307  1  0.53606338  0.58509714  0.93296009  1
  O  O308  1  0.53650240  0.91767301  0.18167670  1
  O  O309  1  0.53656276  0.91727576  0.43305382  1
  O  O310  1  0.53664309  0.91686359  0.68203214  1
  O  O311  1  0.53700936  0.91803133  0.93332738  1
  O  O312  1  0.46383749  0.08310872  0.06813764  1
  O  O313  1  0.46254753  0.08164090  0.31731675  1
  O  O314  1  0.46336575  0.08176018  0.56904317  1
  O  O315  1  0.46390346  0.08351890  0.81865308  1
  O  O316  1  0.46214013  0.41755441  0.06752423  1
  O  O317  1  0.46212978  0.41718199  0.31653683  1
  O  O318  1  0.46137760  0.41675229  0.56721180  1
  O  O319  1  0.46189232  0.41540299  0.81795426  1
  O  O320  1  0.46268978  0.75064173  0.06628682  1
  O  O321  1  0.46273674  0.75046897  0.31904896  1
  O  O322  1  0.46367315  0.74936838  0.56727851  1
  O  O323  1  0.46377107  0.75013326  0.81832132  1
  O  O324  1  0.96423620  0.08480290  0.06651032  1
  O  O325  1  0.96314314  0.08241629  0.31734186  1
  O  O326  1  0.96360227  0.08480169  0.56744325  1
  O  O327  1  0.96464913  0.08466358  0.81816144  1
  O  O328  1  0.96157455  0.41523743  0.06616198  1
  O  O329  1  0.96199708  0.41470326  0.31755558  1
  O  O330  1  0.96368283  0.41660464  0.56800913  1
  O  O331  1  0.96344193  0.41497976  0.81660822  1
  O  O332  1  0.96417307  0.75058528  0.06833126  1
  O  O333  1  0.96408779  0.74878070  0.31662781  1
  O  O334  1  0.96274955  0.75012400  0.56597370  1
  O  O335  1  0.96252470  0.75032183  0.81650377  1
  O  O336  1  0.21411024  0.08557640  0.05758944  1
  O  O337  1  0.21244680  0.08382293  0.30754017  1
  O  O338  1  0.21348299  0.08286637  0.55916449  1
  O  O339  1  0.21432297  0.08416597  0.80644733  1
  O  O340  1  0.21210717  0.41589963  0.05874436  1
  O  O341  1  0.21275697  0.41539741  0.30820550  1
  O  O342  1  0.21363824  0.41740060  0.55683819  1
  O  O343  1  0.21296632  0.41802346  0.80724907  1
  O  O344  1  0.21320379  0.74824797  0.05732413  1
  O  O345  1  0.21421745  0.74885963  0.30842144  1
  O  O346  1  0.21408651  0.74999135  0.55722293  1
  O  O347  1  0.21332829  0.74961464  0.80606267  1
  O  O348  1  0.71296631  0.08282135  0.05724914  1
  O  O349  1  0.71273787  0.08511069  0.30730638  1
  O  O350  1  0.71366402  0.08459134  0.55804047  1
  O  O351  1  0.71401409  0.08204902  0.80637464  1
  O  O352  1  0.71116475  0.41638371  0.05842955  1
  O  O353  1  0.71113999  0.41585961  0.30839735  1
  O  O354  1  0.71209488  0.41534423  0.55908275  1
  O  O355  1  0.71219248  0.41583829  0.80777661  1
  O  O356  1  0.71348683  0.74837112  0.05719154  1
  O  O357  1  0.71224989  0.74964558  0.30691064  1
  O  O358  1  0.71180178  0.75123924  0.55818840  1
  O  O359  1  0.71260419  0.75028178  0.80856092  1
  O  O360  1  0.28593115  0.25095003  0.19227118  1
  O  O361  1  0.28697880  0.24999816  0.44267253  1
  O  O362  1  0.28752803  0.24854206  0.69247833  1
  O  O363  1  0.28644948  0.24976238  0.94373550  1
  O  O364  1  0.28657589  0.58326160  0.19399061  1
  O  O365  1  0.28565697  0.58308165  0.44284079  1
  O  O366  1  0.28644842  0.58439513  0.69200040  1
  O  O367  1  0.28690755  0.58509070  0.94300841  1
  O  O368  1  0.28735405  0.91522735  0.19296069  1
  O  O369  1  0.28663977  0.91529340  0.44337099  1
  O  O370  1  0.28758563  0.91685753  0.69069594  1
  O  O371  1  0.28817221  0.91685224  0.94158900  1
  O  O372  1  0.78657034  0.24765099  0.19249565  1
  O  O373  1  0.78639713  0.24929767  0.44362677  1
  O  O374  1  0.78727347  0.25016610  0.69088912  1
  O  O375  1  0.78689711  0.24820735  0.94244789  1
  O  O376  1  0.78737008  0.58367183  0.19152919  1
  O  O377  1  0.78785090  0.58298185  0.44204692  1
  O  O378  1  0.78734485  0.58387437  0.69272525  1
  O  O379  1  0.78674643  0.58482417  0.94232525  1
  O  O380  1  0.78840356  0.91643768  0.19120279  1
  O  O381  1  0.78747890  0.91837466  0.44204411  1
  O  O382  1  0.78742131  0.91958116  0.69175899  1
  O  O383  1  0.78825801  0.91730345  0.94086826  1
  O  O384  1  0.22674179  0.24982540  0.05933284  1
  O  O385  1  0.22754216  0.25183210  0.30848987  1
  O  O386  1  0.22822305  0.24881847  0.55847893  1
  O  O387  1  0.22804987  0.24862238  0.80783718  1
  O  O388  1  0.22789121  0.58451796  0.05872200  1
  O  O389  1  0.22699390  0.58402002  0.30971791  1
  O  O390  1  0.22700207  0.58309868  0.55927711  1
  O  O391  1  0.22768434  0.58523444  0.80798324  1
  O  O392  1  0.22895993  0.91660500  0.05683183  1
  O  O393  1  0.22819522  0.91422024  0.30849834  1
  O  O394  1  0.22738352  0.91692447  0.55930892  1
  O  O395  1  0.22899557  0.91688909  0.80642732  1
  O  O396  1  0.72740191  0.24743750  0.05767684  1
  O  O397  1  0.72748887  0.24780797  0.30803085  1
  O  O398  1  0.72734861  0.24931184  0.55969241  1
  O  O399  1  0.72826580  0.24937661  0.80637852  1
  O  O400  1  0.72781386  0.58495517  0.05800028  1
  O  O401  1  0.72811998  0.58321037  0.30664524  1
  O  O402  1  0.72848764  0.58317799  0.55688444  1
  O  O403  1  0.72788568  0.58520164  0.80792395  1
  O  O404  1  0.72898683  0.91647186  0.05599899  1
  O  O405  1  0.72870470  0.91754742  0.30594617  1
  O  O406  1  0.72811658  0.91929100  0.55739566  1
  O  O407  1  0.72867179  0.91898080  0.80753452  1
  O  O408  1  0.27234433  0.08481395  0.19249961  1
  O  O409  1  0.27179601  0.08310549  0.44328574  1
  O  O410  1  0.27354044  0.08336912  0.69060414  1
  O  O411  1  0.27315078  0.08560407  0.94185678  1
  O  O412  1  0.27151443  0.41522809  0.19217532  1
  O  O413  1  0.27259941  0.41600787  0.44073771  1
  O  O414  1  0.27211120  0.41840113  0.69170382  1
  O  O415  1  0.27134948  0.41675283  0.94350414  1
  O  O416  1  0.27262228  0.74770168  0.19216871  1
  O  O417  1  0.27301661  0.75000957  0.44101382  1
  O  O418  1  0.27291352  0.74913111  0.69043685  1
  O  O419  1  0.27228046  0.74819555  0.94159972  1
  O  O420  1  0.77196358  0.08484423  0.19187961  1
  O  O421  1  0.77225103  0.08565109  0.44201467  1
  O  O422  1  0.77306621  0.08335897  0.69044214  1
  O  O423  1  0.77234722  0.08142259  0.94189623  1
  O  O424  1  0.77051588  0.41575941  0.19346466  1
  O  O425  1  0.77096901  0.41581341  0.44374834  1
  O  O426  1  0.77177838  0.41508186  0.69258559  1
  O  O427  1  0.77067540  0.41665574  0.94358487  1
  O  O428  1  0.77194224  0.74820063  0.19183886  1
  O  O429  1  0.77137152  0.75070093  0.44338215  1
  O  O430  1  0.77131626  0.75116616  0.69317435  1
  O  O431  1  0.77232180  0.74888149  0.94138668  1
  O  O432  1  0.02270593  0.08485156  0.18278196  1
  O  O433  1  0.02238107  0.08212318  0.43299929  1
  O  O434  1  0.02300714  0.08614028  0.68291314  1
  O  O435  1  0.02360205  0.08420930  0.93425575  1
  O  O436  1  0.02062270  0.41584905  0.18156514  1
  O  O437  1  0.02175950  0.41498752  0.43265670  1
  O  O438  1  0.02290394  0.41685185  0.68402138  1
  O  O439  1  0.02179999  0.41431928  0.93295121  1
  O  O440  1  0.02341746  0.75058015  0.18432409  1
  O  O441  1  0.02249375  0.74838585  0.43290651  1
  O  O442  1  0.02195648  0.75010608  0.68118735  1
  O  O443  1  0.02206034  0.75024303  0.93135450  1
  O  O444  1  0.52271787  0.08268936  0.18448991  1
  O  O445  1  0.52154385  0.08069358  0.43317761  1
  O  O446  1  0.52318224  0.08300828  0.68479039  1
  O  O447  1  0.52285636  0.08245165  0.93480207  1
  O  O448  1  0.52114331  0.41806781  0.18331947  1
  O  O449  1  0.52095145  0.41663040  0.43214806  1
  O  O450  1  0.52069885  0.41651339  0.68231129  1
  O  O451  1  0.52099816  0.41524009  0.93354593  1
  O  O452  1  0.52134589  0.75053652  0.18213126  1
  O  O453  1  0.52266464  0.74949317  0.43451287  1
  O  O454  1  0.52216090  0.74909903  0.68365943  1
  O  O455  1  0.52295382  0.74994507  0.93444309  1
  O  O456  1  0.47640221  0.25048152  0.06589980  1
  O  O457  1  0.47736109  0.24816886  0.31673102  1
  O  O458  1  0.47772397  0.24866908  0.56847379  1
  O  O459  1  0.47755865  0.24739212  0.81749789  1
  O  O460  1  0.47730847  0.58509926  0.06679524  1
  O  O461  1  0.47712820  0.58213938  0.31716996  1
  O  O462  1  0.47742673  0.58532946  0.56753637  1
  O  O463  1  0.47722336  0.58544628  0.81711641  1
  O  O464  1  0.47746839  0.91808455  0.06557722  1
  O  O465  1  0.47774074  0.91863479  0.31704538  1
  O  O466  1  0.47691423  0.91729514  0.56620238  1
  O  O467  1  0.47823613  0.91799543  0.81727953  1
  O  O468  1  0.97722027  0.24983106  0.06508068  1
  O  O469  1  0.97783460  0.24743280  0.31695372  1
  O  O470  1  0.97814433  0.25202585  0.56695422  1
  O  O471  1  0.97776933  0.25023621  0.81527053  1
  O  O472  1  0.97836183  0.58310565  0.06794432  1
  O  O473  1  0.97764843  0.58441388  0.31668099  1
  O  O474  1  0.97803825  0.58482866  0.56613587  1
  O  O475  1  0.97810942  0.58125489  0.81658001  1
  O  O476  1  0.97913367  0.91894437  0.06657000  1
  O  O477  1  0.97870118  0.91521991  0.31656517  1
  O  O478  1  0.97855541  0.91850106  0.56664876  1
  O  O479  1  0.97973359  0.91774673  0.81824427  1
  O  O480  1  0.07174435  0.31385220  0.07342111  1
  O  O481  1  0.07295849  0.31175694  0.32388444  1
  O  O482  1  0.07300285  0.31559571  0.57410849  1
  O  O483  1  0.07290893  0.31364139  0.82378688  1
  O  O484  1  0.07381551  0.64664271  0.07518091  1
  O  O485  1  0.07321191  0.64697050  0.32392197  1
  O  O486  1  0.07313881  0.64791786  0.57376904  1
  O  O487  1  0.07333921  0.64524282  0.82412763  1
  O  O488  1  0.07420550  0.98181155  0.07464440  1
  O  O489  1  0.07427538  0.97863997  0.32427965  1
  O  O490  1  0.07315394  0.98256088  0.57351355  1
  O  O491  1  0.07547293  0.98086767  0.82505022  1
  O  O492  1  0.57154905  0.31359898  0.07424109  1
  O  O493  1  0.57278887  0.31167666  0.32471957  1
  O  O494  1  0.57274192  0.31253335  0.57594956  1
  O  O495  1  0.57255010  0.31180907  0.82533883  1
  O  O496  1  0.57238599  0.64817692  0.07467426  1
  O  O497  1  0.57247526  0.64614075  0.32473908  1
  O  O498  1  0.57297501  0.64799631  0.57420758  1
  O  O499  1  0.57257536  0.64834837  0.82445873  1
  O  O500  1  0.57314754  0.98080546  0.07370261  1
  O  O501  1  0.57340795  0.98073910  0.32449124  1
  O  O502  1  0.57236450  0.98021482  0.57371491  1
  O  O503  1  0.57317026  0.98128095  0.82437817  1
  O  O504  1  0.42744888  0.01970172  0.17642099  1
  O  O505  1  0.42615393  0.01814948  0.42619317  1
  O  O506  1  0.42859397  0.01858620  0.67781941  1
  O  O507  1  0.42735869  0.01960778  0.92647547  1
  O  O508  1  0.42560749  0.35461389  0.17539879  1
  O  O509  1  0.42596925  0.35275094  0.42411578  1
  O  O510  1  0.42514388  0.35323793  0.67512706  1
  O  O511  1  0.42617490  0.35161736  0.92641776  1
  O  O512  1  0.42575419  0.68769481  0.17481358  1
  O  O513  1  0.42729846  0.68638122  0.42687978  1
  O  O514  1  0.42700950  0.68608529  0.67588083  1
  O  O515  1  0.42740000  0.68718319  0.92666519  1
  O  O516  1  0.92735144  0.02128562  0.17420725  1
  O  O517  1  0.92790532  0.01806139  0.42564846  1
  O  O518  1  0.92784021  0.02196563  0.67578596  1
  O  O519  1  0.92928755  0.01989195  0.92607634  1
  O  O520  1  0.92517217  0.35231438  0.17449024  1
  O  O521  1  0.92700036  0.35093864  0.42631807  1
  O  O522  1  0.92763196  0.35343901  0.67636768  1
  O  O523  1  0.92656214  0.35142508  0.92498485  1
  O  O524  1  0.92857391  0.68671956  0.17625733  1
  O  O525  1  0.92735495  0.68529928  0.42525139  1
  O  O526  1  0.92582726  0.68767270  0.67442053  1
  O  O527  1  0.92666467  0.68671585  0.92463879  1
  O  O528  1  0.17729531  0.02050904  0.19931545  1
  O  O529  1  0.17667832  0.01951889  0.45071889  1
  O  O530  1  0.17835982  0.02010674  0.69851981  1
  O  O531  1  0.17830588  0.02132357  0.94994674  1
  O  O532  1  0.17637038  0.35213906  0.19930118  1
  O  O533  1  0.17754527  0.35288086  0.44925986  1
  O  O534  1  0.17703273  0.35446546  0.69959665  1
  O  O535  1  0.17598210  0.35322897  0.94994549  1
  O  O536  1  0.17749463  0.68472895  0.20030867  1
  O  O537  1  0.17812900  0.68624206  0.44910869  1
  O  O538  1  0.17716183  0.68659602  0.69755184  1
  O  O539  1  0.17682733  0.68536201  0.94851562  1
  O  O540  1  0.67696021  0.02065539  0.19982878  1
  O  O541  1  0.67732386  0.02142010  0.44966049  1
  O  O542  1  0.67790840  0.01972571  0.69751412  1
  O  O543  1  0.67722087  0.01837302  0.94904149  1
  O  O544  1  0.67504163  0.35239877  0.20041323  1
  O  O545  1  0.67530226  0.35258592  0.45070266  1
  O  O546  1  0.67658512  0.35188642  0.69942411  1
  O  O547  1  0.67544401  0.35271296  0.95043076  1
  O  O548  1  0.67645784  0.68547973  0.19874290  1
  O  O549  1  0.67586609  0.68743427  0.45022153  1
  O  O550  1  0.67587918  0.68752983  0.70015555  1
  O  O551  1  0.67717033  0.68553132  0.94838949  1
  O  O552  1  0.32125349  0.31415497  0.05195296  1
  O  O553  1  0.32288775  0.31441957  0.30072259  1
  O  O554  1  0.32351001  0.31262949  0.55084554  1
  O  O555  1  0.32318153  0.31253996  0.80027965  1
  O  O556  1  0.32297340  0.64798411  0.05193945  1
  O  O557  1  0.32282785  0.64629890  0.30244674  1
  O  O558  1  0.32191923  0.64679032  0.55085866  1
  O  O559  1  0.32274762  0.64832893  0.80048934  1
  O  O560  1  0.32420522  0.98013421  0.04980975  1
  O  O561  1  0.32286868  0.97894319  0.30073898  1
  O  O562  1  0.32287932  0.97942617  0.55112110  1
  O  O563  1  0.32454692  0.97989222  0.79911282  1
  O  O564  1  0.82239816  0.31180530  0.05037831  1
  O  O565  1  0.82264496  0.31176511  0.30018508  1
  O  O566  1  0.82165343  0.31382390  0.55165623  1
  O  O567  1  0.82339639  0.31323125  0.79969489  1
  O  O568  1  0.82333732  0.64769681  0.05114139  1
  O  O569  1  0.82380844  0.64640789  0.30002852  1
  O  O570  1  0.82379446  0.64698614  0.54983551  1
  O  O571  1  0.82333750  0.64801875  0.80063340  1
  O  O572  1  0.82453198  0.97985904  0.04958611  1
  O  O573  1  0.82453606  0.98024304  0.29899555  1
  O  O574  1  0.82346917  0.98227879  0.55012628  1
  O  O575  1  0.82385824  0.98239856  0.80064858  1
  O  O576  1  0.42811638  0.14695271  0.17643551  1
  O  O577  1  0.42641212  0.14496108  0.42552498  1
  O  O578  1  0.42785076  0.14592112  0.67711666  1
  O  O579  1  0.42830549  0.14664833  0.92769453  1
  O  O580  1  0.42640558  0.48182175  0.17583763  1
  O  O581  1  0.42523366  0.47972412  0.42500781  1
  O  O582  1  0.42548938  0.48030858  0.67531655  1
  O  O583  1  0.42544851  0.47892956  0.92526465  1
  O  O584  1  0.42620981  0.81437501  0.17440608  1
  O  O585  1  0.42820002  0.81391027  0.42778630  1
  O  O586  1  0.42715190  0.81302879  0.67509209  1
  O  O587  1  0.42876146  0.81462894  0.92625558  1
  O  O588  1  0.92775813  0.14816780  0.17534579  1
  O  O589  1  0.92664118  0.14523763  0.42551451  1
  O  O590  1  0.92780998  0.14904706  0.67569829  1
  O  O591  1  0.92792104  0.14723721  0.92632179  1
  O  O592  1  0.92526735  0.47921999  0.17411903  1
  O  O593  1  0.92602362  0.47818395  0.42526611  1
  O  O594  1  0.92817124  0.48076560  0.67603330  1
  O  O595  1  0.92667420  0.47841479  0.92447418  1
  O  O596  1  0.92848746  0.81437062  0.17621022  1
  O  O597  1  0.92715689  0.81223538  0.42435246  1
  O  O598  1  0.92713556  0.81466800  0.67376697  1
  O  O599  1  0.92657591  0.81375454  0.92471018  1
  O  O600  1  0.07263232  0.18659500  0.07253003  1
  O  O601  1  0.07310220  0.18460758  0.32409153  1
  O  O602  1  0.07368320  0.18870408  0.57511207  1
  O  O603  1  0.07265764  0.18653375  0.82330553  1
  O  O604  1  0.07368263  0.51969060  0.07603673  1
  O  O605  1  0.07234207  0.51972266  0.32513681  1
  O  O606  1  0.07333487  0.52081289  0.57366481  1
  O  O607  1  0.07327802  0.51798305  0.82355768  1
  O  O608  1  0.07435653  0.85456100  0.07457470  1
  O  O609  1  0.07348812  0.85154370  0.32418421  1
  O  O610  1  0.07416615  0.85520062  0.57435807  1
  O  O611  1  0.07490558  0.85393793  0.82492421  1
  O  O612  1  0.57109139  0.18617053  0.07337879  1
  O  O613  1  0.57221000  0.18445752  0.32381919  1
  O  O614  1  0.57346309  0.18560714  0.57543548  1
  O  O615  1  0.57304874  0.18481856  0.82528635  1
  O  O616  1  0.57270856  0.52110491  0.07431903  1
  O  O617  1  0.57220848  0.51893523  0.32430796  1
  O  O618  1  0.57238924  0.52088433  0.57562241  1
  O  O619  1  0.57219179  0.52110146  0.82547486  1
  O  O620  1  0.57163101  0.85346685  0.07331452  1
  O  O621  1  0.57250158  0.85386354  0.32471039  1
  O  O622  1  0.57127900  0.85284517  0.57355923  1
  O  O623  1  0.57355348  0.85441787  0.82550007  1
  O  O624  1  0.32235362  0.18688096  0.05249412  1
  O  O625  1  0.32254499  0.18744988  0.30017571  1
  O  O626  1  0.32331086  0.18549092  0.55057284  1
  O  O627  1  0.32335553  0.18542084  0.80149837  1
  O  O628  1  0.32315451  0.52092193  0.05057985  1
  O  O629  1  0.32101739  0.51899067  0.30237158  1
  O  O630  1  0.32194229  0.51951854  0.55114371  1
  O  O631  1  0.32302201  0.52140628  0.80041625  1
  O  O632  1  0.32427607  0.85307167  0.04941712  1
  O  O633  1  0.32377402  0.85164631  0.30130966  1
  O  O634  1  0.32167828  0.85200691  0.55204861  1
  O  O635  1  0.32424668  0.85316611  0.79884524  1
  O  O636  1  0.82285409  0.18451134  0.05069371  1
  O  O637  1  0.82296867  0.18481074  0.30154450  1
  O  O638  1  0.82300390  0.18645683  0.55189351  1
  O  O639  1  0.82394330  0.18650223  0.79896071  1
  O  O640  1  0.82281308  0.52052436  0.04981280  1
  O  O641  1  0.82340195  0.51941869  0.29943006  1
  O  O642  1  0.82413307  0.51991506  0.55036503  1
  O  O643  1  0.82287344  0.52063787  0.80091713  1
  O  O644  1  0.82439926  0.85298805  0.04860632  1
  O  O645  1  0.82377441  0.85317416  0.29975185  1
  O  O646  1  0.82329095  0.85506387  0.55019165  1
  O  O647  1  0.82402937  0.85530795  0.79903306  1
  O  O648  1  0.17698427  0.14782456  0.19923450  1
  O  O649  1  0.17614820  0.14621278  0.45117530  1
  O  O650  1  0.17858479  0.14748570  0.69805063  1
  O  O651  1  0.17764262  0.14837246  0.94862094  1
  O  O652  1  0.17630544  0.47911137  0.20048678  1
  O  O653  1  0.17793922  0.48029522  0.44805699  1
  O  O654  1  0.17706248  0.48171980  0.69870237  1
  O  O655  1  0.17595403  0.48011932  0.95100289  1
  O  O656  1  0.17750588  0.81168528  0.19999160  1
  O  O657  1  0.17791717  0.81348641  0.44881979  1
  O  O658  1  0.17860397  0.81385032  0.69766782  1
  O  O659  1  0.17735919  0.81249350  0.94959949  1
  O  O660  1  0.67639117  0.14767734  0.19809174  1
  O  O661  1  0.67674753  0.14832765  0.44980844  1
  O  O662  1  0.67807832  0.14699746  0.69903682  1
  O  O663  1  0.67692166  0.14540156  0.94873118  1
  O  O664  1  0.67514353  0.47944407  0.20016604  1
  O  O665  1  0.67560670  0.47946783  0.45119976  1
  O  O666  1  0.67640347  0.47923061  0.70000614  1
  O  O667  1  0.67505328  0.47983019  0.95021569  1
  O  O668  1  0.67678723  0.81274582  0.19855419  1
  O  O669  1  0.67606439  0.81455358  0.44984447  1
  O  O670  1  0.67591168  0.81452899  0.70097012  1
  O  O671  1  0.67708318  0.81268134  0.94995171  1
