# generated using pymatgen
data_Na2MnFe(PO4)2
_symmetry_space_group_name_H-M   'P 1'
_cell_length_a   22.34476294
_cell_length_b   20.09788424
_cell_length_c   19.44549769
_cell_angle_alpha   89.98986669
_cell_angle_beta   90.00127788
_cell_angle_gamma   90.01255016
_symmetry_Int_Tables_number   1
_chemical_formula_structural   Na2MnFe(PO4)2
_chemical_formula_sum   'Na96 Mn48 Fe48 P96 O384'
_cell_volume   8732.63157074
_cell_formula_units_Z   48
loop_
 _symmetry_equiv_pos_site_id
 _symmetry_equiv_pos_as_xyz
  1  'x, y, z'
loop_
 _atom_site_type_symbol
 _atom_site_label
 _atom_site_symmetry_multiplicity
 _atom_site_fract_x
 _atom_site_fract_y
 _atom_site_fract_z
 _atom_site_occupancy
  Na  Na0  1  0.14015677  0.25154494  0.24430419  1
  Na  Na1  1  0.14032272  0.25135063  0.49201251  1
  Na  Na2  1  0.14092315  0.25044715  0.74131795  1
  Na  Na3  1  0.14072913  0.25073646  0.99469649  1
  Na  Na4  1  0.13980280  0.58370903  0.24428615  1
  Na  Na5  1  0.14040803  0.58303984  0.49317743  1
  Na  Na6  1  0.14078000  0.58270212  0.74222018  1
  Na  Na7  1  0.14002703  0.58402380  0.99378734  1
  Na  Na8  1  0.14132248  0.91800406  0.24491353  1
  Na  Na9  1  0.14105692  0.91744787  0.49444607  1
  Na  Na10  1  0.14101382  0.91585395  0.74235662  1
  Na  Na11  1  0.14087765  0.91660629  0.99391557  1
  Na  Na12  1  0.64026756  0.24973433  0.24307812  1
  Na  Na13  1  0.64004411  0.24947190  0.49425869  1
  Na  Na14  1  0.63959924  0.25014115  0.74417187  1
  Na  Na15  1  0.64006204  0.24899089  0.99169646  1
  Na  Na16  1  0.63931576  0.58446764  0.24321739  1
  Na  Na17  1  0.63943195  0.58326226  0.49485917  1
  Na  Na18  1  0.63980987  0.58196355  0.74236669  1
  Na  Na19  1  0.63962746  0.58190864  0.99309978  1
  Na  Na20  1  0.64073161  0.91730194  0.24436874  1
  Na  Na21  1  0.64030594  0.91629869  0.49522896  1
  Na  Na22  1  0.64052812  0.91586838  0.74477861  1
  Na  Na23  1  0.64066504  0.91689003  0.99445347  1
  Na  Na24  1  0.35989014  0.08379541  0.00583859  1
  Na  Na25  1  0.35987168  0.08529101  0.25673789  1
  Na  Na26  1  0.35937834  0.08444370  0.50812829  1
  Na  Na27  1  0.35944257  0.08305273  0.75590255  1
  Na  Na28  1  0.35999893  0.41667502  0.00596093  1
  Na  Na29  1  0.35918812  0.41760510  0.25679864  1
  Na  Na30  1  0.35892705  0.41704717  0.50718425  1
  Na  Na31  1  0.36012291  0.41629272  0.75595637  1
  Na  Na32  1  0.35968702  0.74881275  0.00573817  1
  Na  Na33  1  0.35969345  0.74847232  0.25739074  1
  Na  Na34  1  0.35946118  0.74844133  0.50862256  1
  Na  Na35  1  0.35995496  0.74850078  0.75679309  1
  Na  Na36  1  0.85935734  0.08267422  0.00566561  1
  Na  Na37  1  0.85997692  0.08357343  0.25633312  1
  Na  Na38  1  0.86025171  0.08367993  0.50609570  1
  Na  Na39  1  0.85973273  0.08416720  0.75612611  1
  Na  Na40  1  0.85957984  0.41599977  0.00530445  1
  Na  Na41  1  0.85967052  0.41729671  0.25567164  1
  Na  Na42  1  0.85956254  0.41704059  0.50629353  1
  Na  Na43  1  0.85963412  0.41622896  0.75489664  1
  Na  Na44  1  0.85977267  0.74961054  0.00685882  1
  Na  Na45  1  0.85940575  0.75086528  0.25565240  1
  Na  Na46  1  0.85977257  0.74929890  0.50636621  1
  Na  Na47  1  0.85989166  0.75023806  0.75628587  1
  Na  Na48  1  0.11035949  0.08469340  0.11969924  1
  Na  Na49  1  0.11018962  0.08536758  0.36949919  1
  Na  Na50  1  0.11000581  0.08483247  0.61666248  1
  Na  Na51  1  0.10992294  0.08258606  0.86799177  1
  Na  Na52  1  0.10980850  0.41822986  0.11971324  1
  Na  Na53  1  0.10946324  0.41681101  0.36726942  1
  Na  Na54  1  0.11021779  0.41762309  0.61664127  1
  Na  Na55  1  0.11034104  0.41738534  0.86796830  1
  Na  Na56  1  0.10971711  0.74942622  0.11965092  1
  Na  Na57  1  0.11009867  0.74880965  0.36943654  1
  Na  Na58  1  0.11016956  0.75109846  0.61825838  1
  Na  Na59  1  0.10990091  0.74920170  0.86787195  1
  Na  Na60  1  0.60971414  0.08321173  0.11801153  1
  Na  Na61  1  0.60942207  0.08332239  0.36927493  1
  Na  Na62  1  0.60949453  0.08368870  0.62002088  1
  Na  Na63  1  0.60971889  0.08349121  0.86812665  1
  Na  Na64  1  0.60891593  0.41653296  0.11686351  1
  Na  Na65  1  0.60916778  0.41807020  0.36956081  1
  Na  Na66  1  0.60954845  0.41637550  0.61844074  1
  Na  Na67  1  0.60921591  0.41564036  0.86773309  1
  Na  Na68  1  0.60908340  0.74854002  0.11867933  1
  Na  Na69  1  0.60920452  0.74951453  0.36990906  1
  Na  Na70  1  0.60932490  0.74833094  0.61972108  1
  Na  Na71  1  0.60915395  0.74800834  0.86873565  1
  Na  Na72  1  0.39025141  0.25002572  0.13082468  1
  Na  Na73  1  0.38961086  0.25119061  0.38261800  1
  Na  Na74  1  0.39006919  0.25037456  0.63178444  1
  Na  Na75  1  0.39032275  0.25058385  0.88061092  1
  Na  Na76  1  0.38992360  0.58236538  0.13061762  1
  Na  Na77  1  0.38956463  0.58353262  0.38251532  1
  Na  Na78  1  0.38979861  0.58274274  0.63250240  1
  Na  Na79  1  0.39042724  0.58149370  0.88049053  1
  Na  Na80  1  0.39072192  0.91564745  0.13140930  1
  Na  Na81  1  0.39076126  0.91647457  0.38295187  1
  Na  Na82  1  0.39017452  0.91617562  0.63363462  1
  Na  Na83  1  0.39014434  0.91518034  0.88118175  1
  Na  Na84  1  0.89046272  0.25057400  0.13069669  1
  Na  Na85  1  0.89081096  0.24960337  0.38100420  1
  Na  Na86  1  0.89063413  0.25140456  0.63057329  1
  Na  Na87  1  0.89022436  0.25015728  0.88036096  1
  Na  Na88  1  0.89065429  0.58266389  0.13144932  1
  Na  Na89  1  0.89003614  0.58258594  0.38071623  1
  Na  Na90  1  0.89015941  0.58485906  0.63152519  1
  Na  Na91  1  0.89039967  0.58292329  0.87985779  1
  Na  Na92  1  0.89027580  0.91682672  0.13240483  1
  Na  Na93  1  0.89068408  0.91730410  0.38124677  1
  Na  Na94  1  0.89095819  0.91775474  0.63060785  1
  Na  Na95  1  0.89066408  0.91588513  0.88181184  1
  Mn  Mn96  1  0.74999044  0.00005312  0.62558619  1
  Mn  Mn97  1  -0.00028994  0.50068441  0.49882693  1
  Mn  Mn98  1  0.75033477  0.16593948  0.37436321  1
  Mn  Mn99  1  0.24970620  0.16660714  0.87380101  1
  Mn  Mn100  1  0.75033070  0.49863623  0.87342371  1
  Mn  Mn101  1  0.74944136  0.83374981  0.87558111  1
  Mn  Mn102  1  0.00071651  0.83207127  0.00108429  1
  Mn  Mn103  1  0.50016615  -0.00032224  -0.00010740  1
  Mn  Mn104  1  0.75108994  0.83265209  0.62516261  1
  Mn  Mn105  1  0.25005434  0.33420382  0.12523671  1
  Mn  Mn106  1  0.49996832  0.33354360  0.50057011  1
  Mn  Mn107  1  0.74995872  0.66650106  0.12484147  1
  Mn  Mn108  1  0.74999880  0.33367419  0.12390982  1
  Mn  Mn109  1  0.49996774  0.16728175  0.24971952  1
  Mn  Mn110  1  0.00107550  0.00098856  0.25083436  1
  Mn  Mn111  1  0.75007735  0.66584848  0.87556334  1
  Mn  Mn112  1  0.25118598  0.00131377  0.12485382  1
  Mn  Mn113  1  0.74917592  0.50049804  0.37551406  1
  Mn  Mn114  1  -0.00031928  0.50062552  -0.00013669  1
  Mn  Mn115  1  0.75036353  0.16571137  0.12361062  1
  Mn  Mn116  1  0.50035222  0.00064731  0.50171816  1
  Mn  Mn117  1  0.50008445  0.83215429  0.50140456  1
  Mn  Mn118  1  0.00067805  0.16711011  0.00008754  1
  Mn  Mn119  1  0.00048736  -0.00017422  0.00008193  1
  Mn  Mn120  1  0.49930224  0.00018969  0.25067473  1
  Mn  Mn121  1  -0.00003907  0.83354827  0.49944954  1
  Mn  Mn122  1  0.25039177  0.33414715  0.87438831  1
  Mn  Mn123  1  0.25102736  0.00161309  0.37527423  1
  Mn  Mn124  1  0.49988718  0.83116686  0.00101527  1
  Mn  Mn125  1  0.74934514  0.16724555  0.62569823  1
  Mn  Mn126  1  0.00082573  0.83255621  0.25104674  1
  Mn  Mn127  1  0.24976987  -0.00083444  0.87495819  1
  Mn  Mn128  1  0.74925027  0.33373615  0.37445049  1
  Mn  Mn129  1  0.25012915  0.66619633  0.87480816  1
  Mn  Mn130  1  0.25033967  0.83341661  0.12580430  1
  Mn  Mn131  1  0.50011100  0.83166754  0.25117995  1
  Mn  Mn132  1  0.49942760  0.50086757  0.24906887  1
  Mn  Mn133  1  0.49974159  -0.00020203  0.75087992  1
  Mn  Mn134  1  0.00029918  0.66730057  0.74960182  1
  Mn  Mn135  1  0.00066612  0.33398179  -0.00010656  1
  Mn  Mn136  1  -0.00013254  -0.00024803  0.74933864  1
  Mn  Mn137  1  0.00129200  0.33468881  0.74941470  1
  Mn  Mn138  1  0.74992549  0.66695293  0.37461164  1
  Mn  Mn139  1  0.25093290  0.83288904  0.37585098  1
  Mn  Mn140  1  0.00048839  0.16736062  0.74895232  1
  Mn  Mn141  1  0.49992633  0.33372683  0.25000609  1
  Mn  Mn142  1  0.24954543  0.66600750  0.12532116  1
  Mn  Mn143  1  0.74983558  0.83416928  0.37575182  1
  Fe  Fe144  1  0.49943966  0.66512915  -0.00108774  1
  Fe  Fe145  1  0.00016399  0.83358712  0.74951502  1
  Fe  Fe146  1  0.49961670  0.16696070  0.75040959  1
  Fe  Fe147  1  0.24989736  0.50027098  0.12551734  1
  Fe  Fe148  1  0.24950866  0.33374471  0.62410882  1
  Fe  Fe149  1  0.49954268  0.50003231  0.50063791  1
  Fe  Fe150  1  0.25028380  -0.00038225  0.62533348  1
  Fe  Fe151  1  0.24997561  0.16703241  0.62430634  1
  Fe  Fe152  1  0.74989686  0.49942040  0.62490535  1
  Fe  Fe153  1  0.24982570  0.49938964  0.62420244  1
  Fe  Fe154  1  0.00017081  0.66629564  -0.00047656  1
  Fe  Fe155  1  0.50013280  0.49928712  0.75018107  1
  Fe  Fe156  1  0.49952476  0.16699874  -0.00082131  1
  Fe  Fe157  1  0.24965627  0.66590012  0.37627879  1
  Fe  Fe158  1  0.74922714  0.33310592  0.87451171  1
  Fe  Fe159  1  -0.00029182  0.66696845  0.49981407  1
  Fe  Fe160  1  0.49981860  0.49964015  -0.00104692  1
  Fe  Fe161  1  0.00077878  0.00073933  0.50004515  1
  Fe  Fe162  1  0.49989919  0.16720189  0.50069431  1
  Fe  Fe163  1  0.74971836  0.83400727  0.12542665  1
  Fe  Fe164  1  0.24956906  0.49984648  0.87417544  1
  Fe  Fe165  1  -0.00009221  0.50023191  0.24987070  1
  Fe  Fe166  1  0.50003561  0.33320695  0.74999709  1
  Fe  Fe167  1  0.50018467  0.66511276  0.75018723  1
  Fe  Fe168  1  0.49924525  0.66588592  0.25060802  1
  Fe  Fe169  1  -0.00059777  0.66627913  0.24996654  1
  Fe  Fe170  1  0.49919511  0.66580928  0.50106327  1
  Fe  Fe171  1  0.74928657  0.66618171  0.62543913  1
  Fe  Fe172  1  -0.00026545  0.33345026  0.25004241  1
  Fe  Fe173  1  0.24983184  0.66567012  0.62552188  1
  Fe  Fe174  1  0.25035182  0.16819335  0.37596376  1
  Fe  Fe175  1  0.74992994  0.16651582  0.87471777  1
  Fe  Fe176  1  0.49976309  0.33316402  -0.00101529  1
  Fe  Fe177  1  0.25023231  0.83271890  0.87443334  1
  Fe  Fe178  1  0.74990613  0.00000946  0.12489443  1
  Fe  Fe179  1  0.25007006  0.16787198  0.12540714  1
  Fe  Fe180  1  0.00010815  0.50074539  0.74899506  1
  Fe  Fe181  1  0.75033141  0.00011797  0.37485171  1
  Fe  Fe182  1  -0.00036415  0.33399565  0.49861508  1
  Fe  Fe183  1  0.50009387  0.83200213  0.75097224  1
  Fe  Fe184  1  0.25055562  0.83224836  0.62478897  1
  Fe  Fe185  1  0.24979342  0.50025764  0.37578713  1
  Fe  Fe186  1  0.75011867  0.33286164  0.62494220  1
  Fe  Fe187  1  0.74949829  0.49966187  0.12425142  1
  Fe  Fe188  1  0.75069840  -0.00041460  0.87555362  1
  Fe  Fe189  1  0.25004171  0.33406336  0.37513084  1
  Fe  Fe190  1  0.00002561  0.16729690  0.25035648  1
  Fe  Fe191  1  0.00008632  0.16771487  0.49928121  1
  P  P192  1  0.04286777  0.25089072  0.10431755  1
  P  P193  1  0.04119335  0.25057972  0.35215562  1
  P  P194  1  0.04165005  0.25150548  0.60031454  1
  P  P195  1  0.04387235  0.25036194  0.85242028  1
  P  P196  1  0.04198412  0.58474210  0.10305303  1
  P  P197  1  0.04097381  0.58358691  0.35171777  1
  P  P198  1  0.04192342  0.58493861  0.60201704  1
  P  P199  1  0.04269245  0.58247348  0.85177236  1
  P  P200  1  0.04349189  0.91662000  0.10375060  1
  P  P201  1  0.04342466  0.91714093  0.35413069  1
  P  P202  1  0.04250055  0.91785841  0.60232761  1
  P  P203  1  0.04269150  0.91501856  0.85215246  1
  P  P204  1  0.54164089  0.25006305  0.10059381  1
  P  P205  1  0.54263777  0.25036400  0.35369025  1
  P  P206  1  0.54189706  0.24896879  0.60370678  1
  P  P207  1  0.54062204  0.25015175  0.85231277  1
  P  P208  1  0.54089732  0.58299323  0.10101390  1
  P  P209  1  0.54154295  0.58436440  0.35338631  1
  P  P210  1  0.54059012  0.58270224  0.60287647  1
  P  P211  1  0.54156439  0.58216862  0.85186619  1
  P  P212  1  0.54263292  0.91572098  0.10354879  1
  P  P213  1  0.54265659  0.91645592  0.35399739  1
  P  P214  1  0.54235716  0.91577015  0.60491975  1
  P  P215  1  0.54201585  0.91458654  0.85299016  1
  P  P216  1  0.45725418  0.08383179  0.14624018  1
  P  P217  1  0.45737585  0.08484514  0.39868225  1
  P  P218  1  0.45787468  0.08493386  0.64801137  1
  P  P219  1  0.45790513  0.08462291  0.89698528  1
  P  P220  1  0.45709830  0.41633844  0.14568055  1
  P  P221  1  0.45738171  0.41837886  0.39822086  1
  P  P222  1  0.45882132  0.41681993  0.64830652  1
  P  P223  1  0.45868963  0.41641199  0.89718203  1
  P  P224  1  0.45730057  0.74727520  0.14779983  1
  P  P225  1  0.45722803  0.74797928  0.39861139  1
  P  P226  1  0.45877683  0.74851791  0.64911252  1
  P  P227  1  0.45787537  0.74751933  0.89665781  1
  P  P228  1  0.95812954  0.08481573  0.14801148  1
  P  P229  1  0.95920128  0.08396846  0.39819405  1
  P  P230  1  0.95773191  0.08404591  0.64540878  1
  P  P231  1  0.95747428  0.08333349  0.89665518  1
  P  P232  1  0.95865181  0.41679014  0.14851512  1
  P  P233  1  0.95767843  0.41568185  0.39604773  1
  P  P234  1  0.95837237  0.41848615  0.64628335  1
  P  P235  1  0.95749715  0.41729337  0.89603473  1
  P  P236  1  0.95790886  0.74843163  0.14761617  1
  P  P237  1  0.95760452  0.74821944  0.39702764  1
  P  P238  1  0.95775532  0.75172601  0.64700763  1
  P  P239  1  0.95790887  0.74866530  0.89734350  1
  P  P240  1  0.20862322  0.08601698  0.22821350  1
  P  P241  1  0.20861467  0.08565763  0.47847703  1
  P  P242  1  0.20847292  0.08330833  0.72573838  1
  P  P243  1  0.20737943  0.08393749  0.97808477  1
  P  P244  1  0.20811060  0.41857796  0.22863339  1
  P  P245  1  0.20835784  0.41685711  0.47691997  1
  P  P246  1  0.20868391  0.41673533  0.72593638  1
  P  P247  1  0.20791211  0.41849657  0.97753584  1
  P  P248  1  0.20746852  0.74943340  0.22933015  1
  P  P249  1  0.20841050  0.74849947  0.47887874  1
  P  P250  1  0.20907442  0.74939679  0.72665846  1
  P  P251  1  0.20773392  0.75086640  0.97713830  1
  P  P252  1  0.70786637  0.08201376  0.22723913  1
  P  P253  1  0.70766398  0.08208040  0.47745746  1
  P  P254  1  0.70724522  0.08349902  0.72960604  1
  P  P255  1  0.70844282  0.08260909  0.97640752  1
  P  P256  1  0.70677004  0.41794322  0.22669067  1
  P  P257  1  0.70697678  0.41653243  0.47928351  1
  P  P258  1  0.70827361  0.41560977  0.72631916  1
  P  P259  1  0.70740504  0.41557895  0.97685993  1
  P  P260  1  0.70746874  0.75165793  0.22736171  1
  P  P261  1  0.70726704  0.74937670  0.47897337  1
  P  P262  1  0.70778071  0.74876266  0.72782056  1
  P  P263  1  0.70718556  0.75012123  0.97895362  1
  P  P264  1  0.29231003  0.24965095  0.02253730  1
  P  P265  1  0.29137762  0.25079255  0.27361100  1
  P  P266  1  0.29116319  0.25090751  0.52289716  1
  P  P267  1  0.29222044  0.25038289  0.77020116  1
  P  P268  1  0.29182237  0.58165713  0.02211662  1
  P  P269  1  0.29096343  0.58288065  0.27394931  1
  P  P270  1  0.29080320  0.58302445  0.52324914  1
  P  P271  1  0.29191822  0.58160240  0.77146164  1
  P  P272  1  0.29323657  0.91621780  0.02158928  1
  P  P273  1  0.29376038  0.91726986  0.27275428  1
  P  P274  1  0.29184669  0.91664346  0.52415157  1
  P  P275  1  0.29212233  0.91478527  0.77163741  1
  P  P276  1  0.79250521  0.24968859  0.02015423  1
  P  P277  1  0.79285152  0.25033666  0.27129371  1
  P  P278  1  0.79211481  0.25083011  0.52245669  1
  P  P279  1  0.79118449  0.25053096  0.77300066  1
  P  P280  1  0.79233889  0.58150018  0.02222962  1
  P  P281  1  0.79216086  0.58309891  0.27113229  1
  P  P282  1  0.79116981  0.58322671  0.52380526  1
  P  P283  1  0.79227510  0.58298750  0.77043324  1
  P  P284  1  0.79174378  0.91706944  0.02352197  1
  P  P285  1  0.79240625  0.91811506  0.27199732  1
  P  P286  1  0.79326254  0.91709994  0.52177152  1
  P  P287  1  0.79287952  0.91760372  0.77302245  1
  O  O288  1  0.03718892  0.25089004  0.18423398  1
  O  O289  1  0.03569827  0.25089288  0.43206194  1
  O  O290  1  0.03751698  0.25136830  0.68035967  1
  O  O291  1  0.03886625  0.25036321  0.93243001  1
  O  O292  1  0.03647495  0.58451748  0.18292316  1
  O  O293  1  0.03622503  0.58373641  0.43170541  1
  O  O294  1  0.03693798  0.58413531  0.68194228  1
  O  O295  1  0.03764188  0.58292405  0.93173335  1
  O  O296  1  0.03860291  0.91673189  0.18376829  1
  O  O297  1  0.03780453  0.91758165  0.43405192  1
  O  O298  1  0.03706154  0.91700929  0.68228135  1
  O  O299  1  0.03780992  0.91509553  0.93218170  1
  O  O300  1  0.53702329  0.25029663  0.18068216  1
  O  O301  1  0.53758370  0.24997915  0.43367048  1
  O  O302  1  0.53637836  0.24900702  0.68359736  1
  O  O303  1  0.53543958  0.25054067  0.93221618  1
  O  O304  1  0.53621810  0.58316554  0.18099075  1
  O  O305  1  0.53625197  0.58400477  0.43327228  1
  O  O306  1  0.53578963  0.58225749  0.68279641  1
  O  O307  1  0.53632763  0.58229221  0.93172494  1
  O  O308  1  0.53738440  0.91589339  0.18351806  1
  O  O309  1  0.53755405  0.91658727  0.43402668  1
  O  O310  1  0.53686606  0.91519505  0.68485945  1
  O  O311  1  0.53688590  0.91476243  0.93297026  1
  O  O312  1  0.46249284  0.08410373  0.06625323  1
  O  O313  1  0.46233487  0.08440229  0.31862422  1
  O  O314  1  0.46321691  0.08503967  0.56807077  1
  O  O315  1  0.46325526  0.08472920  0.81701691  1
  O  O316  1  0.46231869  0.41594503  0.06576938  1
  O  O317  1  0.46213549  0.41830986  0.31823009  1
  O  O318  1  0.46361744  0.41692278  0.56835234  1
  O  O319  1  0.46375390  0.41671610  0.81727069  1
  O  O320  1  0.46249827  0.74700273  0.06783037  1
  O  O321  1  0.46220896  0.74790535  0.31862507  1
  O  O322  1  0.46354317  0.74830256  0.56910419  1
  O  O323  1  0.46370089  0.74830283  0.81680882  1
  O  O324  1  0.96323670  0.08427720  0.06802727  1
  O  O325  1  0.96418164  0.08469288  0.31822861  1
  O  O326  1  0.96305445  0.08393118  0.56547956  1
  O  O327  1  0.96242227  0.08324614  0.81662622  1
  O  O328  1  0.96345908  0.41731595  0.06851932  1
  O  O329  1  0.96312339  0.41580176  0.31618116  1
  O  O330  1  0.96332643  0.41778791  0.56630475  1
  O  O331  1  0.96272084  0.41784642  0.81607358  1
  O  O332  1  0.96320541  0.74819073  0.06763773  1
  O  O333  1  0.96292391  0.74791271  0.31709435  1
  O  O334  1  0.96271775  0.75114272  0.56706759  1
  O  O335  1  0.96300159  0.74975821  0.81737704  1
  O  O336  1  0.21277662  0.08452735  0.05803703  1
  O  O337  1  0.21408293  0.08619816  0.30817827  1
  O  O338  1  0.21383589  0.08556978  0.55835200  1
  O  O339  1  0.21310466  0.08283399  0.80576423  1
  O  O340  1  0.21323888  0.41857736  0.05749181  1
  O  O341  1  0.21336875  0.41832811  0.30850211  1
  O  O342  1  0.21315599  0.41606049  0.55683383  1
  O  O343  1  0.21329419  0.41734325  0.80592405  1
  O  O344  1  0.21276015  0.75034503  0.05713198  1
  O  O345  1  0.21279708  0.74880355  0.30929750  1
  O  O346  1  0.21381629  0.74829579  0.55879070  1
  O  O347  1  0.21382175  0.75007277  0.80663963  1
  O  O348  1  0.71355260  0.08228957  0.05641434  1
  O  O349  1  0.71303392  0.08200817  0.30721695  1
  O  O350  1  0.71266008  0.08275133  0.55746445  1
  O  O351  1  0.71278844  0.08360278  0.80949520  1
  O  O352  1  0.71251769  0.41655993  0.05680222  1
  O  O353  1  0.71154808  0.41790190  0.30674753  1
  O  O354  1  0.71257041  0.41630154  0.55918375  1
  O  O355  1  0.71322657  0.41515762  0.80631565  1
  O  O356  1  0.71248817  0.75072018  0.05889806  1
  O  O357  1  0.71260026  0.75142853  0.30737336  1
  O  O358  1  0.71268336  0.74857845  0.55894493  1
  O  O359  1  0.71266136  0.74897609  0.80784015  1
  O  O360  1  0.28661227  0.25073639  0.19362710  1
  O  O361  1  0.28632820  0.25089894  0.44294411  1
  O  O362  1  0.28671239  0.25049441  0.69029876  1
  O  O363  1  0.28727862  0.25003136  0.94255934  1
  O  O364  1  0.28604861  0.58285701  0.19395727  1
  O  O365  1  0.28584231  0.58297850  0.44334722  1
  O  O366  1  0.28656338  0.58212563  0.69159293  1
  O  O367  1  0.28645804  0.58171772  0.94217115  1
  O  O368  1  0.28854416  0.91736569  0.19277540  1
  O  O369  1  0.28767199  0.91677917  0.44414255  1
  O  O370  1  0.28689984  0.91502667  0.69173964  1
  O  O371  1  0.28782727  0.91553338  0.94157448  1
  O  O372  1  0.78797628  0.25018012  0.19129313  1
  O  O373  1  0.78711138  0.25045346  0.44249342  1
  O  O374  1  0.78599085  0.25094208  0.69299089  1
  O  O375  1  0.78692939  0.24968649  0.94024355  1
  O  O376  1  0.78704520  0.58245717  0.19117561  1
  O  O377  1  0.78633522  0.58344163  0.44375141  1
  O  O378  1  0.78668442  0.58335625  0.69052337  1
  O  O379  1  0.78745975  0.58166294  0.94219286  1
  O  O380  1  0.78687786  0.91769228  0.19210004  1
  O  O381  1  0.78797129  0.91753569  0.44181912  1
  O  O382  1  0.78793243  0.91715725  0.69305388  1
  O  O383  1  0.78665721  0.91739292  0.94350607  1
  O  O384  1  0.22808245  0.24949854  0.05830518  1
  O  O385  1  0.22723227  0.25030039  0.30956197  1
  O  O386  1  0.22697074  0.25101013  0.55883984  1
  O  O387  1  0.22807991  0.25088335  0.80609375  1
  O  O388  1  0.22764663  0.58150384  0.05815368  1
  O  O389  1  0.22681163  0.58237496  0.30999061  1
  O  O390  1  0.22671210  0.58363419  0.55928332  1
  O  O391  1  0.22779280  0.58162159  0.80762860  1
  O  O392  1  0.22899408  0.91694222  0.05714912  1
  O  O393  1  0.22941246  0.91721787  0.30799720  1
  O  O394  1  0.22753153  0.91650690  0.55937088  1
  O  O395  1  0.22796705  0.91452740  0.80779014  1
  O  O396  1  0.72829870  0.24970081  0.05593261  1
  O  O397  1  0.72837141  0.24970527  0.30623972  1
  O  O398  1  0.72774346  0.25137539  0.55788857  1
  O  O399  1  0.72707904  0.25022970  0.80920778  1
  O  O400  1  0.72790129  0.58154679  0.05747300  1
  O  O401  1  0.72774892  0.58352470  0.30631176  1
  O  O402  1  0.72693797  0.58274189  0.55951348  1
  O  O403  1  0.72810636  0.58278201  0.80627262  1
  O  O404  1  0.72753270  0.91691136  0.05948236  1
  O  O405  1  0.72827270  0.91866842  0.30828701  1
  O  O406  1  0.72894710  0.91623192  0.55714253  1
  O  O407  1  0.72841546  0.91827143  0.80825083  1
  O  O408  1  0.27277344  0.08613988  0.19214421  1
  O  O409  1  0.27278887  0.08609614  0.44246354  1
  O  O410  1  0.27274278  0.08374392  0.69027897  1
  O  O411  1  0.27165242  0.08330938  0.94254913  1
  O  O412  1  0.27218203  0.41882313  0.19231467  1
  O  O413  1  0.27252245  0.41772576  0.44101178  1
  O  O414  1  0.27291112  0.41572289  0.69028743  1
  O  O415  1  0.27212823  0.41878028  0.94153161  1
  O  O416  1  0.27173019  0.74933734  0.19381036  1
  O  O417  1  0.27253345  0.74805117  0.44281902  1
  O  O418  1  0.27325456  0.74837936  0.69087058  1
  O  O419  1  0.27205964  0.75099803  0.94157815  1
  O  O420  1  0.77220986  0.08180987  0.19168140  1
  O  O421  1  0.77207401  0.08162145  0.44199071  1
  O  O422  1  0.77142433  0.08382038  0.69377020  1
  O  O423  1  0.77260480  0.08279233  0.94039028  1
  O  O424  1  0.77131478  0.41833905  0.19160100  1
  O  O425  1  0.77115180  0.41669885  0.44337536  1
  O  O426  1  0.77243147  0.41597502  0.69030538  1
  O  O427  1  0.77174219  0.41457267  0.94134949  1
  O  O428  1  0.77175785  0.75152233  0.19177293  1
  O  O429  1  0.77154913  0.75006110  0.44349044  1
  O  O430  1  0.77215735  0.74808981  0.69253594  1
  O  O431  1  0.77153042  0.75014345  0.94361201  1
  O  O432  1  0.02247408  0.08558686  0.18352001  1
  O  O433  1  0.02329182  0.08360748  0.43425110  1
  O  O434  1  0.02202430  0.08368689  0.68098627  1
  O  O435  1  0.02199323  0.08332761  0.93151754  1
  O  O436  1  0.02277333  0.41630863  0.18434932  1
  O  O437  1  0.02184923  0.41585014  0.43212184  1
  O  O438  1  0.02272462  0.41911058  0.68185100  1
  O  O439  1  0.02186888  0.41755450  0.93130746  1
  O  O440  1  0.02214691  0.74818946  0.18343711  1
  O  O441  1  0.02188788  0.74842070  0.43273296  1
  O  O442  1  0.02212118  0.75193916  0.68252454  1
  O  O443  1  0.02228262  0.74799572  0.93291126  1
  O  O444  1  0.52157735  0.08351389  0.18165140  1
  O  O445  1  0.52182204  0.08519056  0.43397704  1
  O  O446  1  0.52201239  0.08456499  0.68391069  1
  O  O447  1  0.52209593  0.08480809  0.93283775  1
  O  O448  1  0.52136574  0.41673486  0.18140907  1
  O  O449  1  0.52175132  0.41823433  0.43353902  1
  O  O450  1  0.52291926  0.41714602  0.68435443  1
  O  O451  1  0.52264901  0.41601123  0.93358250  1
  O  O452  1  0.52161995  0.74715566  0.18351892  1
  O  O453  1  0.52159432  0.74776367  0.43406014  1
  O  O454  1  0.52290372  0.74846368  0.68504451  1
  O  O455  1  0.52187854  0.74694619  0.93316176  1
  O  O456  1  0.47730502  0.24996570  0.06509708  1
  O  O457  1  0.47817015  0.25051726  0.31861139  1
  O  O458  1  0.47780547  0.24872224  0.56735263  1
  O  O459  1  0.47673601  0.25004960  0.81578589  1
  O  O460  1  0.47673445  0.58327878  0.06508830  1
  O  O461  1  0.47729440  0.58457186  0.31733219  1
  O  O462  1  0.47647565  0.58300030  0.56672866  1
  O  O463  1  0.47749265  0.58198064  0.81552120  1
  O  O464  1  0.47830625  0.91575144  0.06823945  1
  O  O465  1  0.47824274  0.91592193  0.31888725  1
  O  O466  1  0.47814923  0.91622695  0.56930295  1
  O  O467  1  0.47774262  0.91458772  0.81747236  1
  O  O468  1  0.97871612  0.25081296  0.06832162  1
  O  O469  1  0.97726329  0.25034987  0.31549134  1
  O  O470  1  0.97726919  0.25175707  0.56512980  1
  O  O471  1  0.97936395  0.25088200  0.81754507  1
  O  O472  1  0.97787442  0.58524017  0.06671298  1
  O  O473  1  0.97683108  0.58355118  0.31587107  1
  O  O474  1  0.97758684  0.58503408  0.56644297  1
  O  O475  1  0.97835978  0.58230955  0.81618739  1
  O  O476  1  0.97901128  0.91633265  0.06881575  1
  O  O477  1  0.97920042  0.91696094  0.31855464  1
  O  O478  1  0.97835638  0.91851672  0.56639045  1
  O  O479  1  0.97822301  0.91502643  0.81693553  1
  O  O480  1  0.07404769  0.31437388  0.07598786  1
  O  O481  1  0.07218159  0.31414554  0.32377819  1
  O  O482  1  0.07256743  0.31502447  0.57198723  1
  O  O483  1  0.07515153  0.31370693  0.82422869  1
  O  O484  1  0.07316383  0.64789688  0.07407992  1
  O  O485  1  0.07223962  0.64686580  0.32342842  1
  O  O486  1  0.07226159  0.64890857  0.57390792  1
  O  O487  1  0.07395746  0.64593743  0.82373022  1
  O  O488  1  0.07429877  0.98019360  0.07546918  1
  O  O489  1  0.07489225  0.98033145  0.32586892  1
  O  O490  1  0.07351943  0.98146470  0.57432252  1
  O  O491  1  0.07375375  0.97864511  0.82423707  1
  O  O492  1  0.57236934  0.31368866  0.07221389  1
  O  O493  1  0.57346171  0.31407681  0.32552395  1
  O  O494  1  0.57285132  0.31273146  0.57585463  1
  O  O495  1  0.57133135  0.31382332  0.82345495  1
  O  O496  1  0.57230107  0.64614998  0.07254206  1
  O  O497  1  0.57245159  0.64774097  0.32447265  1
  O  O498  1  0.57178416  0.64619546  0.57468083  1
  O  O499  1  0.57241259  0.64578113  0.82331509  1
  O  O500  1  0.57371836  0.97911753  0.07520791  1
  O  O501  1  0.57327616  0.98011522  0.32570414  1
  O  O502  1  0.57365091  0.97941427  0.57732999  1
  O  O503  1  0.57305894  0.97834006  0.82547535  1
  O  O504  1  0.42606476  0.02038550  0.17445175  1
  O  O505  1  0.42651211  0.02117967  0.42680402  1
  O  O506  1  0.42664813  0.02117776  0.67552718  1
  O  O507  1  0.42703936  0.02063080  0.92436632  1
  O  O508  1  0.42610387  0.35304548  0.17471321  1
  O  O509  1  0.42632316  0.35479203  0.42618991  1
  O  O510  1  0.42868608  0.35267855  0.67662893  1
  O  O511  1  0.42722940  0.35305034  0.92532529  1
  O  O512  1  0.42625936  0.68405558  0.17668554  1
  O  O513  1  0.42616837  0.68483983  0.42762633  1
  O  O514  1  0.42772188  0.68499403  0.67734602  1
  O  O515  1  0.42668494  0.68391457  0.92453363  1
  O  O516  1  0.92753111  0.02099052  0.17607816  1
  O  O517  1  0.92822871  0.02023453  0.42595138  1
  O  O518  1  0.92618269  0.02098642  0.67405105  1
  O  O519  1  0.92666539  0.01974702  0.92498130  1
  O  O520  1  0.92724364  0.35333703  0.17613181  1
  O  O521  1  0.92683029  0.35229552  0.42492507  1
  O  O522  1  0.92746640  0.35493411  0.67461682  1
  O  O523  1  0.92690404  0.35347104  0.92416909  1
  O  O524  1  0.92654191  0.68535212  0.17623018  1
  O  O525  1  0.92675927  0.68495156  0.42608394  1
  O  O526  1  0.92657540  0.68835128  0.67529458  1
  O  O527  1  0.92718367  0.68482476  0.92523501  1
  O  O528  1  0.17768636  0.02207843  0.20078272  1
  O  O529  1  0.17787582  0.02180279  0.45046551  1
  O  O530  1  0.17828041  0.01928325  0.69735296  1
  O  O531  1  0.17614085  0.02035452  0.95017878  1
  O  O532  1  0.17717881  0.35489767  0.20045739  1
  O  O533  1  0.17823096  0.35312578  0.44748513  1
  O  O534  1  0.17711001  0.35349933  0.69779451  1
  O  O535  1  0.17731314  0.35442598  0.94987605  1
  O  O536  1  0.17605206  0.68640522  0.20053471  1
  O  O537  1  0.17717184  0.68532575  0.44992966  1
  O  O538  1  0.17755784  0.68587878  0.69907101  1
  O  O539  1  0.17684033  0.68718400  0.94908949  1
  O  O540  1  0.67670985  0.01889205  0.19840969  1
  O  O541  1  0.67683329  0.01851959  0.44936653  1
  O  O542  1  0.67611189  0.02007494  0.70127730  1
  O  O543  1  0.67746788  0.01906942  0.94820367  1
  O  O544  1  0.67616698  0.35402174  0.19887295  1
  O  O545  1  0.67573662  0.35332266  0.45052680  1
  O  O546  1  0.67736675  0.35210146  0.69801568  1
  O  O547  1  0.67629312  0.35207929  0.94872428  1
  O  O548  1  0.67622759  0.68807827  0.19966613  1
  O  O549  1  0.67626855  0.68613608  0.45013742  1
  O  O550  1  0.67663140  0.68541539  0.69944405  1
  O  O551  1  0.67641589  0.68627122  0.95113916  1
  O  O552  1  0.32315336  0.31341040  0.05042142  1
  O  O553  1  0.32140229  0.31506979  0.30193251  1
  O  O554  1  0.32224466  0.31447167  0.55122096  1
  O  O555  1  0.32376962  0.31348407  0.79880136  1
  O  O556  1  0.32259138  0.64561265  0.04981845  1
  O  O557  1  0.32108742  0.64690885  0.30249039  1
  O  O558  1  0.32249275  0.64591923  0.55203710  1
  O  O559  1  0.32316778  0.64497188  0.79990301  1
  O  O560  1  0.32456837  0.97981558  0.04920688  1
  O  O561  1  0.32473608  0.98080600  0.30086386  1
  O  O562  1  0.32239924  0.98041551  0.55257710  1
  O  O563  1  0.32316364  0.97850514  0.79963047  1
  O  O564  1  0.82382330  0.31298663  0.04861905  1
  O  O565  1  0.82325442  0.31413296  0.29945419  1
  O  O566  1  0.82312506  0.31425324  0.55080123  1
  O  O567  1  0.82214817  0.31406993  0.80121199  1
  O  O568  1  0.82337697  0.64511930  0.05002671  1
  O  O569  1  0.82318276  0.64679494  0.29899760  1
  O  O570  1  0.82167763  0.64705443  0.55196653  1
  O  O571  1  0.82363206  0.64604490  0.79938210  1
  O  O572  1  0.82269567  0.98062402  0.05178686  1
  O  O573  1  0.82357908  0.98143172  0.30061016  1
  O  O574  1  0.82408191  0.98050869  0.55028295  1
  O  O575  1  0.82389902  0.98097319  0.80135073  1
  O  O576  1  0.42629012  0.14727053  0.17471105  1
  O  O577  1  0.42667144  0.14846034  0.42691586  1
  O  O578  1  0.42696470  0.14825505  0.67661865  1
  O  O579  1  0.42676951  0.14791734  0.92544949  1
  O  O580  1  0.42586890  0.47973703  0.17397267  1
  O  O581  1  0.42678613  0.48184081  0.42702237  1
  O  O582  1  0.42732532  0.47996749  0.67655547  1
  O  O583  1  0.42825252  0.48023799  0.92590487  1
  O  O584  1  0.42653967  0.81113991  0.17562649  1
  O  O585  1  0.42645564  0.81183001  0.42653879  1
  O  O586  1  0.42819999  0.81244064  0.67714256  1
  O  O587  1  0.42676810  0.81088639  0.92522590  1
  O  O588  1  0.92701808  0.14821358  0.17617466  1
  O  O589  1  0.92852708  0.14766663  0.42680113  1
  O  O590  1  0.92688902  0.14774126  0.67369250  1
  O  O591  1  0.92654621  0.14684126  0.92469745  1
  O  O592  1  0.92844675  0.48078370  0.17697354  1
  O  O593  1  0.92634880  0.47915855  0.42411480  1
  O  O594  1  0.92767373  0.48210849  0.67458898  1
  O  O595  1  0.92589335  0.48022822  0.92470799  1
  O  O596  1  0.92730936  0.81245641  0.17534592  1
  O  O597  1  0.92654642  0.81205304  0.42440705  1
  O  O598  1  0.92724938  0.81541371  0.67550387  1
  O  O599  1  0.92684409  0.81190990  0.92616724  1
  O  O600  1  0.07418106  0.18762862  0.07591816  1
  O  O601  1  0.07227912  0.18690159  0.32427981  1
  O  O602  1  0.07189437  0.18755099  0.57187885  1
  O  O603  1  0.07449093  0.18677392  0.82399455  1
  O  O604  1  0.07288615  0.52096819  0.07513082  1
  O  O605  1  0.07128303  0.51950042  0.32347746  1
  O  O606  1  0.07326447  0.52181506  0.57340436  1
  O  O607  1  0.07321156  0.51893423  0.82292762  1
  O  O608  1  0.07459541  0.85311622  0.07578242  1
  O  O609  1  0.07440569  0.85337627  0.32651255  1
  O  O610  1  0.07356805  0.85437506  0.57421146  1
  O  O611  1  0.07316668  0.85144881  0.82338165  1
  O  O612  1  0.57234203  0.18625911  0.07256451  1
  O  O613  1  0.57382774  0.18720531  0.32494501  1
  O  O614  1  0.57304022  0.18574228  0.57497787  1
  O  O615  1  0.57187527  0.18661705  0.82440366  1
  O  O616  1  0.57104202  0.51892997  0.07245641  1
  O  O617  1  0.57260767  0.52092375  0.32482687  1
  O  O618  1  0.57110719  0.51902465  0.57395623  1
  O  O619  1  0.57273249  0.51870846  0.82349792  1
  O  O620  1  0.57354399  0.85210422  0.07569170  1
  O  O621  1  0.57390461  0.85298335  0.32616369  1
  O  O622  1  0.57353031  0.85252112  0.57644214  1
  O  O623  1  0.57278978  0.85100161  0.82475441  1
  O  O624  1  0.32305612  0.18617180  0.05093468  1
  O  O625  1  0.32300310  0.18783864  0.30220741  1
  O  O626  1  0.32192030  0.18733341  0.55158941  1
  O  O627  1  0.32306230  0.18676738  0.79849859  1
  O  O628  1  0.32295669  0.51855460  0.05088824  1
  O  O629  1  0.32250596  0.51972971  0.30222675  1
  O  O630  1  0.32094410  0.51885368  0.55168560  1
  O  O631  1  0.32274857  0.51807895  0.79994585  1
  O  O632  1  0.32425866  0.85291315  0.05026341  1
  O  O633  1  0.32477408  0.85374391  0.30079496  1
  O  O634  1  0.32246897  0.85281668  0.55242813  1
  O  O635  1  0.32304326  0.85139087  0.80039074  1
  O  O636  1  0.82374861  0.18629652  0.04847977  1
  O  O637  1  0.82421096  0.18711018  0.29963004  1
  O  O638  1  0.82276679  0.18708868  0.55055929  1
  O  O639  1  0.82201764  0.18667636  0.80080683  1
  O  O640  1  0.82284764  0.51781307  0.05058093  1
  O  O641  1  0.82318713  0.51995205  0.30008481  1
  O  O642  1  0.82225465  0.51954677  0.55155234  1
  O  O643  1  0.82347862  0.51933438  0.79817886  1
  O  O644  1  0.82239259  0.85320640  0.05162500  1
  O  O645  1  0.82335230  0.85443358  0.30015607  1
  O  O646  1  0.82466114  0.85360938  0.54963846  1
  O  O647  1  0.82334086  0.85371455  0.80110581  1
  O  O648  1  0.17761642  0.14927824  0.19947179  1
  O  O649  1  0.17740365  0.14883756  0.44960966  1
  O  O650  1  0.17727961  0.14683858  0.69788856  1
  O  O651  1  0.17634076  0.14720223  0.94938846  1
  O  O652  1  0.17699274  0.48182059  0.19989220  1
  O  O653  1  0.17678611  0.48024301  0.44910232  1
  O  O654  1  0.17856186  0.48058592  0.69689649  1
  O  O655  1  0.17664045  0.48151493  0.94864508  1
  O  O656  1  0.17667195  0.81329580  0.20166359  1
  O  O657  1  0.17753434  0.81238347  0.45121218  1
  O  O658  1  0.17888025  0.81312771  0.69753687  1
  O  O659  1  0.17703867  0.81437334  0.94874326  1
  O  O660  1  0.67706832  0.14586037  0.19925763  1
  O  O661  1  0.67692673  0.14581819  0.44939218  1
  O  O662  1  0.67589918  0.14678721  0.70108582  1
  O  O663  1  0.67773086  0.14648361  0.94844423  1
  O  O664  1  0.67593996  0.48129371  0.19792309  1
  O  O665  1  0.67574941  0.48005418  0.45120133  1
  O  O666  1  0.67753567  0.47954078  0.69854841  1
  O  O667  1  0.67668422  0.47908004  0.94819811  1
  O  O668  1  0.67694960  0.81535035  0.19912584  1
  O  O669  1  0.67599461  0.81298553  0.45145442  1
  O  O670  1  0.67731573  0.81273089  0.70008266  1
  O  O671  1  0.67577523  0.81318886  0.95030243  1
