# generated using pymatgen
data_Na2MnFe(PO4)2
_symmetry_space_group_name_H-M   'P 1'
_cell_length_a   22.34430538
_cell_length_b   20.09894207
_cell_length_c   19.44789435
_cell_angle_alpha   89.96090075
_cell_angle_beta   90.02455317
_cell_angle_gamma   89.95969478
_symmetry_Int_Tables_number   1
_chemical_formula_structural   Na2MnFe(PO4)2
_chemical_formula_sum   'Na96 Mn48 Fe48 P96 O384'
_cell_volume   8733.98405774
_cell_formula_units_Z   48
loop_
 _symmetry_equiv_pos_site_id
 _symmetry_equiv_pos_as_xyz
  1  'x, y, z'
loop_
 _atom_site_type_symbol
 _atom_site_label
 _atom_site_symmetry_multiplicity
 _atom_site_fract_x
 _atom_site_fract_y
 _atom_site_fract_z
 _atom_site_occupancy
  Na  Na0  1  0.14001244  0.25131468  0.24481981  1
  Na  Na1  1  0.14062856  0.24992835  0.49584217  1
  Na  Na2  1  0.14049564  0.24995881  0.74355186  1
  Na  Na3  1  0.13961419  0.25044137  0.99292642  1
  Na  Na4  1  0.14060659  0.58419714  0.24466387  1
  Na  Na5  1  0.13997208  0.58181541  0.49403700  1
  Na  Na6  1  0.14016170  0.58220383  0.74343884  1
  Na  Na7  1  0.14002809  0.58289483  0.99374836  1
  Na  Na8  1  0.13974360  0.91665274  0.24425245  1
  Na  Na9  1  0.13996561  0.91774859  0.49516846  1
  Na  Na10  1  0.13986711  0.91793918  0.74286591  1
  Na  Na11  1  0.13993969  0.91755842  0.99337359  1
  Na  Na12  1  0.64038095  0.24953671  0.24382868  1
  Na  Na13  1  0.64105854  0.25122402  0.49384185  1
  Na  Na14  1  0.64015273  0.24897240  0.74336620  1
  Na  Na15  1  0.63989186  0.24888892  0.99265519  1
  Na  Na16  1  0.64062848  0.58425105  0.24423853  1
  Na  Na17  1  0.64033352  0.58279345  0.49235588  1
  Na  Na18  1  0.64022133  0.58332650  0.74311360  1
  Na  Na19  1  0.64041331  0.58404299  0.99088771  1
  Na  Na20  1  0.64058028  0.91789778  0.24256081  1
  Na  Na21  1  0.64050359  0.91682458  0.49453266  1
  Na  Na22  1  0.64001908  0.91613437  0.74335996  1
  Na  Na23  1  0.64032805  0.91611650  0.99308471  1
  Na  Na24  1  0.36015735  0.08333963  0.00610457  1
  Na  Na25  1  0.35976216  0.08364172  0.25561749  1
  Na  Na26  1  0.35979058  0.08426428  0.50744306  1
  Na  Na27  1  0.36047411  0.08441151  0.75729120  1
  Na  Na28  1  0.36043013  0.41580569  0.00538441  1
  Na  Na29  1  0.36021914  0.41675557  0.25597455  1
  Na  Na30  1  0.36028663  0.41579526  0.50770732  1
  Na  Na31  1  0.36040092  0.41620778  0.75584134  1
  Na  Na32  1  0.36006241  0.74967117  0.00523500  1
  Na  Na33  1  0.35981881  0.75068615  0.25515463  1
  Na  Na34  1  0.36000350  0.74962619  0.50722422  1
  Na  Na35  1  0.36015341  0.74962291  0.75596948  1
  Na  Na36  1  0.85937866  0.08158132  0.00635013  1
  Na  Na37  1  0.85897539  0.08388343  0.25582332  1
  Na  Na38  1  0.85934231  0.08301947  0.50739040  1
  Na  Na39  1  0.86023029  0.08150765  0.75729206  1
  Na  Na40  1  0.85946045  0.41589457  0.00638212  1
  Na  Na41  1  0.85914476  0.41626940  0.25736840  1
  Na  Na42  1  0.85991415  0.41692542  0.50580747  1
  Na  Na43  1  0.85972375  0.41609634  0.75626666  1
  Na  Na44  1  0.85932423  0.75042706  0.00611013  1
  Na  Na45  1  0.85933979  0.75060028  0.25626185  1
  Na  Na46  1  0.85928629  0.75002290  0.50666657  1
  Na  Na47  1  0.85914210  0.75060605  0.75741111  1
  Na  Na48  1  0.10880062  0.08437622  0.11867150  1
  Na  Na49  1  0.10915679  0.08286429  0.37013396  1
  Na  Na50  1  0.11001103  0.08373765  0.61954612  1
  Na  Na51  1  0.10910205  0.08308081  0.86740749  1
  Na  Na52  1  0.10910304  0.41678219  0.11931070  1
  Na  Na53  1  0.11010663  0.41679946  0.36970593  1
  Na  Na54  1  0.11008809  0.41669954  0.61848056  1
  Na  Na55  1  0.10933600  0.41482837  0.86828321  1
  Na  Na56  1  0.10945804  0.75179400  0.11875447  1
  Na  Na57  1  0.10920903  0.74984841  0.36969549  1
  Na  Na58  1  0.10852496  0.75073443  0.61899017  1
  Na  Na59  1  0.10905967  0.75023701  0.86942203  1
  Na  Na60  1  0.60965404  0.08339864  0.11736961  1
  Na  Na61  1  0.61007515  0.08395611  0.36862753  1
  Na  Na62  1  0.60989784  0.08362755  0.61937861  1
  Na  Na63  1  0.60962457  0.08162828  0.86869440  1
  Na  Na64  1  0.60951442  0.41675427  0.11743088  1
  Na  Na65  1  0.61034717  0.41696021  0.36883153  1
  Na  Na66  1  0.61007327  0.41758305  0.61748322  1
  Na  Na67  1  0.60973386  0.41673615  0.86795840  1
  Na  Na68  1  0.60982606  0.75044118  0.11695350  1
  Na  Na69  1  0.60948390  0.74984612  0.36874861  1
  Na  Na70  1  0.61009975  0.74987765  0.61893680  1
  Na  Na71  1  0.60966522  0.74934513  0.86644479  1
  Na  Na72  1  0.39062248  0.24948476  0.12968907  1
  Na  Na73  1  0.39045988  0.25114808  0.38259319  1
  Na  Na74  1  0.39056931  0.25067571  0.63296629  1
  Na  Na75  1  0.39063625  0.24938893  0.88213644  1
  Na  Na76  1  0.39107557  0.58310243  0.12942840  1
  Na  Na77  1  0.39099215  0.58257419  0.38196857  1
  Na  Na78  1  0.39127810  0.58335608  0.63087802  1
  Na  Na79  1  0.39123816  0.58238723  0.88016920  1
  Na  Na80  1  0.39027425  0.91691240  0.13071773  1
  Na  Na81  1  0.39078730  0.91662918  0.38071982  1
  Na  Na82  1  0.39116839  0.91716602  0.63283128  1
  Na  Na83  1  0.39075435  0.91664685  0.88095693  1
  Na  Na84  1  0.88968594  0.24999269  0.13159852  1
  Na  Na85  1  0.88963793  0.25015107  0.38191627  1
  Na  Na86  1  0.89038929  0.24966125  0.63181244  1
  Na  Na87  1  0.89044891  0.24843137  0.88089006  1
  Na  Na88  1  0.89021554  0.58421890  0.13091223  1
  Na  Na89  1  0.89022144  0.58338754  0.38201823  1
  Na  Na90  1  0.89039314  0.58347977  0.63097516  1
  Na  Na91  1  0.88999215  0.58220790  0.88197865  1
  Na  Na92  1  0.88940840  0.91706964  0.13088803  1
  Na  Na93  1  0.89011061  0.91562068  0.38157918  1
  Na  Na94  1  0.88982912  0.91744514  0.63303640  1
  Na  Na95  1  0.88952226  0.91574742  0.88143031  1
  Mn  Mn96  1  0.75057867  0.49927359  0.62421324  1
  Mn  Mn97  1  0.50013344  0.83323126  -0.00099518  1
  Mn  Mn98  1  0.50043588  0.16623416  0.24992207  1
  Mn  Mn99  1  0.50092401  0.33362609  0.75040099  1
  Mn  Mn100  1  -0.00095362  -0.00040592  0.25002243  1
  Mn  Mn101  1  0.25019589  0.66679540  0.37491575  1
  Mn  Mn102  1  0.75006650  0.83327134  0.37484651  1
  Mn  Mn103  1  0.24913603  0.66558441  0.62525482  1
  Mn  Mn104  1  0.50004517  0.00035133  0.50064364  1
  Mn  Mn105  1  0.49966947  0.16758275  0.50020297  1
  Mn  Mn106  1  -0.00022837  0.16669040  -0.00049359  1
  Mn  Mn107  1  0.75048663  0.33300827  0.87507678  1
  Mn  Mn108  1  0.75021663  0.66740251  0.12401312  1
  Mn  Mn109  1  0.00031428  0.50008846  0.25001959  1
  Mn  Mn110  1  0.50075873  0.83297308  0.50031002  1
  Mn  Mn111  1  0.25052221  0.66742925  0.12440836  1
  Mn  Mn112  1  0.75048636  0.66687546  0.62509229  1
  Mn  Mn113  1  0.49983161  0.33345398  0.24958704  1
  Mn  Mn114  1  -0.00060978  0.83378102  0.50081839  1
  Mn  Mn115  1  0.25015010  0.83412544  0.37579451  1
  Mn  Mn116  1  0.24965325  0.83385177  0.62520886  1
  Mn  Mn117  1  0.00039144  0.33375995  0.50090877  1
  Mn  Mn118  1  0.74883591  0.33252871  0.12537502  1
  Mn  Mn119  1  0.24872269  0.00004277  0.12501319  1
  Mn  Mn120  1  0.24984519  0.16733657  0.12541826  1
  Mn  Mn121  1  0.25076338  0.49898408  0.37486445  1
  Mn  Mn122  1  -0.00051255  0.49924502  0.00063525  1
  Mn  Mn123  1  0.25050927  0.49863852  0.87418452  1
  Mn  Mn124  1  -0.00080683  0.16761251  0.24967541  1
  Mn  Mn125  1  0.75017438  0.16502514  0.87413022  1
  Mn  Mn126  1  0.49992022  0.83405547  0.24894193  1
  Mn  Mn127  1  0.00002745  0.16614218  0.50084209  1
  Mn  Mn128  1  0.25080029  0.00111895  0.87492206  1
  Mn  Mn129  1  0.75008234  0.50052629  0.12533765  1
  Mn  Mn130  1  0.24962900  0.16779198  0.37632242  1
  Mn  Mn131  1  0.25004294  0.00078418  0.37530602  1
  Mn  Mn132  1  0.25001135  0.49976252  0.12484912  1
  Mn  Mn133  1  0.24955921  0.83370298  0.87438721  1
  Mn  Mn134  1  0.75035043  0.00074180  0.37456475  1
  Mn  Mn135  1  0.24973751  0.66624008  0.87467422  1
  Mn  Mn136  1  0.50040211  0.49998821  0.24923509  1
  Mn  Mn137  1  0.25005160  0.33331421  0.12475008  1
  Mn  Mn138  1  0.75059240  0.16643120  0.62532035  1
  Mn  Mn139  1  0.50025276  0.66651214  0.24910678  1
  Mn  Mn140  1  0.00016408  0.66751200  0.25088673  1
  Mn  Mn141  1  0.00044192  0.49917605  0.75090884  1
  Mn  Mn142  1  -0.00022072  0.83378084  -0.00033727  1
  Mn  Mn143  1  0.00009737  0.66667610  0.75025699  1
  Fe  Fe144  1  0.50003354  0.00033986  0.24973470  1
  Fe  Fe145  1  0.50025558  0.66692692  0.50007655  1
  Fe  Fe146  1  0.74990115  0.16625003  0.12477148  1
  Fe  Fe147  1  0.74969982  -0.00013105  0.12489707  1
  Fe  Fe148  1  -0.00061611  0.33384730  0.25054674  1
  Fe  Fe149  1  0.74949873  0.49956384  0.87445594  1
  Fe  Fe150  1  -0.00029126  0.50002850  0.50007485  1
  Fe  Fe151  1  0.25084738  0.00102589  0.62531677  1
  Fe  Fe152  1  0.74971329  0.16665251  0.37537484  1
  Fe  Fe153  1  -0.00042406  0.33271292  0.74964549  1
  Fe  Fe154  1  0.50072089  0.50018549  0.74916860  1
  Fe  Fe155  1  0.50000682  0.16592429  0.00022354  1
  Fe  Fe156  1  0.25026021  0.33319290  0.37626443  1
  Fe  Fe157  1  0.24964419  0.16716402  0.87468563  1
  Fe  Fe158  1  0.74947282  0.66714173  0.37486829  1
  Fe  Fe159  1  -0.00093637  0.83340225  0.75032064  1
  Fe  Fe160  1  0.74994040  -0.00026767  0.62532194  1
  Fe  Fe161  1  0.50023376  0.66630709  -0.00208151  1
  Fe  Fe162  1  0.50089763  0.33394946  0.50087627  1
  Fe  Fe163  1  0.74983774  0.83354985  0.62593100  1
  Fe  Fe164  1  0.75018765  0.66695663  0.87448025  1
  Fe  Fe165  1  0.24998393  0.83378311  0.12485880  1
  Fe  Fe166  1  -0.00024522  0.66707901  0.00056000  1
  Fe  Fe167  1  -0.00050775  0.33282339  -0.00022193  1
  Fe  Fe168  1  0.24989722  0.33290219  0.87439900  1
  Fe  Fe169  1  0.74961297  0.83382530  0.87507081  1
  Fe  Fe170  1  0.50063208  0.16686096  0.75121389  1
  Fe  Fe171  1  -0.00026111  0.83370034  0.25028719  1
  Fe  Fe172  1  0.50071009  0.50051270  0.50014883  1
  Fe  Fe173  1  0.75023295  0.50007180  0.37493910  1
  Fe  Fe174  1  0.75007962  0.33313822  0.37459261  1
  Fe  Fe175  1  0.25057291  0.49883245  0.62467238  1
  Fe  Fe176  1  0.50054169  0.33304901  -0.00086222  1
  Fe  Fe177  1  -0.00065572  0.00011468  0.50089312  1
  Fe  Fe178  1  0.50052676  0.50005070  -0.00137321  1
  Fe  Fe179  1  0.50033978  0.00038420  0.75069814  1
  Fe  Fe180  1  0.75022294  0.33323985  0.62439944  1
  Fe  Fe181  1  0.49993236  0.83280415  0.75006869  1
  Fe  Fe182  1  0.50048089  0.66594884  0.74893462  1
  Fe  Fe183  1  0.50020574  -0.00019480  -0.00056564  1
  Fe  Fe184  1  -0.00011485  0.16592875  0.75037058  1
  Fe  Fe185  1  0.74927648  0.83322682  0.12434064  1
  Fe  Fe186  1  -0.00019334  -0.00043287  0.75001931  1
  Fe  Fe187  1  0.25093000  0.16713580  0.62581530  1
  Fe  Fe188  1  -0.00025866  -0.00039267  -0.00069694  1
  Fe  Fe189  1  0.74942749  -0.00118432  0.87574712  1
  Fe  Fe190  1  0.25046671  0.33260913  0.62587490  1
  Fe  Fe191  1  -0.00038749  0.66685753  0.50027183  1
  P  P192  1  0.04171160  0.25164673  0.10262093  1
  P  P193  1  0.04176078  0.25128948  0.35283588  1
  P  P194  1  0.04237711  0.24969900  0.60469378  1
  P  P195  1  0.04092060  0.24977504  0.85158615  1
  P  P196  1  0.04216666  0.58475528  0.10266169  1
  P  P197  1  0.04262226  0.58325826  0.35441190  1
  P  P198  1  0.04114827  0.58343370  0.60181448  1
  P  P199  1  0.04263772  0.58321880  0.85409822  1
  P  P200  1  0.04176683  0.91806208  0.10240987  1
  P  P201  1  0.04187602  0.91559710  0.35321857  1
  P  P202  1  0.04141773  0.91846412  0.60382970  1
  P  P203  1  0.04122043  0.91651757  0.85167729  1
  P  P204  1  0.54153942  0.24987427  0.10101033  1
  P  P205  1  0.54264614  0.25059151  0.35350295  1
  P  P206  1  0.54265822  0.25123675  0.60320271  1
  P  P207  1  0.54246089  0.24866021  0.85364197  1
  P  P208  1  0.54203165  0.58358593  0.09986944  1
  P  P209  1  0.54262033  0.58325827  0.35349995  1
  P  P210  1  0.54212067  0.58393276  0.60179274  1
  P  P211  1  0.54159411  0.58314450  0.85120362  1
  P  P212  1  0.54210211  0.91808824  0.10203193  1
  P  P213  1  0.54281346  0.91787276  0.35204696  1
  P  P214  1  0.54259866  0.91659536  0.60452858  1
  P  P215  1  0.54110568  0.91627530  0.85158247  1
  P  P216  1  0.45801492  0.08203995  0.14657470  1
  P  P217  1  0.45723937  0.08337737  0.39687844  1
  P  P218  1  0.45924205  0.08426666  0.64941162  1
  P  P219  1  0.45913701  0.08301951  0.89783135  1
  P  P220  1  0.45773120  0.41655860  0.14527616  1
  P  P221  1  0.45916338  0.41689768  0.39909990  1
  P  P222  1  0.45919189  0.41813621  0.64686020  1
  P  P223  1  0.45935788  0.41650282  0.89743646  1
  P  P224  1  0.45765438  0.74987410  0.14542730  1
  P  P225  1  0.45771046  0.74908414  0.39757559  1
  P  P226  1  0.45901222  0.74944840  0.64805305  1
  P  P227  1  0.45827795  0.74859759  0.89563378  1
  P  P228  1  0.95674058  0.08353784  0.14629862  1
  P  P229  1  0.95716997  0.08197451  0.39812511  1
  P  P230  1  0.95847680  0.08280995  0.64857766  1
  P  P231  1  0.95783797  0.08152119  0.89660161  1
  P  P232  1  0.95700047  0.41549991  0.14752179  1
  P  P233  1  0.95803134  0.41749818  0.39754217  1
  P  P234  1  0.95794798  0.41614394  0.64749257  1
  P  P235  1  0.95747028  0.41447162  0.89731465  1
  P  P236  1  0.95765754  0.75157059  0.14755318  1
  P  P237  1  0.95741689  0.74934326  0.39797463  1
  P  P238  1  0.95705996  0.75115997  0.64779327  1
  P  P239  1  0.95745364  0.74901258  0.89746137  1
  P  P240  1  0.20633662  0.08412872  0.22849959  1
  P  P241  1  0.20753266  0.08392475  0.47988201  1
  P  P242  1  0.20912563  0.08454160  0.72713531  1
  P  P243  1  0.20719407  0.08490509  0.97702147  1
  P  P244  1  0.20719254  0.41644132  0.22865575  1
  P  P245  1  0.20841390  0.41502537  0.47893041  1
  P  P246  1  0.20897529  0.41577606  0.72668241  1
  P  P247  1  0.20744274  0.41500670  0.97679430  1
  P  P248  1  0.20766543  0.75160299  0.22733046  1
  P  P249  1  0.20702159  0.74992702  0.47851601  1
  P  P250  1  0.20652912  0.74992779  0.72804602  1
  P  P251  1  0.20715699  0.75049568  0.97826986  1
  P  P252  1  0.70835550  0.08396204  0.22656453  1
  P  P253  1  0.70794182  0.08426702  0.47799907  1
  P  P254  1  0.70827576  0.08112749  0.72790501  1
  P  P255  1  0.70792584  0.08153573  0.97796470  1
  P  P256  1  0.70726404  0.41689118  0.22897407  1
  P  P257  1  0.70926648  0.41633486  0.47637914  1
  P  P258  1  0.70801293  0.41544852  0.72721880  1
  P  P259  1  0.70749611  0.41741137  0.97715068  1
  P  P260  1  0.70744623  0.75108778  0.22706487  1
  P  P261  1  0.70767650  0.74927215  0.47775903  1
  P  P262  1  0.70829074  0.75107193  0.72844303  1
  P  P263  1  0.70837901  0.75053451  0.97594322  1
  P  P264  1  0.29245208  0.24986960  0.02069882  1
  P  P265  1  0.29273487  0.25150217  0.27349614  1
  P  P266  1  0.29210016  0.25015073  0.52418829  1
  P  P267  1  0.29189783  0.24999856  0.77292002  1
  P  P268  1  0.29290339  0.58283633  0.02126663  1
  P  P269  1  0.29355294  0.58353146  0.27183267  1
  P  P270  1  0.29243042  0.58145964  0.52270832  1
  P  P271  1  0.29274948  0.58229797  0.77086832  1
  P  P272  1  0.29213125  0.91603542  0.02243129  1
  P  P273  1  0.29273577  0.91698181  0.27151404  1
  P  P274  1  0.29283785  0.91835269  0.52330840  1
  P  P275  1  0.29280805  0.91780963  0.77122079  1
  P  P276  1  0.79189886  0.24828112  0.02261584  1
  P  P277  1  0.79099541  0.24907977  0.27325822  1
  P  P278  1  0.79243973  0.25110439  0.52188784  1
  P  P279  1  0.79273387  0.24962923  0.77134976  1
  P  P280  1  0.79228875  0.58334061  0.02057190  1
  P  P281  1  0.79162706  0.58403838  0.27353467  1
  P  P282  1  0.79233272  0.58340912  0.52082857  1
  P  P283  1  0.79130215  0.58291106  0.77336336  1
  P  P284  1  0.79058544  0.91621272  0.02273435  1
  P  P285  1  0.79241942  0.91700854  0.27101956  1
  P  P286  1  0.79143263  0.91629509  0.52401376  1
  P  P287  1  0.79095746  0.91647580  0.77311287  1
  O  O288  1  0.03638005  0.25193792  0.18256043  1
  O  O289  1  0.03668813  0.25060790  0.43281473  1
  O  O290  1  0.03698656  0.24952265  0.68456305  1
  O  O291  1  0.03619831  0.24991461  0.93158839  1
  O  O292  1  0.03712639  0.58452344  0.18266214  1
  O  O293  1  0.03709554  0.58308281  0.43433027  1
  O  O294  1  0.03632693  0.58316420  0.68186250  1
  O  O295  1  0.03726068  0.58348375  0.93399904  1
  O  O296  1  0.03659479  0.91721692  0.18231160  1
  O  O297  1  0.03668058  0.91609125  0.43316065  1
  O  O298  1  0.03597474  0.91807046  0.68370995  1
  O  O299  1  0.03622344  0.91693334  0.93166678  1
  O  O300  1  0.53685843  0.24962688  0.18102092  1
  O  O301  1  0.53744689  0.25116293  0.43347649  1
  O  O302  1  0.53787793  0.25083470  0.68319305  1
  O  O303  1  0.53693073  0.24891669  0.93348561  1
  O  O304  1  0.53730219  0.58328540  0.17989657  1
  O  O305  1  0.53738357  0.58340390  0.43339699  1
  O  O306  1  0.53708784  0.58375370  0.68171166  1
  O  O307  1  0.53639441  0.58308587  0.93106662  1
  O  O308  1  0.53675979  0.91821305  0.18195475  1
  O  O309  1  0.53779719  0.91731500  0.43208302  1
  O  O310  1  0.53701923  0.91626397  0.68439740  1
  O  O311  1  0.53630498  0.91686614  0.93155123  1
  O  O312  1  0.46338458  0.08207766  0.06667440  1
  O  O313  1  0.46239287  0.08298316  0.31691946  1
  O  O314  1  0.46367494  0.08423046  0.56942545  1
  O  O315  1  0.46424051  0.08370525  0.81795319  1
  O  O316  1  0.46305875  0.41621350  0.06540646  1
  O  O317  1  0.46347511  0.41675787  0.31902379  1
  O  O318  1  0.46457001  0.41779396  0.56700501  1
  O  O319  1  0.46431197  0.41702010  0.81747220  1
  O  O320  1  0.46291174  0.74961575  0.06546504  1
  O  O321  1  0.46271181  0.74968416  0.31758139  1
  O  O322  1  0.46405825  0.74934831  0.56808061  1
  O  O323  1  0.46399703  0.74895859  0.81577414  1
  O  O324  1  0.96210037  0.08341801  0.06636334  1
  O  O325  1  0.96204020  0.08239793  0.31815643  1
  O  O326  1  0.96317528  0.08279376  0.56859779  1
  O  O327  1  0.96332483  0.08152666  0.81671301  1
  O  O328  1  0.96216436  0.41521986  0.06751253  1
  O  O329  1  0.96309266  0.41688031  0.31758464  1
  O  O330  1  0.96325178  0.41720924  0.56755492  1
  O  O331  1  0.96296497  0.41447236  0.81738472  1
  O  O332  1  0.96285076  0.75083320  0.06759164  1
  O  O333  1  0.96267102  0.75026083  0.31807001  1
  O  O334  1  0.96233526  0.75072866  0.56789514  1
  O  O335  1  0.96274194  0.74984808  0.81754803  1
  O  O336  1  0.21179929  0.08436050  0.05703958  1
  O  O337  1  0.21139866  0.08414512  0.30850427  1
  O  O338  1  0.21333525  0.08383517  0.55978340  1
  O  O339  1  0.21389969  0.08491511  0.80713899  1
  O  O340  1  0.21201587  0.41546896  0.05678844  1
  O  O341  1  0.21246529  0.41595006  0.30864037  1
  O  O342  1  0.21380246  0.41549912  0.55882482  1
  O  O343  1  0.21376416  0.41505149  0.80663564  1
  O  O344  1  0.21253199  0.75122858  0.05822967  1
  O  O345  1  0.21288824  0.75118411  0.30732824  1
  O  O346  1  0.21183527  0.74981036  0.55851170  1
  O  O347  1  0.21154921  0.74985680  0.80801898  1
  O  O348  1  0.71333559  0.08221223  0.05781715  1
  O  O349  1  0.71319628  0.08432723  0.30656598  1
  O  O350  1  0.71345393  0.08346695  0.55790937  1
  O  O351  1  0.71320263  0.08056887  0.80785437  1
  O  O352  1  0.71233925  0.41732692  0.05714683  1
  O  O353  1  0.71289566  0.41703788  0.30887055  1
  O  O354  1  0.71412289  0.41554630  0.55637509  1
  O  O355  1  0.71324013  0.41631648  0.80718801  1
  O  O356  1  0.71296982  0.75056438  0.05596621  1
  O  O357  1  0.71268787  0.75031609  0.30701859  1
  O  O358  1  0.71286661  0.74974352  0.55768160  1
  O  O359  1  0.71379586  0.75079412  0.80829710  1
  O  O360  1  0.28774970  0.25114610  0.19350437  1
  O  O361  1  0.28718662  0.25096221  0.44426250  1
  O  O362  1  0.28700561  0.24966197  0.69298025  1
  O  O363  1  0.28726868  0.24975043  0.94075501  1
  O  O364  1  0.28839414  0.58360645  0.19184233  1
  O  O365  1  0.28757393  0.58176521  0.44270846  1
  O  O366  1  0.28747236  0.58165294  0.69093050  1
  O  O367  1  0.28781377  0.58274478  0.94126545  1
  O  O368  1  0.28728315  0.91645810  0.19154330  1
  O  O369  1  0.28793646  0.91805965  0.44327868  1
  O  O370  1  0.28774491  0.91852645  0.69128163  1
  O  O371  1  0.28721585  0.91660873  0.94241013  1
  O  O372  1  0.78585000  0.24889030  0.19329792  1
  O  O373  1  0.78688918  0.25056573  0.44201859  1
  O  O374  1  0.78749880  0.25029120  0.69142113  1
  O  O375  1  0.78711931  0.24847957  0.94263836  1
  O  O376  1  0.78657267  0.58432705  0.19347704  1
  O  O377  1  0.78667419  0.58350443  0.44097989  1
  O  O378  1  0.78668391  0.58324278  0.69332461  1
  O  O379  1  0.78692024  0.58290399  0.94067620  1
  O  O380  1  0.78695745  0.91674404  0.19117345  1
  O  O381  1  0.78681133  0.91672624  0.44401551  1
  O  O382  1  0.78589613  0.91644894  0.69321565  1
  O  O383  1  0.78540613  0.91631531  0.94281943  1
  O  O384  1  0.22812948  0.24999342  0.05617698  1
  O  O385  1  0.22825340  0.25215199  0.30876091  1
  O  O386  1  0.22793845  0.24892767  0.56001364  1
  O  O387  1  0.22763613  0.25003393  0.80885735  1
  O  O388  1  0.22852349  0.58330111  0.05638244  1
  O  O389  1  0.22907714  0.58306561  0.30680023  1
  O  O390  1  0.22798055  0.58083778  0.55789068  1
  O  O391  1  0.22839477  0.58217906  0.80609266  1
  O  O392  1  0.22769767  0.91528370  0.05768202  1
  O  O393  1  0.22838853  0.91721792  0.30689730  1
  O  O394  1  0.22836539  0.91866748  0.55834275  1
  O  O395  1  0.22841638  0.91805080  0.80633986  1
  O  O396  1  0.72747268  0.24771083  0.05790339  1
  O  O397  1  0.72696460  0.24878119  0.30946985  1
  O  O398  1  0.72836212  0.25111981  0.55824678  1
  O  O399  1  0.72845589  0.24944565  0.80673455  1
  O  O400  1  0.72808574  0.58369286  0.05631099  1
  O  O401  1  0.72747565  0.58368109  0.30944168  1
  O  O402  1  0.72826591  0.58335934  0.55688674  1
  O  O403  1  0.72706885  0.58259493  0.80889512  1
  O  O404  1  0.72664963  0.91566428  0.05917922  1
  O  O405  1  0.72826995  0.91714478  0.30692978  1
  O  O406  1  0.72720030  0.91575878  0.55967302  1
  O  O407  1  0.72682845  0.91645711  0.80935432  1
  O  O408  1  0.27080362  0.08355112  0.19356091  1
  O  O409  1  0.27168622  0.08424230  0.44397334  1
  O  O410  1  0.27339477  0.08456845  0.69140053  1
  O  O411  1  0.27178564  0.08556626  0.94216054  1
  O  O412  1  0.27162014  0.41665387  0.19347947  1
  O  O413  1  0.27258529  0.41456665  0.44279835  1
  O  O414  1  0.27318112  0.41688293  0.69097728  1
  O  O415  1  0.27200019  0.41447510  0.94187391  1
  O  O416  1  0.27199606  0.75203925  0.19176197  1
  O  O417  1  0.27160198  0.75008986  0.44391060  1
  O  O418  1  0.27101508  0.74970223  0.69326210  1
  O  O419  1  0.27149087  0.75024727  0.94289613  1
  O  O420  1  0.77247773  0.08429393  0.19057799  1
  O  O421  1  0.77211528  0.08501447  0.44199063  1
  O  O422  1  0.77253098  0.08158008  0.69233128  1
  O  O423  1  0.77205078  0.08092563  0.94179638  1
  O  O424  1  0.77141911  0.41622794  0.19310089  1
  O  O425  1  0.77326550  0.41713429  0.44027918  1
  O  O426  1  0.77230649  0.41457734  0.69151257  1
  O  O427  1  0.77189696  0.41785537  0.94187491  1
  O  O428  1  0.77175108  0.75189367  0.19135346  1
  O  O429  1  0.77191643  0.74871774  0.44196327  1
  O  O430  1  0.77232757  0.75167017  0.69210355  1
  O  O431  1  0.77262444  0.75114974  0.94038935  1
  O  O432  1  0.02092019  0.08360169  0.18200920  1
  O  O433  1  0.02156633  0.08143979  0.43355924  1
  O  O434  1  0.02263174  0.08234832  0.68446574  1
  O  O435  1  0.02191414  0.08151372  0.93288638  1
  O  O436  1  0.02136322  0.41503870  0.18315124  1
  O  O437  1  0.02224365  0.41806212  0.43334970  1
  O  O438  1  0.02220109  0.41532647  0.68324819  1
  O  O439  1  0.02166712  0.41458524  0.93329133  1
  O  O440  1  0.02189726  0.75199968  0.18342829  1
  O  O441  1  0.02157562  0.74902255  0.43398164  1
  O  O442  1  0.02134677  0.75163573  0.68348663  1
  O  O443  1  0.02163339  0.74872973  0.93343323  1
  O  O444  1  0.52221667  0.08164143  0.18274515  1
  O  O445  1  0.52163443  0.08382669  0.43212989  1
  O  O446  1  0.52348105  0.08453110  0.68502907  1
  O  O447  1  0.52314402  0.08232079  0.93414908  1
  O  O448  1  0.52201461  0.41657355  0.18102294  1
  O  O449  1  0.52350176  0.41703380  0.43449298  1
  O  O450  1  0.52328885  0.41786271  0.68303158  1
  O  O451  1  0.52343219  0.41583158  0.93347211  1
  O  O452  1  0.52196894  0.75019619  0.18089499  1
  O  O453  1  0.52213817  0.74844390  0.43302597  1
  O  O454  1  0.52309525  0.74955920  0.68421679  1
  O  O455  1  0.52236200  0.74851751  0.93198638  1
  O  O456  1  0.47739013  0.25069960  0.06522798  1
  O  O457  1  0.47833709  0.24993178  0.31807068  1
  O  O458  1  0.47825582  0.25185588  0.56786091  1
  O  O459  1  0.47837442  0.24887108  0.81735012  1
  O  O460  1  0.47779085  0.58411543  0.06419114  1
  O  O461  1  0.47840283  0.58319092  0.31765039  1
  O  O462  1  0.47807959  0.58391613  0.56537351  1
  O  O463  1  0.47765424  0.58346443  0.81463261  1
  O  O464  1  0.47793916  0.91792715  0.06600318  1
  O  O465  1  0.47841990  0.91853654  0.31655769  1
  O  O466  1  0.47846810  0.91645556  0.56850392  1
  O  O467  1  0.47705956  0.91601360  0.81557213  1
  O  O468  1  0.97745989  0.25138402  0.06672767  1
  O  O469  1  0.97739281  0.25197199  0.31728441  1
  O  O470  1  0.97824516  0.24997984  0.56880754  1
  O  O471  1  0.97682153  0.25011801  0.81563973  1
  O  O472  1  0.97783638  0.58464812  0.06711521  1
  O  O473  1  0.97843207  0.58340625  0.31856076  1
  O  O474  1  0.97698634  0.58367298  0.56592407  1
  O  O475  1  0.97835248  0.58292770  0.81859724  1
  O  O476  1  0.97746719  0.91841775  0.06664396  1
  O  O477  1  0.97755641  0.91508700  0.31744919  1
  O  O478  1  0.97724687  0.91846043  0.56773357  1
  O  O479  1  0.97695570  0.91664340  0.81589968  1
  O  O480  1  0.07259250  0.31482869  0.07355456  1
  O  O481  1  0.07271874  0.31478700  0.32484621  1
  O  O482  1  0.07380151  0.31296030  0.57644836  1
  O  O483  1  0.07233328  0.31290728  0.82310654  1
  O  O484  1  0.07261142  0.64846605  0.07435666  1
  O  O485  1  0.07387268  0.64668944  0.32618570  1
  O  O486  1  0.07193922  0.64725971  0.57409127  1
  O  O487  1  0.07380483  0.64637930  0.82543502  1
  O  O488  1  0.07242257  0.98173422  0.07404352  1
  O  O489  1  0.07292299  0.97907609  0.32504618  1
  O  O490  1  0.07208787  0.98197167  0.57503881  1
  O  O491  1  0.07261368  0.97970942  0.82329795  1
  O  O492  1  0.57314120  0.31304121  0.07296988  1
  O  O493  1  0.57355926  0.31387758  0.32479248  1
  O  O494  1  0.57344724  0.31474690  0.57451693  1
  O  O495  1  0.57391811  0.31199023  0.82550069  1
  O  O496  1  0.57318796  0.64704764  0.07175658  1
  O  O497  1  0.57375284  0.64655277  0.32474327  1
  O  O498  1  0.57295889  0.64757770  0.57347361  1
  O  O499  1  0.57291341  0.64649229  0.82286266  1
  O  O500  1  0.57303811  0.98131585  0.07324107  1
  O  O501  1  0.57369979  0.98137629  0.32383327  1
  O  O502  1  0.57360690  0.98019759  0.57643163  1
  O  O503  1  0.57175001  0.98001239  0.82308885  1
  O  O504  1  0.42689954  0.01888670  0.17546330  1
  O  O505  1  0.42627302  0.02009671  0.42561911  1
  O  O506  1  0.42892496  0.02030614  0.67772026  1
  O  O507  1  0.42763264  0.01956188  0.92564788  1
  O  O508  1  0.42649258  0.35336901  0.17416935  1
  O  O509  1  0.42867971  0.35316248  0.42767176  1
  O  O510  1  0.42764928  0.35492537  0.67521633  1
  O  O511  1  0.42807540  0.35297269  0.92520366  1
  O  O512  1  0.42659155  0.68655111  0.17386887  1
  O  O513  1  0.42683160  0.68567784  0.42602632  1
  O  O514  1  0.42803496  0.68583747  0.67610746  1
  O  O515  1  0.42738967  0.68508806  0.92405683  1
  O  O516  1  0.92537270  0.02036778  0.17454140  1
  O  O517  1  0.92629845  0.01851301  0.42657102  1
  O  O518  1  0.92695530  0.01968765  0.67686174  1
  O  O519  1  0.92692578  0.01815999  0.92544213  1
  O  O520  1  0.92573543  0.35256593  0.17660516  1
  O  O521  1  0.92695421  0.35406971  0.42579924  1
  O  O522  1  0.92703333  0.35247170  0.67541621  1
  O  O523  1  0.92648011  0.35114880  0.92587162  1
  O  O524  1  0.92643710  0.68816147  0.17574747  1
  O  O525  1  0.92688467  0.68554646  0.42613483  1
  O  O526  1  0.92598583  0.68759701  0.67578463  1
  O  O527  1  0.92686099  0.68532718  0.92571440  1
  O  O528  1  0.17496345  0.02095105  0.20021037  1
  O  O529  1  0.17638449  0.02062248  0.45140123  1
  O  O530  1  0.17873107  0.02055660  0.69909812  1
  O  O531  1  0.17671404  0.02110320  0.94879801  1
  O  O532  1  0.17601025  0.35333796  0.19997516  1
  O  O533  1  0.17743164  0.35151048  0.45062594  1
  O  O534  1  0.17895217  0.35177812  0.69805470  1
  O  O535  1  0.17669300  0.35163079  0.94805344  1
  O  O536  1  0.17684649  0.68780396  0.19960657  1
  O  O537  1  0.17627341  0.68639984  0.45022407  1
  O  O538  1  0.17529826  0.68654601  0.70008408  1
  O  O539  1  0.17625206  0.68673678  0.95059906  1
  O  O540  1  0.67838730  0.01975461  0.19831966  1
  O  O541  1  0.67708908  0.02071931  0.44964542  1
  O  O542  1  0.67759478  0.01789295  0.69872315  1
  O  O543  1  0.67676805  0.01811967  0.94967619  1
  O  O544  1  0.67568231  0.35366113  0.20071814  1
  O  O545  1  0.67889451  0.35261698  0.44758295  1
  O  O546  1  0.67696716  0.35201141  0.69909097  1
  O  O547  1  0.67689007  0.35347423  0.94959509  1
  O  O548  1  0.67663487  0.68754770  0.19863549  1
  O  O549  1  0.67686823  0.68580959  0.44919026  1
  O  O550  1  0.67744099  0.68735861  0.70037788  1
  O  O551  1  0.67857960  0.68635679  0.94730314  1
  O  O552  1  0.32367002  0.31317798  0.04909292  1
  O  O553  1  0.32370889  0.31480315  0.30205394  1
  O  O554  1  0.32217089  0.31395129  0.55323818  1
  O  O555  1  0.32270772  0.31375990  0.80098994  1
  O  O556  1  0.32422159  0.64615958  0.04916829  1
  O  O557  1  0.32412154  0.64721539  0.30003959  1
  O  O558  1  0.32303208  0.64528391  0.55058973  1
  O  O559  1  0.32339337  0.64614303  0.79863536  1
  O  O560  1  0.32255055  0.97998339  0.05031244  1
  O  O561  1  0.32371999  0.98058369  0.29943857  1
  O  O562  1  0.32357892  0.98185324  0.55181661  1
  O  O563  1  0.32433762  0.98072143  0.80000165  1
  O  O564  1  0.82222613  0.31222267  0.05063761  1
  O  O565  1  0.82129069  0.31320825  0.30134507  1
  O  O566  1  0.82314467  0.31469792  0.55033443  1
  O  O567  1  0.82409050  0.31258592  0.80009948  1
  O  O568  1  0.82349957  0.64682948  0.04871275  1
  O  O569  1  0.82215318  0.64787503  0.30158313  1
  O  O570  1  0.82364206  0.64657215  0.54945289  1
  O  O571  1  0.82165029  0.64685753  0.80163077  1
  O  O572  1  0.82095053  0.98008189  0.05129252  1
  O  O573  1  0.82360356  0.98043210  0.29930926  1
  O  O574  1  0.82153772  0.98031258  0.55249017  1
  O  O575  1  0.82188182  0.97990100  0.80176776  1
  O  O576  1  0.42712331  0.14588272  0.17450798  1
  O  O577  1  0.42607986  0.14688860  0.42503384  1
  O  O578  1  0.42822069  0.14779394  0.67755670  1
  O  O579  1  0.42874327  0.14676740  0.92689950  1
  O  O580  1  0.42675406  0.48008330  0.17372533  1
  O  O581  1  0.42835996  0.48055309  0.42728476  1
  O  O582  1  0.42863612  0.48183839  0.67538585  1
  O  O583  1  0.42899306  0.48038626  0.92593536  1
  O  O584  1  0.42656928  0.81342555  0.17350089  1
  O  O585  1  0.42709180  0.81289018  0.42569028  1
  O  O586  1  0.42804867  0.81311983  0.67617690  1
  O  O587  1  0.42689720  0.81203328  0.92371517  1
  O  O588  1  0.92580633  0.14716824  0.17448292  1
  O  O589  1  0.92654781  0.14578479  0.42613955  1
  O  O590  1  0.92834311  0.14692953  0.67694912  1
  O  O591  1  0.92656264  0.14516236  0.92426780  1
  O  O592  1  0.92654598  0.47972854  0.17495043  1
  O  O593  1  0.92720409  0.48112246  0.42582431  1
  O  O594  1  0.92683157  0.47955227  0.67588841  1
  O  O595  1  0.92639606  0.47818829  0.92501814  1
  O  O596  1  0.92703705  0.81531150  0.17576343  1
  O  O597  1  0.92596578  0.81258243  0.42624687  1
  O  O598  1  0.92631131  0.81472418  0.67633407  1
  O  O599  1  0.92619190  0.81248652  0.92545779  1
  O  O600  1  0.07279800  0.18785178  0.07501877  1
  O  O601  1  0.07236488  0.18744739  0.32479476  1
  O  O602  1  0.07335989  0.18626445  0.57614908  1
  O  O603  1  0.07104845  0.18548570  0.82357144  1
  O  O604  1  0.07330881  0.52104122  0.07514095  1
  O  O605  1  0.07391422  0.52005421  0.32572726  1
  O  O606  1  0.07179035  0.51958398  0.57384020  1
  O  O607  1  0.07379571  0.51959968  0.82613631  1
  O  O608  1  0.07299247  0.85477862  0.07396506  1
  O  O609  1  0.07250198  0.85194025  0.32472441  1
  O  O610  1  0.07284643  0.85505953  0.57582194  1
  O  O611  1  0.07148770  0.85239029  0.82371904  1
  O  O612  1  0.57148099  0.18561410  0.07280340  1
  O  O613  1  0.57388056  0.18706152  0.32557049  1
  O  O614  1  0.57357644  0.18765962  0.57506543  1
  O  O615  1  0.57328803  0.18511572  0.82505320  1
  O  O616  1  0.57223489  0.51957137  0.07143345  1
  O  O617  1  0.57377930  0.51987464  0.32501436  1
  O  O618  1  0.57307118  0.52030650  0.57339151  1
  O  O619  1  0.57230132  0.51935064  0.82280766  1
  O  O620  1  0.57319886  0.85435491  0.07433686  1
  O  O621  1  0.57348208  0.85406777  0.32402952  1
  O  O622  1  0.57401252  0.85343997  0.57587886  1
  O  O623  1  0.57218937  0.85260713  0.82384300  1
  O  O624  1  0.32352851  0.18653894  0.04962248  1
  O  O625  1  0.32331502  0.18761463  0.30150655  1
  O  O626  1  0.32377193  0.18682516  0.55207317  1
  O  O627  1  0.32277274  0.18653376  0.80178552  1
  O  O628  1  0.32357072  0.51906516  0.04926834  1
  O  O629  1  0.32490706  0.52019495  0.29998644  1
  O  O630  1  0.32344119  0.51803885  0.55108173  1
  O  O631  1  0.32430790  0.51924282  0.79948248  1
  O  O632  1  0.32324834  0.85261476  0.05056694  1
  O  O633  1  0.32401753  0.85376820  0.30018749  1
  O  O634  1  0.32379802  0.85461152  0.55115385  1
  O  O635  1  0.32341273  0.85384580  0.79901109  1
  O  O636  1  0.82302925  0.18493421  0.05095927  1
  O  O637  1  0.82246866  0.18592686  0.30175549  1
  O  O638  1  0.82388515  0.18773629  0.55028127  1
  O  O639  1  0.82359059  0.18573101  0.79897327  1
  O  O640  1  0.82351098  0.52016639  0.04960848  1
  O  O641  1  0.82264798  0.52025359  0.30115863  1
  O  O642  1  0.82360469  0.51996882  0.54918931  1
  O  O643  1  0.82237059  0.51924821  0.80117303  1
  O  O644  1  0.82209824  0.85283310  0.05084657  1
  O  O645  1  0.82364744  0.85378468  0.29991343  1
  O  O646  1  0.82255526  0.85278883  0.55206597  1
  O  O647  1  0.82193276  0.85293322  0.80173774  1
  O  O648  1  0.17576529  0.14792337  0.20036437  1
  O  O649  1  0.17605824  0.14730279  0.45170193  1
  O  O650  1  0.17802374  0.14791954  0.69867174  1
  O  O651  1  0.17619654  0.14821088  0.94835005  1
  O  O652  1  0.17622785  0.48014906  0.20058695  1
  O  O653  1  0.17729514  0.47848146  0.45047750  1
  O  O654  1  0.17736856  0.47910180  0.69870820  1
  O  O655  1  0.17671087  0.47875279  0.94869272  1
  O  O656  1  0.17675031  0.81508885  0.19899324  1
  O  O657  1  0.17600937  0.81355943  0.45057572  1
  O  O658  1  0.17571197  0.81359396  0.70000575  1
  O  O659  1  0.17582007  0.81369197  0.94962513  1
  O  O660  1  0.67682227  0.14707829  0.19800673  1
  O  O661  1  0.67687431  0.14783665  0.44996235  1
  O  O662  1  0.67709629  0.14493699  0.70052289  1
  O  O663  1  0.67694013  0.14502603  0.94933565  1
  O  O664  1  0.67637063  0.48046913  0.20049964  1
  O  O665  1  0.67788797  0.47998626  0.44886787  1
  O  O666  1  0.67734079  0.47915624  0.69872225  1
  O  O667  1  0.67659202  0.48071081  0.94826358  1
  O  O668  1  0.67642860  0.81458375  0.19871781  1
  O  O669  1  0.67667617  0.81291717  0.44965600  1
  O  O670  1  0.67703948  0.81432648  0.69980756  1
  O  O671  1  0.67662862  0.81362306  0.94769471  1
