# generated using pymatgen
data_Na2MnFe(PO4)2
_symmetry_space_group_name_H-M   'P 1'
_cell_length_a   22.34636262
_cell_length_b   20.09756552
_cell_length_c   19.44857312
_cell_angle_alpha   90.00048027
_cell_angle_beta   90.04650278
_cell_angle_gamma   89.98610761
_symmetry_Int_Tables_number   1
_chemical_formula_structural   Na2MnFe(PO4)2
_chemical_formula_sum   'Na96 Mn48 Fe48 P96 O384'
_cell_volume   8734.49666843
_cell_formula_units_Z   48
loop_
 _symmetry_equiv_pos_site_id
 _symmetry_equiv_pos_as_xyz
  1  'x, y, z'
loop_
 _atom_site_type_symbol
 _atom_site_label
 _atom_site_symmetry_multiplicity
 _atom_site_fract_x
 _atom_site_fract_y
 _atom_site_fract_z
 _atom_site_occupancy
  Na  Na0  1  0.14002221  0.24951303  0.24346608  1
  Na  Na1  1  0.13998707  0.25027245  0.49216522  1
  Na  Na2  1  0.14043656  0.25007577  0.74279314  1
  Na  Na3  1  0.14052482  0.25034037  0.99483178  1
  Na  Na4  1  0.14033671  0.58326171  0.24330199  1
  Na  Na5  1  0.14052326  0.58451100  0.49334588  1
  Na  Na6  1  0.14114847  0.58345188  0.74355549  1
  Na  Na7  1  0.14069943  0.58501119  0.99485701  1
  Na  Na8  1  0.14096803  0.91675283  0.24506048  1
  Na  Na9  1  0.14066566  0.91744216  0.49451627  1
  Na  Na10  1  0.14049869  0.91579270  0.74334052  1
  Na  Na11  1  0.14077207  0.91721619  0.99436827  1
  Na  Na12  1  0.63924756  0.25123458  0.24299039  1
  Na  Na13  1  0.63903618  0.24978706  0.49268683  1
  Na  Na14  1  0.64000335  0.24964181  0.74340237  1
  Na  Na15  1  0.64014582  0.25046655  0.99359222  1
  Na  Na16  1  0.63963847  0.58175038  0.24325946  1
  Na  Na17  1  0.63942140  0.58288054  0.49373213  1
  Na  Na18  1  0.63966689  0.58374312  0.74268303  1
  Na  Na19  1  0.64026983  0.58286283  0.99305596  1
  Na  Na20  1  0.63980999  0.91627263  0.24355677  1
  Na  Na21  1  0.64025508  0.91593213  0.49510531  1
  Na  Na22  1  0.64033157  0.91513928  0.74430858  1
  Na  Na23  1  0.63956574  0.91647200  0.99267759  1
  Na  Na24  1  0.35991261  0.08312660  0.00625222  1
  Na  Na25  1  0.35994547  0.08355202  0.25689294  1
  Na  Na26  1  0.35962184  0.08435980  0.50653012  1
  Na  Na27  1  0.35912588  0.08287791  0.75553908  1
  Na  Na28  1  0.36022449  0.41780728  0.00672650  1
  Na  Na29  1  0.36045551  0.41645675  0.25750043  1
  Na  Na30  1  0.36004287  0.41699867  0.50742956  1
  Na  Na31  1  0.35999018  0.41604340  0.75611641  1
  Na  Na32  1  0.36031315  0.75076726  0.00750762  1
  Na  Na33  1  0.36003913  0.74943243  0.25672632  1
  Na  Na34  1  0.35997229  0.74939170  0.50776527  1
  Na  Na35  1  0.36038193  0.74882551  0.75740188  1
  Na  Na36  1  0.85937820  0.08402099  0.00599519  1
  Na  Na37  1  0.85953458  0.08453383  0.25653999  1
  Na  Na38  1  0.85975895  0.08298660  0.50659264  1
  Na  Na39  1  0.85906103  0.08310784  0.75594489  1
  Na  Na40  1  0.85939951  0.41625641  0.00618802  1
  Na  Na41  1  0.86028925  0.41634687  0.25562911  1
  Na  Na42  1  0.85973362  0.41634356  0.50469876  1
  Na  Na43  1  0.85957762  0.41685767  0.75452652  1
  Na  Na44  1  0.85984490  0.74944329  0.00580248  1
  Na  Na45  1  0.85954833  0.74923423  0.25571368  1
  Na  Na46  1  0.85936421  0.75051905  0.50753336  1
  Na  Na47  1  0.85985334  0.75131263  0.75624509  1
  Na  Na48  1  0.10998923  0.08371341  0.12037306  1
  Na  Na49  1  0.11018730  0.08395332  0.36907637  1
  Na  Na50  1  0.10928326  0.08478459  0.61703684  1
  Na  Na51  1  0.10948169  0.08340342  0.86924980  1
  Na  Na52  1  0.11011167  0.41750417  0.11920856  1
  Na  Na53  1  0.10932182  0.41683109  0.36751754  1
  Na  Na54  1  0.10985497  0.41674550  0.61733185  1
  Na  Na55  1  0.11022906  0.41716791  0.86921174  1
  Na  Na56  1  0.10981930  0.74960072  0.11941951  1
  Na  Na57  1  0.10965068  0.74889285  0.36966436  1
  Na  Na58  1  0.11036108  0.75164670  0.61860530  1
  Na  Na59  1  0.11030511  0.75033267  0.86884194  1
  Na  Na60  1  0.60877970  0.08409562  0.11818937  1
  Na  Na61  1  0.60877291  0.08382300  0.36875900  1
  Na  Na62  1  0.60937326  0.08321723  0.61846642  1
  Na  Na63  1  0.60911586  0.08195980  0.86797220  1
  Na  Na64  1  0.60987080  0.41726113  0.11839905  1
  Na  Na65  1  0.60881893  0.41515486  0.36792654  1
  Na  Na66  1  0.60833173  0.41606314  0.61840923  1
  Na  Na67  1  0.60948894  0.41637987  0.86840525  1
  Na  Na68  1  0.60874163  0.75091919  0.11792889  1
  Na  Na69  1  0.60914099  0.74836934  0.36985352  1
  Na  Na70  1  0.60996307  0.74895100  0.61868159  1
  Na  Na71  1  0.60918092  0.74897971  0.86809644  1
  Na  Na72  1  0.39130350  0.25137641  0.13201604  1
  Na  Na73  1  0.39063437  0.25054719  0.38227358  1
  Na  Na74  1  0.38965892  0.25082256  0.63097472  1
  Na  Na75  1  0.39046307  0.25001261  0.88024666  1
  Na  Na76  1  0.39050092  0.58394268  0.13226004  1
  Na  Na77  1  0.39049399  0.58148669  0.38211662  1
  Na  Na78  1  0.39108352  0.58305718  0.63234248  1
  Na  Na79  1  0.39049993  0.58256108  0.88196862  1
  Na  Na80  1  0.39055686  0.91795860  0.13139606  1
  Na  Na81  1  0.39069993  0.91606011  0.38178038  1
  Na  Na82  1  0.39017919  0.91494885  0.63242607  1
  Na  Na83  1  0.39049047  0.91478757  0.88229215  1
  Na  Na84  1  0.89056457  0.25089385  0.13149706  1
  Na  Na85  1  0.89036155  0.24990577  0.38048484  1
  Na  Na86  1  0.89031962  0.25047311  0.62939817  1
  Na  Na87  1  0.89032532  0.25072961  0.88115477  1
  Na  Na88  1  0.89100424  0.58250238  0.13138923  1
  Na  Na89  1  0.89048270  0.58242136  0.38000371  1
  Na  Na90  1  0.89052175  0.58536992  0.63047732  1
  Na  Na91  1  0.89068008  0.58353826  0.88029990  1
  Na  Na92  1  0.89047736  0.91688658  0.13045195  1
  Na  Na93  1  0.89073662  0.91652318  0.38218196  1
  Na  Na94  1  0.88991219  0.91787510  0.63205600  1
  Na  Na95  1  0.88997519  0.91637990  0.88129916  1
  Mn  Mn96  1  0.00043406  0.33362364  0.74935033  1
  Mn  Mn97  1  0.24954471  -0.00060098  0.87448199  1
  Mn  Mn98  1  0.49998091  0.66630662  0.25033069  1
  Mn  Mn99  1  0.00013221  0.16728388  0.74919113  1
  Mn  Mn100  1  0.00026074  0.33303978  -0.00010442  1
  Mn  Mn101  1  0.25089702  0.33441009  0.12504691  1
  Mn  Mn102  1  0.75020241  0.49937309  0.87391679  1
  Mn  Mn103  1  0.49993847  0.00003911  0.24998487  1
  Mn  Mn104  1  0.00022796  0.50050836  0.49903333  1
  Mn  Mn105  1  0.74909612  0.16754023  0.12495795  1
  Mn  Mn106  1  0.25028706  0.66614645  0.37563363  1
  Mn  Mn107  1  -0.00045608  0.00032177  0.74999383  1
  Mn  Mn108  1  0.74958786  0.66630883  0.37464631  1
  Mn  Mn109  1  0.00082374  0.83255147  0.00109626  1
  Mn  Mn110  1  0.25006116  0.49992899  0.62541825  1
  Mn  Mn111  1  0.50005177  -0.00023324  0.49998913  1
  Mn  Mn112  1  0.74997570  -0.00003713  0.12472216  1
  Mn  Mn113  1  0.75086616  0.66706400  0.87435363  1
  Mn  Mn114  1  0.74965581  0.16677983  0.87485844  1
  Mn  Mn115  1  0.74922039  0.33312172  0.62447092  1
  Mn  Mn116  1  0.25017534  0.00003211  0.62490774  1
  Mn  Mn117  1  0.00032656  0.00087930  0.25078097  1
  Mn  Mn118  1  0.25060202  0.66698768  0.87564932  1
  Mn  Mn119  1  0.50006546  0.50011336  -0.00018331  1
  Mn  Mn120  1  0.24988538  0.16690427  0.87494040  1
  Mn  Mn121  1  0.24974262  0.83356568  0.37539347  1
  Mn  Mn122  1  0.74869458  0.16732254  0.37522364  1
  Mn  Mn123  1  0.49990956  0.83158743  0.50066843  1
  Mn  Mn124  1  0.25099653  0.16620041  0.12508020  1
  Mn  Mn125  1  0.00107858  0.66830810  0.75033205  1
  Mn  Mn126  1  0.00042683  0.00087326  0.00081796  1
  Mn  Mn127  1  0.74893854  0.50026832  0.62463577  1
  Mn  Mn128  1  -0.00029169  0.83368057  0.49971165  1
  Mn  Mn129  1  0.74974369  0.83321981  0.37552974  1
  Mn  Mn130  1  0.50009545  0.16723776  -0.00070349  1
  Mn  Mn131  1  0.75013582  0.83320607  0.12461870  1
  Mn  Mn132  1  0.25066353  0.33437763  0.87495006  1
  Mn  Mn133  1  0.00008932  0.50064502  -0.00008055  1
  Mn  Mn134  1  0.74907874  0.66566798  0.12460713  1
  Mn  Mn135  1  0.00023162  0.83254519  0.25113735  1
  Mn  Mn136  1  0.00034502  0.50079956  0.74889670  1
  Mn  Mn137  1  0.49910848  -0.00119853  0.74946136  1
  Mn  Mn138  1  0.25046739  0.83401831  0.12611329  1
  Mn  Mn139  1  0.24971547  0.33375172  0.37505830  1
  Mn  Mn140  1  0.75004635  -0.00017955  0.37535107  1
  Mn  Mn141  1  0.75004767  0.49904645  0.37408613  1
  Mn  Mn142  1  0.75003064  0.16597530  0.62487604  1
  Mn  Mn143  1  0.49936365  0.16698517  0.74971395  1
  Fe  Fe144  1  0.50012945  0.83188041  0.75102783  1
  Fe  Fe145  1  0.00051334  0.33275182  0.24974252  1
  Fe  Fe146  1  0.25110724  0.00015217  0.37578575  1
  Fe  Fe147  1  0.50024864  0.66582560  0.75036542  1
  Fe  Fe148  1  0.50001588  0.33387392  0.00034168  1
  Fe  Fe149  1  0.74956435  0.33353124  0.37412139  1
  Fe  Fe150  1  0.74950624  -0.00034031  0.87502708  1
  Fe  Fe151  1  0.24908236  0.33355352  0.62481564  1
  Fe  Fe152  1  -0.00013449  0.33350805  0.49845070  1
  Fe  Fe153  1  -0.00051291  0.16680094  0.25058834  1
  Fe  Fe154  1  0.25027842  0.50020070  0.37572133  1
  Fe  Fe155  1  0.00006902  0.83420019  0.74990882  1
  Fe  Fe156  1  0.49979752  0.33330742  0.49983201  1
  Fe  Fe157  1  0.25101682  0.83303409  0.62519512  1
  Fe  Fe158  1  0.49992728  0.49968553  0.75000752  1
  Fe  Fe159  1  0.25043455  0.83320489  0.87543099  1
  Fe  Fe160  1  0.75027461  0.66705379  0.62447961  1
  Fe  Fe161  1  0.49965250  0.33367046  0.25071035  1
  Fe  Fe162  1  0.74960338  0.33326763  0.87482368  1
  Fe  Fe163  1  0.24989777  0.50056130  0.87527565  1
  Fe  Fe164  1  0.74953465  0.83332866  0.87449134  1
  Fe  Fe165  1  -0.00022227  0.16734465  0.49906260  1
  Fe  Fe166  1  0.49924843  0.66543240  0.50070879  1
  Fe  Fe167  1  0.49987192  0.83336912  0.24945169  1
  Fe  Fe168  1  0.49960599  0.16724397  0.24939052  1
  Fe  Fe169  1  0.50032940  0.33339655  0.74952090  1
  Fe  Fe170  1  0.00062997  0.49996113  0.24993353  1
  Fe  Fe171  1  -0.00033993  0.66631901  0.24982516  1
  Fe  Fe172  1  0.74908915  -0.00068289  0.62590100  1
  Fe  Fe173  1  0.49955068  -0.00018930  -0.00004387  1
  Fe  Fe174  1  0.25053111  0.66651872  0.62555408  1
  Fe  Fe175  1  0.00025973  0.16711080  0.00053018  1
  Fe  Fe176  1  0.50000652  0.49950557  0.25089535  1
  Fe  Fe177  1  -0.00016707  0.66703056  0.49971399  1
  Fe  Fe178  1  0.75029440  0.33348900  0.12436279  1
  Fe  Fe179  1  0.49927187  0.16714464  0.49956845  1
  Fe  Fe180  1  0.00012086  0.00058543  0.50031404  1
  Fe  Fe181  1  0.25032024  0.16678313  0.37505043  1
  Fe  Fe182  1  0.50003928  0.83312701  -0.00014214  1
  Fe  Fe183  1  0.00031307  0.66661442  0.00003193  1
  Fe  Fe184  1  0.50000935  0.49921281  0.50064190  1
  Fe  Fe185  1  0.25018588  0.66693390  0.12517002  1
  Fe  Fe186  1  0.75043739  0.49921586  0.12417431  1
  Fe  Fe187  1  0.75031698  0.83359266  0.62580733  1
  Fe  Fe188  1  0.25047589  0.50063502  0.12571846  1
  Fe  Fe189  1  0.25021585  0.00014644  0.12541588  1
  Fe  Fe190  1  0.50026955  0.66653024  0.00018989  1
  Fe  Fe191  1  0.24931416  0.16695102  0.62470040  1
  P  P192  1  0.04235163  0.24900581  0.10359203  1
  P  P193  1  0.04149239  0.24993036  0.35200837  1
  P  P194  1  0.04139284  0.25083292  0.60027031  1
  P  P195  1  0.04327540  0.25000911  0.85322915  1
  P  P196  1  0.04215674  0.58470535  0.10337540  1
  P  P197  1  0.04154640  0.58373683  0.35150607  1
  P  P198  1  0.04268835  0.58545678  0.60179317  1
  P  P199  1  0.04354567  0.58386439  0.85312691  1
  P  P200  1  0.04332093  0.91687595  0.10391918  1
  P  P201  1  0.04290776  0.91719345  0.35421142  1
  P  P202  1  0.04200197  0.91811021  0.60265913  1
  P  P203  1  0.04242908  0.91581698  0.85260634  1
  P  P204  1  0.54199128  0.25165149  0.10290319  1
  P  P205  1  0.54061022  0.24964317  0.35195784  1
  P  P206  1  0.54090865  0.25020559  0.60145459  1
  P  P207  1  0.54203805  0.25122656  0.85236632  1
  P  P208  1  0.54211411  0.58443053  0.10263854  1
  P  P209  1  0.54197083  0.58127995  0.35342830  1
  P  P210  1  0.54116790  0.58247048  0.60260676  1
  P  P211  1  0.54130654  0.58265829  0.85181795  1
  P  P212  1  0.54114879  0.91671501  0.10164563  1
  P  P213  1  0.54195312  0.91484452  0.35238262  1
  P  P214  1  0.54212194  0.91551744  0.60374269  1
  P  P215  1  0.54143698  0.91461347  0.85319181  1
  P  P216  1  0.45778713  0.08472197  0.14713028  1
  P  P217  1  0.45785129  0.08475032  0.39714396  1
  P  P218  1  0.45698213  0.08382441  0.64612529  1
  P  P219  1  0.45752052  0.08171024  0.89740569  1
  P  P220  1  0.45894313  0.41712138  0.14871554  1
  P  P221  1  0.45857369  0.41645887  0.39844058  1
  P  P222  1  0.45844507  0.41676912  0.64789883  1
  P  P223  1  0.45808210  0.41533535  0.89697978  1
  P  P224  1  0.45786781  0.75129455  0.14710284  1
  P  P225  1  0.45731285  0.74754626  0.39791783  1
  P  P226  1  0.45898370  0.74885007  0.64900171  1
  P  P227  1  0.45890784  0.74901111  0.89821844  1
  P  P228  1  0.95762331  0.08519682  0.14765500  1
  P  P229  1  0.95863595  0.08363498  0.39824842  1
  P  P230  1  0.95714540  0.08391544  0.64566462  1
  P  P231  1  0.95773054  0.08490226  0.89791120  1
  P  P232  1  0.95944821  0.41646018  0.14848772  1
  P  P233  1  0.95839939  0.41558629  0.39579543  1
  P  P234  1  0.95751903  0.41690160  0.64520577  1
  P  P235  1  0.95716385  0.41696816  0.89666638  1
  P  P236  1  0.95781463  0.74850941  0.14751227  1
  P  P237  1  0.95732030  0.74815887  0.39728908  1
  P  P238  1  0.95798534  0.75214788  0.64731138  1
  P  P239  1  0.95821241  0.74926938  0.89755108  1
  P  P240  1  0.20853571  0.08205122  0.22860606  1
  P  P241  1  0.20920319  0.08378047  0.47697886  1
  P  P242  1  0.20725737  0.08410855  0.72682665  1
  P  P243  1  0.20740517  0.08298400  0.97850889  1
  P  P244  1  0.20847059  0.41818797  0.22806018  1
  P  P245  1  0.20767779  0.41799651  0.47774927  1
  P  P246  1  0.20741864  0.41579100  0.72763164  1
  P  P247  1  0.20837019  0.41908903  0.97823136  1
  P  P248  1  0.20803097  0.74865693  0.22778539  1
  P  P249  1  0.20788446  0.75012555  0.47933982  1
  P  P250  1  0.20926381  0.74987364  0.72709599  1
  P  P251  1  0.20834337  0.75153011  0.97814015  1
  P  P252  1  0.70656072  0.08360468  0.22800213  1
  P  P253  1  0.70662807  0.08271606  0.47877389  1
  P  P254  1  0.70726979  0.08148364  0.72802317  1
  P  P255  1  0.70711367  0.08235478  0.97697904  1
  P  P256  1  0.70872538  0.41613354  0.22610026  1
  P  P257  1  0.70688157  0.41538910  0.47666594  1
  P  P258  1  0.70644412  0.41624108  0.72808276  1
  P  P259  1  0.70790182  0.41543543  0.97765536  1
  P  P260  1  0.70630645  0.74963205  0.22782302  1
  P  P261  1  0.70736355  0.74956636  0.47933529  1
  P  P262  1  0.70902460  0.75012210  0.72670027  1
  P  P263  1  0.70752952  0.75081974  0.97671242  1
  P  P264  1  0.29357825  0.25059674  0.02205340  1
  P  P265  1  0.29228387  0.24914624  0.27305812  1
  P  P266  1  0.29058196  0.25035202  0.52300392  1
  P  P267  1  0.29230969  0.25018207  0.77078262  1
  P  P268  1  0.29197589  0.58370344  0.02369077  1
  P  P269  1  0.29227588  0.58165550  0.27249877  1
  P  P270  1  0.29264494  0.58418350  0.52318085  1
  P  P271  1  0.29245327  0.58228528  0.77280138  1
  P  P272  1  0.29243286  0.91779728  0.02275774  1
  P  P273  1  0.29266715  0.91807093  0.27298426  1
  P  P274  1  0.29271146  0.91597396  0.52270529  1
  P  P275  1  0.29247730  0.91433513  0.77225797  1
  P  P276  1  0.79206172  0.25134352  0.02196003  1
  P  P277  1  0.79160871  0.25170225  0.27188345  1
  P  P278  1  0.79211381  0.25008030  0.52096040  1
  P  P279  1  0.79220722  0.25100127  0.77239740  1
  P  P280  1  0.79238465  0.58180785  0.02205210  1
  P  P281  1  0.79241078  0.58246512  0.27076075  1
  P  P282  1  0.79191284  0.58402740  0.52220610  1
  P  P283  1  0.79271109  0.58392765  0.77061505  1
  P  P284  1  0.79253384  0.91667203  0.02058352  1
  P  P285  1  0.79326616  0.91647081  0.27206115  1
  P  P286  1  0.79140386  0.91690831  0.52421182  1
  P  P287  1  0.79109374  0.91672194  0.77295400  1
  O  O288  1  0.03672955  0.24932290  0.18347375  1
  O  O289  1  0.03620875  0.25025878  0.43188566  1
  O  O290  1  0.03703566  0.25050351  0.68028943  1
  O  O291  1  0.03844472  0.24948625  0.93323303  1
  O  O292  1  0.03654586  0.58435374  0.18323660  1
  O  O293  1  0.03683706  0.58376130  0.43145596  1
  O  O294  1  0.03791528  0.58517676  0.68175339  1
  O  O295  1  0.03834938  0.58404299  0.93308813  1
  O  O296  1  0.03814107  0.91683109  0.18385532  1
  O  O297  1  0.03739239  0.91771879  0.43413511  1
  O  O298  1  0.03675160  0.91743769  0.68261290  1
  O  O299  1  0.03778626  0.91593591  0.93259389  1
  O  O300  1  0.53645273  0.25106712  0.18275548  1
  O  O301  1  0.53557626  0.24966005  0.43182878  1
  O  O302  1  0.53625189  0.25100463  0.68140331  1
  O  O303  1  0.53683925  0.25118354  0.93229238  1
  O  O304  1  0.53710150  0.58399479  0.18249222  1
  O  O305  1  0.53659113  0.58111002  0.43326614  1
  O  O306  1  0.53589693  0.58222765  0.68249053  1
  O  O307  1  0.53661503  0.58355917  0.93176526  1
  O  O308  1  0.53621670  0.91625629  0.18164052  1
  O  O309  1  0.53672037  0.91502638  0.43231278  1
  O  O310  1  0.53676356  0.91509893  0.68364498  1
  O  O311  1  0.53594428  0.91512574  0.93308269  1
  O  O312  1  0.46328819  0.08406213  0.06723296  1
  O  O313  1  0.46325630  0.08482527  0.31719009  1
  O  O314  1  0.46234805  0.08433666  0.56618918  1
  O  O315  1  0.46248477  0.08171531  0.81743506  1
  O  O316  1  0.46349474  0.41682355  0.06876422  1
  O  O317  1  0.46344762  0.41637357  0.31857209  1
  O  O318  1  0.46383721  0.41726501  0.56804150  1
  O  O319  1  0.46332221  0.41550273  0.81714513  1
  O  O320  1  0.46340634  0.75111902  0.06727264  1
  O  O321  1  0.46237715  0.74815451  0.31807137  1
  O  O322  1  0.46338810  0.74801934  0.56905541  1
  O  O323  1  0.46403390  0.74902756  0.81832645  1
  O  O324  1  0.96297217  0.08529321  0.06773308  1
  O  O325  1  0.96336892  0.08408239  0.31826285  1
  O  O326  1  0.96237399  0.08355327  0.56575317  1
  O  O327  1  0.96276204  0.08447402  0.81790462  1
  O  O328  1  0.96405537  0.41679453  0.06851118  1
  O  O329  1  0.96426708  0.41567856  0.31596625  1
  O  O330  1  0.96275401  0.41646565  0.56521068  1
  O  O331  1  0.96212493  0.41702056  0.81666394  1
  O  O332  1  0.96329845  0.74837589  0.06758517  1
  O  O333  1  0.96252651  0.74809986  0.31735201  1
  O  O334  1  0.96268578  0.75157189  0.56737826  1
  O  O335  1  0.96349317  0.75051407  0.81762205  1
  O  O336  1  0.21283077  0.08255068  0.05845419  1
  O  O337  1  0.21419570  0.08241343  0.30848455  1
  O  O338  1  0.21386898  0.08462862  0.55697918  1
  O  O339  1  0.21212287  0.08379152  0.80680269  1
  O  O340  1  0.21398816  0.41926319  0.05817803  1
  O  O341  1  0.21339201  0.41814035  0.30804854  1
  O  O342  1  0.21257581  0.41707542  0.55772362  1
  O  O343  1  0.21264843  0.41642989  0.80755627  1
  O  O344  1  0.21345400  0.75110717  0.05803972  1
  O  O345  1  0.21311499  0.74860850  0.30772859  1
  O  O346  1  0.21342231  0.75003950  0.55924122  1
  O  O347  1  0.21425843  0.75017416  0.80712389  1
  O  O348  1  0.71192665  0.08282877  0.05697687  1
  O  O349  1  0.71149453  0.08366451  0.30801601  1
  O  O350  1  0.71176903  0.08223242  0.55877269  1
  O  O351  1  0.71280256  0.08157756  0.80795738  1
  O  O352  1  0.71369107  0.41594816  0.05754685  1
  O  O353  1  0.71348954  0.41574818  0.30610098  1
  O  O354  1  0.71154183  0.41589907  0.55663252  1
  O  O355  1  0.71176455  0.41577476  0.80801283  1
  O  O356  1  0.71234896  0.75031688  0.05667415  1
  O  O357  1  0.71139754  0.74967236  0.30785559  1
  O  O358  1  0.71299630  0.74949066  0.55926820  1
  O  O359  1  0.71387846  0.75060852  0.80668118  1
  O  O360  1  0.28791074  0.24947001  0.19307416  1
  O  O361  1  0.28566380  0.24986562  0.44299041  1
  O  O362  1  0.28651292  0.25018777  0.69085599  1
  O  O363  1  0.28838520  0.25086129  0.94209728  1
  O  O364  1  0.28700067  0.58170057  0.19262506  1
  O  O365  1  0.28765394  0.58369086  0.44324796  1
  O  O366  1  0.28721550  0.58303504  0.69289428  1
  O  O367  1  0.28686627  0.58334196  0.94370019  1
  O  O368  1  0.28731637  0.91816804  0.19302912  1
  O  O369  1  0.28753357  0.91665063  0.44277402  1
  O  O370  1  0.28745961  0.91389039  0.69226882  1
  O  O371  1  0.28710086  0.91696224  0.94281534  1
  O  O372  1  0.78653953  0.25173467  0.19188965  1
  O  O373  1  0.78678338  0.25062327  0.44099719  1
  O  O374  1  0.78690285  0.25017776  0.69243391  1
  O  O375  1  0.78685503  0.25125894  0.94201007  1
  O  O376  1  0.78713138  0.58191888  0.19081627  1
  O  O377  1  0.78704481  0.58360552  0.44217411  1
  O  O378  1  0.78717485  0.58462857  0.69070163  1
  O  O379  1  0.78758142  0.58211825  0.94202229  1
  O  O380  1  0.78843419  0.91649293  0.19203953  1
  O  O381  1  0.78693464  0.91644824  0.44419527  1
  O  O382  1  0.78566839  0.91677348  0.69304079  1
  O  O383  1  0.78710496  0.91663918  0.94064716  1
  O  O384  1  0.22923652  0.25042592  0.05718050  1
  O  O385  1  0.22782184  0.24947583  0.30794677  1
  O  O386  1  0.22643063  0.25080724  0.55890235  1
  O  O387  1  0.22824059  0.25060046  0.80680463  1
  O  O388  1  0.22787582  0.58395336  0.05975495  1
  O  O389  1  0.22809391  0.58149451  0.30854946  1
  O  O390  1  0.22833659  0.58472988  0.55866320  1
  O  O391  1  0.22823650  0.58253605  0.80856536  1
  O  O392  1  0.22828504  0.91809452  0.05874966  1
  O  O393  1  0.22845815  0.91857729  0.30879426  1
  O  O394  1  0.22848925  0.91563821  0.55838086  1
  O  O395  1  0.22813345  0.91438638  0.80772527  1
  O  O396  1  0.72775182  0.25188701  0.05754513  1
  O  O397  1  0.72726312  0.25200261  0.30740970  1
  O  O398  1  0.72778025  0.24939748  0.55621431  1
  O  O399  1  0.72786481  0.25130423  0.80789639  1
  O  O400  1  0.72794543  0.58098065  0.05719514  1
  O  O401  1  0.72810430  0.58249260  0.30611072  1
  O  O402  1  0.72751290  0.58451082  0.55736755  1
  O  O403  1  0.72849156  0.58367208  0.80614760  1
  O  O404  1  0.72821416  0.91660897  0.05606707  1
  O  O405  1  0.72864290  0.91650357  0.30659000  1
  O  O406  1  0.72712732  0.91690632  0.55963968  1
  O  O407  1  0.72711085  0.91642671  0.80947178  1
  O  O408  1  0.27259793  0.08146474  0.19220570  1
  O  O409  1  0.27335608  0.08335288  0.44118010  1
  O  O410  1  0.27166095  0.08438986  0.69167947  1
  O  O411  1  0.27162726  0.08291557  0.94294255  1
  O  O412  1  0.27282296  0.41835270  0.19269214  1
  O  O413  1  0.27206936  0.41812026  0.44240987  1
  O  O414  1  0.27167232  0.41500457  0.69191218  1
  O  O415  1  0.27251417  0.41917247  0.94220067  1
  O  O416  1  0.27230282  0.74872192  0.19227491  1
  O  O417  1  0.27203525  0.75018085  0.44359937  1
  O  O418  1  0.27345962  0.74930761  0.69124345  1
  O  O419  1  0.27262980  0.75162595  0.94245163  1
  O  O420  1  0.77104457  0.08391456  0.19317581  1
  O  O421  1  0.77100806  0.08357055  0.44359296  1
  O  O422  1  0.77144158  0.08127623  0.69208091  1
  O  O423  1  0.77150570  0.08240681  0.94182522  1
  O  O424  1  0.77295014  0.41654386  0.19030261  1
  O  O425  1  0.77141562  0.41470298  0.44168866  1
  O  O426  1  0.77076500  0.41670579  0.69282029  1
  O  O427  1  0.77197154  0.41482764  0.94132592  1
  O  O428  1  0.77080095  0.74924780  0.19299305  1
  O  O429  1  0.77156084  0.74964757  0.44356452  1
  O  O430  1  0.77312535  0.74976208  0.69082159  1
  O  O431  1  0.77197089  0.75159247  0.94158667  1
  O  O432  1  0.02187042  0.08550340  0.18354551  1
  O  O433  1  0.02281226  0.08311711  0.43411783  1
  O  O434  1  0.02146049  0.08365063  0.68124469  1
  O  O435  1  0.02208560  0.08553722  0.93351147  1
  O  O436  1  0.02359440  0.41589233  0.18426893  1
  O  O437  1  0.02239272  0.41564855  0.43232556  1
  O  O438  1  0.02189832  0.41698256  0.68059217  1
  O  O439  1  0.02161559  0.41695379  0.93171120  1
  O  O440  1  0.02204240  0.74836747  0.18346557  1
  O  O441  1  0.02167621  0.74865159  0.43287573  1
  O  O442  1  0.02242085  0.75290286  0.68269994  1
  O  O443  1  0.02250366  0.74820065  0.93338830  1
  O  O444  1  0.52189810  0.08503034  0.18330194  1
  O  O445  1  0.52198692  0.08503597  0.43320262  1
  O  O446  1  0.52120562  0.08327970  0.68172479  1
  O  O447  1  0.52181133  0.08165507  0.93300277  1
  O  O448  1  0.52307158  0.41721781  0.18463063  1
  O  O449  1  0.52265937  0.41668641  0.43461580  1
  O  O450  1  0.52238508  0.41696049  0.68466654  1
  O  O451  1  0.52221271  0.41525231  0.93324910  1
  O  O452  1  0.52194218  0.75121982  0.18349579  1
  O  O453  1  0.52158176  0.74695984  0.43376673  1
  O  O454  1  0.52323066  0.74982427  0.68467050  1
  O  O455  1  0.52294958  0.74878485  0.93459942  1
  O  O456  1  0.47793562  0.25175134  0.06649474  1
  O  O457  1  0.47661337  0.24935423  0.31552373  1
  O  O458  1  0.47672293  0.24981597  0.56553221  1
  O  O459  1  0.47779813  0.25153378  0.81652192  1
  O  O460  1  0.47783476  0.58486509  0.06687434  1
  O  O461  1  0.47785003  0.58136894  0.31716869  1
  O  O462  1  0.47717091  0.58236203  0.56599642  1
  O  O463  1  0.47715055  0.58195902  0.81595125  1
  O  O464  1  0.47704974  0.91705033  0.06554635  1
  O  O465  1  0.47769445  0.91508318  0.31664474  1
  O  O466  1  0.47788985  0.91564900  0.56815697  1
  O  O467  1  0.47735031  0.91390298  0.81688699  1
  O  O468  1  0.97824937  0.24866811  0.06717953  1
  O  O469  1  0.97744610  0.25009840  0.31553091  1
  O  O470  1  0.97709993  0.25129188  0.56480754  1
  O  O471  1  0.97877565  0.25037423  0.81819561  1
  O  O472  1  0.97810183  0.58525507  0.06687451  1
  O  O473  1  0.97738233  0.58377972  0.31563223  1
  O  O474  1  0.97823987  0.58512211  0.56652551  1
  O  O475  1  0.97916872  0.58410466  0.81782204  1
  O  O476  1  0.97899023  0.91664255  0.06864305  1
  O  O477  1  0.97863049  0.91677708  0.31871569  1
  O  O478  1  0.97776787  0.91859615  0.56685327  1
  O  O479  1  0.97795117  0.91559474  0.81735770  1
  O  O480  1  0.07344828  0.31268109  0.07559917  1
  O  O481  1  0.07279638  0.31323370  0.32346164  1
  O  O482  1  0.07254562  0.31422717  0.57217158  1
  O  O483  1  0.07413154  0.31369532  0.82512140  1
  O  O484  1  0.07333543  0.64793890  0.07475744  1
  O  O485  1  0.07283301  0.64702294  0.32326070  1
  O  O486  1  0.07285278  0.64932424  0.57340674  1
  O  O487  1  0.07499170  0.64709482  0.82491684  1
  O  O488  1  0.07404235  0.98049895  0.07576474  1
  O  O489  1  0.07409733  0.98040665  0.32578782  1
  O  O490  1  0.07293710  0.98171231  0.57452054  1
  O  O491  1  0.07325247  0.97954468  0.82468076  1
  O  O492  1  0.57268291  0.31528624  0.07449665  1
  O  O493  1  0.57099918  0.31365144  0.32347726  1
  O  O494  1  0.57143685  0.31380853  0.57242874  1
  O  O495  1  0.57319566  0.31427508  0.82354974  1
  O  O496  1  0.57299891  0.64787547  0.07409903  1
  O  O497  1  0.57329469  0.64474777  0.32550423  1
  O  O498  1  0.57173426  0.64632571  0.57433898  1
  O  O499  1  0.57175746  0.64632536  0.82275439  1
  O  O500  1  0.57194699  0.98059528  0.07385221  1
  O  O501  1  0.57317709  0.97845291  0.32474991  1
  O  O502  1  0.57305731  0.97916656  0.57572921  1
  O  O503  1  0.57228740  0.97823088  0.82493956  1
  O  O504  1  0.42670994  0.02127689  0.17538090  1
  O  O505  1  0.42719721  0.02070081  0.42463450  1
  O  O506  1  0.42561370  0.02030973  0.67380234  1
  O  O507  1  0.42675457  0.01826581  0.92595207  1
  O  O508  1  0.42813212  0.35362113  0.17750241  1
  O  O509  1  0.42806133  0.35260065  0.42709143  1
  O  O510  1  0.42781159  0.35279362  0.67565576  1
  O  O511  1  0.42713577  0.35213671  0.92601759  1
  O  O512  1  0.42654221  0.68787533  0.17516875  1
  O  O513  1  0.42657345  0.68400957  0.42650890  1
  O  O514  1  0.42885976  0.68502384  0.67804988  1
  O  O515  1  0.42773287  0.68555505  0.92660303  1
  O  O516  1  0.92687561  0.02124478  0.17530032  1
  O  O517  1  0.92745183  0.02015525  0.42631921  1
  O  O518  1  0.92578973  0.02090254  0.67472879  1
  O  O519  1  0.92725910  0.02089974  0.92568386  1
  O  O520  1  0.92809852  0.35301568  0.17620636  1
  O  O521  1  0.92739615  0.35218957  0.42432098  1
  O  O522  1  0.92623657  0.35377354  0.67380457  1
  O  O523  1  0.92625206  0.35354991  0.92506092  1
  O  O524  1  0.92659828  0.68533351  0.17602592  1
  O  O525  1  0.92683070  0.68468674  0.42618539  1
  O  O526  1  0.92723942  0.68854299  0.67555948  1
  O  O527  1  0.92720355  0.68557646  0.92528368  1
  O  O528  1  0.17724267  0.01882361  0.20004533  1
  O  O529  1  0.17842086  0.01984267  0.44945012  1
  O  O530  1  0.17655229  0.02027883  0.69891782  1
  O  O531  1  0.17600976  0.01987973  0.94985882  1
  O  O532  1  0.17773926  0.35427173  0.20020301  1
  O  O533  1  0.17638768  0.35483976  0.44906322  1
  O  O534  1  0.17632721  0.35248307  0.69903421  1
  O  O535  1  0.17735694  0.35521013  0.95084598  1
  O  O536  1  0.17746126  0.68519240  0.19898697  1
  O  O537  1  0.17665299  0.68682344  0.45078050  1
  O  O538  1  0.17827185  0.68612389  0.69918798  1
  O  O539  1  0.17717863  0.68810066  0.94995837  1
  O  O540  1  0.67581011  0.01999509  0.19983041  1
  O  O541  1  0.67584383  0.01925728  0.45019698  1
  O  O542  1  0.67608588  0.01822202  0.69957619  1
  O  O543  1  0.67660707  0.01871158  0.94848450  1
  O  O544  1  0.67792780  0.35260492  0.19759850  1
  O  O545  1  0.67601406  0.35198948  0.44812669  1
  O  O546  1  0.67532549  0.35300301  0.69948500  1
  O  O547  1  0.67667652  0.35211227  0.94928450  1
  O  O548  1  0.67511680  0.68623526  0.19971815  1
  O  O549  1  0.67607734  0.68632459  0.45077700  1
  O  O550  1  0.67803628  0.68640690  0.69877913  1
  O  O551  1  0.67704836  0.68688614  0.94867333  1
  O  O552  1  0.32443918  0.31412819  0.05039780  1
  O  O553  1  0.32358552  0.31253735  0.30114674  1
  O  O554  1  0.32145950  0.31420128  0.55079684  1
  O  O555  1  0.32394865  0.31330508  0.79915079  1
  O  O556  1  0.32244937  0.64777574  0.05163130  1
  O  O557  1  0.32341194  0.64534803  0.30030640  1
  O  O558  1  0.32347226  0.64762648  0.55184487  1
  O  O559  1  0.32407318  0.64532682  0.80125502  1
  O  O560  1  0.32306337  0.98153507  0.05088631  1
  O  O561  1  0.32403407  0.98104115  0.30181164  1
  O  O562  1  0.32384020  0.97945437  0.55087137  1
  O  O563  1  0.32323553  0.97842694  0.79955597  1
  O  O564  1  0.82341408  0.31438430  0.05076027  1
  O  O565  1  0.82268100  0.31494557  0.30052587  1
  O  O566  1  0.82311553  0.31344195  0.54940347  1
  O  O567  1  0.82290726  0.31467054  0.80036232  1
  O  O568  1  0.82277455  0.64578485  0.04988907  1
  O  O569  1  0.82331662  0.64608030  0.29875490  1
  O  O570  1  0.82279740  0.64747100  0.55068229  1
  O  O571  1  0.82412366  0.64701284  0.79926126  1
  O  O572  1  0.82366551  0.98009848  0.04906515  1
  O  O573  1  0.82416554  0.97998608  0.30038693  1
  O  O574  1  0.82208713  0.98067171  0.55215695  1
  O  O575  1  0.82190740  0.98042316  0.80129575  1
  O  O576  1  0.42686475  0.14834934  0.17515662  1
  O  O577  1  0.42660378  0.14791739  0.42578745  1
  O  O578  1  0.42600383  0.14714822  0.67478134  1
  O  O579  1  0.42658126  0.14556633  0.92480901  1
  O  O580  1  0.42823637  0.48091121  0.17692822  1
  O  O581  1  0.42723098  0.47962774  0.42707538  1
  O  O582  1  0.42720927  0.48004949  0.67663954  1
  O  O583  1  0.42711607  0.47903829  0.92523329  1
  O  O584  1  0.42715863  0.81488413  0.17583244  1
  O  O585  1  0.42633735  0.81112502  0.42614387  1
  O  O586  1  0.42765149  0.81228173  0.67697184  1
  O  O587  1  0.42823653  0.81273159  0.92679652  1
  O  O588  1  0.92639526  0.14830587  0.17648083  1
  O  O589  1  0.92825050  0.14762915  0.42652295  1
  O  O590  1  0.92621557  0.14758117  0.67374810  1
  O  O591  1  0.92668278  0.14825961  0.92617855  1
  O  O592  1  0.92923544  0.48048946  0.17680355  1
  O  O593  1  0.92699864  0.47911770  0.42361515  1
  O  O594  1  0.92676397  0.48075902  0.67301229  1
  O  O595  1  0.92615360  0.48041863  0.92487519  1
  O  O596  1  0.92700588  0.81244681  0.17516241  1
  O  O597  1  0.92607994  0.81180891  0.42499010  1
  O  O598  1  0.92721736  0.81567373  0.67594878  1
  O  O599  1  0.92734070  0.81268906  0.92615566  1
  O  O600  1  0.07345052  0.18568726  0.07505842  1
  O  O601  1  0.07220432  0.18606303  0.32397016  1
  O  O602  1  0.07154475  0.18680076  0.57177486  1
  O  O603  1  0.07428942  0.18682059  0.82427345  1
  O  O604  1  0.07307949  0.52091766  0.07550386  1
  O  O605  1  0.07187560  0.51966297  0.32315679  1
  O  O606  1  0.07395381  0.52204910  0.57375800  1
  O  O607  1  0.07423238  0.52025262  0.82466100  1
  O  O608  1  0.07464238  0.85349225  0.07600557  1
  O  O609  1  0.07403205  0.85346776  0.32662126  1
  O  O610  1  0.07319086  0.85472117  0.57448268  1
  O  O611  1  0.07308394  0.85233158  0.82386532  1
  O  O612  1  0.57336018  0.18829263  0.07453301  1
  O  O613  1  0.57208244  0.18650935  0.32337236  1
  O  O614  1  0.57191090  0.18650218  0.57363952  1
  O  O615  1  0.57264761  0.18715542  0.82463949  1
  O  O616  1  0.57296637  0.52085927  0.07425451  1
  O  O617  1  0.57274044  0.51788666  0.32424563  1
  O  O618  1  0.57243719  0.51910726  0.57418484  1
  O  O619  1  0.57252564  0.51912908  0.82398705  1
  O  O620  1  0.57200008  0.85320728  0.07302252  1
  O  O621  1  0.57240415  0.85112591  0.32401434  1
  O  O622  1  0.57344882  0.85229678  0.57545224  1
  O  O623  1  0.57271615  0.85123457  0.82485003  1
  O  O624  1  0.32471760  0.18709659  0.04990117  1
  O  O625  1  0.32248333  0.18537802  0.30175774  1
  O  O626  1  0.32129695  0.18674399  0.55155153  1
  O  O627  1  0.32336650  0.18660406  0.79903567  1
  O  O628  1  0.32313353  0.52036733  0.05216953  1
  O  O629  1  0.32313372  0.51837393  0.30173010  1
  O  O630  1  0.32359009  0.52057284  0.55128707  1
  O  O631  1  0.32261530  0.51825447  0.80099788  1
  O  O632  1  0.32375462  0.85448176  0.05106749  1
  O  O633  1  0.32318634  0.85389558  0.30047401  1
  O  O634  1  0.32352652  0.85235073  0.55107956  1
  O  O635  1  0.32338369  0.85127582  0.80168289  1
  O  O636  1  0.82251422  0.18733027  0.04989187  1
  O  O637  1  0.82232249  0.18784537  0.29984313  1
  O  O638  1  0.82339990  0.18663130  0.54897778  1
  O  O639  1  0.82321346  0.18734976  0.80035649  1
  O  O640  1  0.82353941  0.51848914  0.05046473  1
  O  O641  1  0.82370935  0.51926208  0.29933014  1
  O  O642  1  0.82270787  0.52016898  0.54987525  1
  O  O643  1  0.82383356  0.52023473  0.79824675  1
  O  O644  1  0.82384527  0.85338181  0.04913695  1
  O  O645  1  0.82410903  0.85297909  0.30046312  1
  O  O646  1  0.82208427  0.85324843  0.55285250  1
  O  O647  1  0.82220115  0.85312744  0.80114359  1
  O  O648  1  0.17770632  0.14585720  0.20048603  1
  O  O649  1  0.17857585  0.14734548  0.44795679  1
  O  O650  1  0.17641307  0.14752133  0.69814761  1
  O  O651  1  0.17652520  0.14677094  0.95071874  1
  O  O652  1  0.17741854  0.48132830  0.19916249  1
  O  O653  1  0.17731741  0.48192021  0.44959281  1
  O  O654  1  0.17654011  0.47946392  0.69953752  1
  O  O655  1  0.17735609  0.48240949  0.94955935  1
  O  O656  1  0.17687050  0.81244443  0.20056550  1
  O  O657  1  0.17652722  0.81344591  0.45096183  1
  O  O658  1  0.17862124  0.81349094  0.69847601  1
  O  O659  1  0.17775062  0.81513507  0.94946268  1
  O  O660  1  0.67543005  0.14702690  0.19980499  1
  O  O661  1  0.67520366  0.14609256  0.45071540  1
  O  O662  1  0.67640839  0.14539940  0.70033565  1
  O  O663  1  0.67588527  0.14590012  0.94905887  1
  O  O664  1  0.67792471  0.47989827  0.19794897  1
  O  O665  1  0.67639361  0.47920320  0.44846675  1
  O  O666  1  0.67536871  0.47985763  0.70013520  1
  O  O667  1  0.67688228  0.47909377  0.94946758  1
  O  O668  1  0.67563898  0.81325232  0.19953313  1
  O  O669  1  0.67614191  0.81307532  0.45117873  1
  O  O670  1  0.67835242  0.81379636  0.69811732  1
  O  O671  1  0.67643794  0.81409616  0.94822304  1
