# generated using pymatgen
data_Na2MnFe(PO4)2
_symmetry_space_group_name_H-M   'P 1'
_cell_length_a   22.34567614
_cell_length_b   20.09775784
_cell_length_c   19.44693841
_cell_angle_alpha   90.01164956
_cell_angle_beta   89.96957164
_cell_angle_gamma   90.01666504
_symmetry_Int_Tables_number   1
_chemical_formula_structural   Na2MnFe(PO4)2
_chemical_formula_sum   'Na96 Mn48 Fe48 P96 O384'
_cell_volume   8733.57913099
_cell_formula_units_Z   48
loop_
 _symmetry_equiv_pos_site_id
 _symmetry_equiv_pos_as_xyz
  1  'x, y, z'
loop_
 _atom_site_type_symbol
 _atom_site_label
 _atom_site_symmetry_multiplicity
 _atom_site_fract_x
 _atom_site_fract_y
 _atom_site_fract_z
 _atom_site_occupancy
  Na  Na0  1  0.14045464  0.25017013  0.24488398  1
  Na  Na1  1  0.14065619  0.24998678  0.49381266  1
  Na  Na2  1  0.13998929  0.24971601  0.74433512  1
  Na  Na3  1  0.14059727  0.24933444  0.99452513  1
  Na  Na4  1  0.14017934  0.58254200  0.24373117  1
  Na  Na5  1  0.14047173  0.58280217  0.49261820  1
  Na  Na6  1  0.13983477  0.58424271  0.74500888  1
  Na  Na7  1  0.13983811  0.58370355  0.99390872  1
  Na  Na8  1  0.14002161  0.91563775  0.24275528  1
  Na  Na9  1  0.14059990  0.91658091  0.49264560  1
  Na  Na10  1  0.14061036  0.91794191  0.74510774  1
  Na  Na11  1  0.13978562  0.91579680  0.99373782  1
  Na  Na12  1  0.64083386  0.24994439  0.24466751  1
  Na  Na13  1  0.64131626  0.25014338  0.49292426  1
  Na  Na14  1  0.64068315  0.25180301  0.74338072  1
  Na  Na15  1  0.64056604  0.24935626  0.99310792  1
  Na  Na16  1  0.63999279  0.58378756  0.24400458  1
  Na  Na17  1  0.64057573  0.58248899  0.49213496  1
  Na  Na18  1  0.64049886  0.58364228  0.74366892  1
  Na  Na19  1  0.64029049  0.58204426  0.99440482  1
  Na  Na20  1  0.64000448  0.91652502  0.24366662  1
  Na  Na21  1  0.64070134  0.91660950  0.49108776  1
  Na  Na22  1  0.64103952  0.91838254  0.74354699  1
  Na  Na23  1  0.64046636  0.91605206  0.99395293  1
  Na  Na24  1  0.35950265  0.08342969  0.00641378  1
  Na  Na25  1  0.35945363  0.08325632  0.25663015  1
  Na  Na26  1  0.35984117  0.08337581  0.50476806  1
  Na  Na27  1  0.35999206  0.08401499  0.75471344  1
  Na  Na28  1  0.35947066  0.41678973  0.00679421  1
  Na  Na29  1  0.35912591  0.41638961  0.25808296  1
  Na  Na30  1  0.36032110  0.41615930  0.50633076  1
  Na  Na31  1  0.36024450  0.41757777  0.75619983  1
  Na  Na32  1  0.36011768  0.75000617  0.00639771  1
  Na  Na33  1  0.35976761  0.74880759  0.25719933  1
  Na  Na34  1  0.35978365  0.75018246  0.50410253  1
  Na  Na35  1  0.35983917  0.75133414  0.75559882  1
  Na  Na36  1  0.85904643  0.08196947  0.00565885  1
  Na  Na37  1  0.85896950  0.08266313  0.25706964  1
  Na  Na38  1  0.85964852  0.08352013  0.50604557  1
  Na  Na39  1  0.85947625  0.08497860  0.75691580  1
  Na  Na40  1  0.85961481  0.41597566  0.00628602  1
  Na  Na41  1  0.85901822  0.41692326  0.25685471  1
  Na  Na42  1  0.85955355  0.41650537  0.50602852  1
  Na  Na43  1  0.85938465  0.41743459  0.75719768  1
  Na  Na44  1  0.85961934  0.74955272  0.00798849  1
  Na  Na45  1  0.85947345  0.75053641  0.25741626  1
  Na  Na46  1  0.85950260  0.74920044  0.50504574  1
  Na  Na47  1  0.85953111  0.75038887  0.75760041  1
  Na  Na48  1  0.10934597  0.08342051  0.11839964  1
  Na  Na49  1  0.10956093  0.08386019  0.36866377  1
  Na  Na50  1  0.11008852  0.08404090  0.61901396  1
  Na  Na51  1  0.10976831  0.08268860  0.86935189  1
  Na  Na52  1  0.10967092  0.41723653  0.11884411  1
  Na  Na53  1  0.11008194  0.41762962  0.36834898  1
  Na  Na54  1  0.10930398  0.41590999  0.61867254  1
  Na  Na55  1  0.10912850  0.41678340  0.87007822  1
  Na  Na56  1  0.10916105  0.74953050  0.11882803  1
  Na  Na57  1  0.10992619  0.74976979  0.36727431  1
  Na  Na58  1  0.10927908  0.74843825  0.61943408  1
  Na  Na59  1  0.10926595  0.74951762  0.87011964  1
  Na  Na60  1  0.60990080  0.08149952  0.11851111  1
  Na  Na61  1  0.61028020  0.08202493  0.36783945  1
  Na  Na62  1  0.61034946  0.08421128  0.61726759  1
  Na  Na63  1  0.61021990  0.08447301  0.86778668  1
  Na  Na64  1  0.60980951  0.41755529  0.12003409  1
  Na  Na65  1  0.61029106  0.41788380  0.36854453  1
  Na  Na66  1  0.60990889  0.41726714  0.61849757  1
  Na  Na67  1  0.60945719  0.41683880  0.86839520  1
  Na  Na68  1  0.61001872  0.75008097  0.11978793  1
  Na  Na69  1  0.60969874  0.75050589  0.36677139  1
  Na  Na70  1  0.60987389  0.74996096  0.61761327  1
  Na  Na71  1  0.60995450  0.74940911  0.86896946  1
  Na  Na72  1  0.38987836  0.24967933  0.13300398  1
  Na  Na73  1  0.39011797  0.25026525  0.38209264  1
  Na  Na74  1  0.39075940  0.25115953  0.63003468  1
  Na  Na75  1  0.39066921  0.25089617  0.88080224  1
  Na  Na76  1  0.39017653  0.58457186  0.13258979  1
  Na  Na77  1  0.39016957  0.58355602  0.38167484  1
  Na  Na78  1  0.39044076  0.58265558  0.63010166  1
  Na  Na79  1  0.39047138  0.58415747  0.88103964  1
  Na  Na80  1  0.39070044  0.91546455  0.13115150  1
  Na  Na81  1  0.39055736  0.91628646  0.38038845  1
  Na  Na82  1  0.39069514  0.91675480  0.62871726  1
  Na  Na83  1  0.39062565  0.91720916  0.88061073  1
  Na  Na84  1  0.88988112  0.25024055  0.13048182  1
  Na  Na85  1  0.88974591  0.25035830  0.38264815  1
  Na  Na86  1  0.89000487  0.24919917  0.63134560  1
  Na  Na87  1  0.88993531  0.24930909  0.88197076  1
  Na  Na88  1  0.89008472  0.58361863  0.13149935  1
  Na  Na89  1  0.88959947  0.58393476  0.38160504  1
  Na  Na90  1  0.88987981  0.58242642  0.63100976  1
  Na  Na91  1  0.89044591  0.58386658  0.88251499  1
  Na  Na92  1  0.88945927  0.91577516  0.13208731  1
  Na  Na93  1  0.88987818  0.91657879  0.38137235  1
  Na  Na94  1  0.89054185  0.91684765  0.63102539  1
  Na  Na95  1  0.89047558  0.91578940  0.88320511  1
  Mn  Mn96  1  0.25019052  0.00014207  0.12518318  1
  Mn  Mn97  1  0.49934822  0.66600174  0.74867557  1
  Mn  Mn98  1  0.25077842  0.16628375  0.87511228  1
  Mn  Mn99  1  0.49937369  0.50058314  0.00031030  1
  Mn  Mn100  1  0.75003182  0.83375374  0.62480823  1
  Mn  Mn101  1  0.25035639  0.83346094  0.87511606  1
  Mn  Mn102  1  0.25006516  0.33333708  0.87554394  1
  Mn  Mn103  1  0.00080049  0.00057435  0.50098801  1
  Mn  Mn104  1  0.49965342  0.33388476  0.00059694  1
  Mn  Mn105  1  0.50039424  0.16671877  0.49960348  1
  Mn  Mn106  1  0.75005052  0.66637394  0.12601713  1
  Mn  Mn107  1  0.24994509  0.50031144  0.62481009  1
  Mn  Mn108  1  0.24938402  0.83391079  0.62491918  1
  Mn  Mn109  1  0.49997754  -0.00081935  -0.00083804  1
  Mn  Mn110  1  0.24949734  0.50120796  0.87638297  1
  Mn  Mn111  1  0.00002076  0.33351267  0.50042947  1
  Mn  Mn112  1  0.75017198  0.33348355  0.12517103  1
  Mn  Mn113  1  -0.00040731  0.33422953  0.25059884  1
  Mn  Mn114  1  0.25066654  0.00129604  0.62345569  1
  Mn  Mn115  1  0.00027464  -0.00004991  0.75076056  1
  Mn  Mn116  1  0.75051127  0.33363372  0.62472942  1
  Mn  Mn117  1  0.50072686  0.00008100  0.74921398  1
  Mn  Mn118  1  0.25015351  0.49970777  0.12563160  1
  Mn  Mn119  1  0.74962091  0.66643348  0.62472039  1
  Mn  Mn120  1  0.50053199  0.33409108  0.25081885  1
  Mn  Mn121  1  0.24967355  0.33305454  0.62520594  1
  Mn  Mn122  1  0.00037541  0.83208321  0.75131124  1
  Mn  Mn123  1  -0.00040273  0.66571172  0.49946414  1
  Mn  Mn124  1  0.50086444  0.66746699  0.00056281  1
  Mn  Mn125  1  0.50007432  0.16678335  -0.00001722  1
  Mn  Mn126  1  -0.00086683  0.33218525  0.74979610  1
  Mn  Mn127  1  0.49982722  0.16807977  0.74811082  1
  Mn  Mn128  1  -0.00037630  0.16646162  0.00045308  1
  Mn  Mn129  1  0.50080476  0.16563246  0.25092728  1
  Mn  Mn130  1  0.75006061  0.50011144  0.87518115  1
  Mn  Mn131  1  -0.00039922  0.16714191  0.24940567  1
  Mn  Mn132  1  0.00013423  0.83262275  0.50044449  1
  Mn  Mn133  1  0.50060361  0.66655757  0.49919428  1
  Mn  Mn134  1  0.25025631  0.66719117  0.62414215  1
  Mn  Mn135  1  0.75043992  0.00137044  0.62427192  1
  Mn  Mn136  1  0.50093377  0.83358290  0.74880946  1
  Mn  Mn137  1  0.24941179  0.00022132  0.37421138  1
  Mn  Mn138  1  -0.00030227  0.50010065  0.75037781  1
  Mn  Mn139  1  0.75002059  0.83348327  0.87550293  1
  Mn  Mn140  1  0.25028769  0.83193494  0.12404930  1
  Mn  Mn141  1  -0.00137846  0.50122665  0.24875592  1
  Mn  Mn142  1  -0.00075898  -0.00069876  0.25007930  1
  Mn  Mn143  1  0.75019722  0.16567848  0.12469334  1
  Fe  Fe144  1  0.25009144  0.00044287  0.87487266  1
  Fe  Fe145  1  -0.00074310  0.83270361  0.00092582  1
  Fe  Fe146  1  -0.00057221  0.66688777  0.00084332  1
  Fe  Fe147  1  0.00014768  0.50019287  0.49996864  1
  Fe  Fe148  1  -0.00055752  0.66613428  0.75102407  1
  Fe  Fe149  1  0.74955976  0.83323232  0.12576862  1
  Fe  Fe150  1  0.75016408  0.00037352  0.87491157  1
  Fe  Fe151  1  -0.00058810  -0.00069361  0.00026882  1
  Fe  Fe152  1  0.75010077  0.83356216  0.37475962  1
  Fe  Fe153  1  0.75019041  0.50007793  0.62462199  1
  Fe  Fe154  1  0.75010434  0.49989204  0.37493384  1
  Fe  Fe155  1  0.24988898  0.16710437  0.37482961  1
  Fe  Fe156  1  0.50071338  0.33424783  0.50016693  1
  Fe  Fe157  1  0.74958404  -0.00055120  0.12537923  1
  Fe  Fe158  1  0.49995667  0.66693471  0.25027688  1
  Fe  Fe159  1  0.74971763  0.49992261  0.12540893  1
  Fe  Fe160  1  0.25005221  0.49919756  0.37437984  1
  Fe  Fe161  1  0.75007262  -0.00018968  0.37475819  1
  Fe  Fe162  1  0.74980356  0.66640187  0.37484519  1
  Fe  Fe163  1  -0.00017054  0.16665841  0.50041024  1
  Fe  Fe164  1  0.50023718  0.83350358  0.49850918  1
  Fe  Fe165  1  0.00013827  0.33312864  -0.00016932  1
  Fe  Fe166  1  0.50014317  0.49976337  0.74971773  1
  Fe  Fe167  1  0.49940638  0.50034556  0.25055450  1
  Fe  Fe168  1  0.24970797  0.66602473  0.37483596  1
  Fe  Fe169  1  0.74957796  0.33361210  0.87491771  1
  Fe  Fe170  1  -0.00049830  0.50020977  0.00006694  1
  Fe  Fe171  1  0.25035907  0.16707213  0.62481137  1
  Fe  Fe172  1  0.74948413  0.16685002  0.87471761  1
  Fe  Fe173  1  0.24986488  0.33275867  0.12635349  1
  Fe  Fe174  1  0.25038322  0.33267072  0.37536223  1
  Fe  Fe175  1  0.00007518  0.66685270  0.24967064  1
  Fe  Fe176  1  0.24993639  0.83259082  0.37388734  1
  Fe  Fe177  1  0.49982973  -0.00100795  0.24918035  1
  Fe  Fe178  1  0.24963263  0.16669971  0.12551561  1
  Fe  Fe179  1  0.25012468  0.66700432  0.87505759  1
  Fe  Fe180  1  0.50019395  0.33429409  0.74966932  1
  Fe  Fe181  1  0.75004757  0.66645161  0.87583077  1
  Fe  Fe182  1  0.50049253  0.50000116  0.50021455  1
  Fe  Fe183  1  0.50003659  0.83332950  0.25003511  1
  Fe  Fe184  1  0.24991448  0.66596214  0.12577867  1
  Fe  Fe185  1  0.00015668  0.16608253  0.75106104  1
  Fe  Fe186  1  0.75001351  0.16733425  0.62462274  1
  Fe  Fe187  1  0.75008127  0.16624838  0.37462118  1
  Fe  Fe188  1  0.75032004  0.33332623  0.37500747  1
  Fe  Fe189  1  0.50061745  -0.00045447  0.49860633  1
  Fe  Fe190  1  0.50027857  0.83285104  0.00044282  1
  Fe  Fe191  1  0.00006270  0.83322465  0.24979584  1
  P  P192  1  0.04211226  0.25142495  0.10246781  1
  P  P193  1  0.04203816  0.24998076  0.35390029  1
  P  P194  1  0.04206023  0.24828777  0.60299641  1
  P  P195  1  0.04187824  0.24896450  0.85336171  1
  P  P196  1  0.04093278  0.58373687  0.10172231  1
  P  P197  1  0.04176748  0.58427503  0.35202695  1
  P  P198  1  0.04239151  0.58201535  0.60268251  1
  P  P199  1  0.04162347  0.58429076  0.85391589  1
  P  P200  1  0.04084726  0.91579181  0.10216108  1
  P  P201  1  0.04237524  0.91546303  0.35238173  1
  P  P202  1  0.04335746  0.91612780  0.60361541  1
  P  P203  1  0.04239910  0.91617174  0.85485527  1
  P  P204  1  0.54302328  0.24997941  0.10362112  1
  P  P205  1  0.54296161  0.25051675  0.35404352  1
  P  P206  1  0.54265541  0.25213492  0.60216322  1
  P  P207  1  0.54233765  0.25168379  0.85176005  1
  P  P208  1  0.54252224  0.58367178  0.10451342  1
  P  P209  1  0.54119185  0.58322671  0.35185809  1
  P  P210  1  0.54254752  0.58193209  0.60222414  1
  P  P211  1  0.54224951  0.58245182  0.85197083  1
  P  P212  1  0.54204117  0.91497757  0.10299481  1
  P  P213  1  0.54142757  0.91655917  0.35159272  1
  P  P214  1  0.54244146  0.91653932  0.60005789  1
  P  P215  1  0.54349197  0.91637873  0.85294585  1
  P  P216  1  0.45780932  0.08175742  0.14764484  1
  P  P217  1  0.45845810  0.08153751  0.39663079  1
  P  P218  1  0.45793790  0.08298211  0.64513355  1
  P  P219  1  0.45732625  0.08383165  0.89622861  1
  P  P220  1  0.45704319  0.41808856  0.14853777  1
  P  P221  1  0.45904096  0.41747313  0.39838925  1
  P  P222  1  0.45877006  0.41695481  0.64739431  1
  P  P223  1  0.45705686  0.41709908  0.89626699  1
  P  P224  1  0.45879591  0.75045694  0.14852113  1
  P  P225  1  0.45858317  0.75116615  0.39605796  1
  P  P226  1  0.45744635  0.75035733  0.64523902  1
  P  P227  1  0.45805715  0.75120374  0.89746955  1
  P  P228  1  0.95682145  0.08262531  0.14645922  1
  P  P229  1  0.95784274  0.08419805  0.39792219  1
  P  P230  1  0.95801976  0.08477481  0.64792741  1
  P  P231  1  0.95776396  0.08200532  0.89790136  1
  P  P232  1  0.95690527  0.41668398  0.14569517  1
  P  P233  1  0.95757869  0.41847182  0.39774067  1
  P  P234  1  0.95690665  0.41656482  0.64674181  1
  P  P235  1  0.95824734  0.41662303  0.89857586  1
  P  P236  1  0.95822116  0.74988037  0.14812349  1
  P  P237  1  0.95751570  0.75000150  0.39587495  1
  P  P238  1  0.95730453  0.74798446  0.64837393  1
  P  P239  1  0.95809092  0.74952689  0.89917658  1
  P  P240  1  0.20749314  0.08497740  0.22781515  1
  P  P241  1  0.20772505  0.08518179  0.47713123  1
  P  P242  1  0.20799981  0.08464615  0.72737334  1
  P  P243  1  0.20766911  0.08232907  0.97796912  1
  P  P244  1  0.20797780  0.41501555  0.22870743  1
  P  P245  1  0.20881239  0.41609231  0.47632203  1
  P  P246  1  0.20688785  0.41724110  0.72843802  1
  P  P247  1  0.20729417  0.41629687  0.97956106  1
  P  P248  1  0.20805083  0.74817654  0.22804436  1
  P  P249  1  0.20818911  0.74971988  0.47577201  1
  P  P250  1  0.20725594  0.75008818  0.72856191  1
  P  P251  1  0.20793776  0.74830873  0.97791869  1
  P  P252  1  0.70805068  0.08174690  0.22802719  1
  P  P253  1  0.70874774  0.08331852  0.47619252  1
  P  P254  1  0.70797258  0.08594469  0.72748238  1
  P  P255  1  0.70832984  0.08274365  0.97663805  1
  P  P256  1  0.70822276  0.41805934  0.22857585  1
  P  P257  1  0.70904021  0.41678980  0.47666767  1
  P  P258  1  0.70827534  0.41814859  0.72734403  1
  P  P259  1  0.70750773  0.41545758  0.97765076  1
  P  P260  1  0.70828626  0.75125034  0.22876677  1
  P  P261  1  0.70840028  0.74977992  0.47589664  1
  P  P262  1  0.70726487  0.75029105  0.72843639  1
  P  P263  1  0.70799770  0.74862753  0.97834904  1
  P  P264  1  0.29172879  0.24980422  0.02433473  1
  P  P265  1  0.29165819  0.25000154  0.27304745  1
  P  P266  1  0.29233113  0.24892198  0.52172234  1
  P  P267  1  0.29305197  0.25000218  0.77162763  1
  P  P268  1  0.29227916  0.58480518  0.02298207  1
  P  P269  1  0.29110687  0.58314750  0.27328265  1
  P  P270  1  0.29258686  0.58321550  0.52022211  1
  P  P271  1  0.29242426  0.58486186  0.77268465  1
  P  P272  1  0.29274229  0.91689883  0.02136167  1
  P  P273  1  0.29183665  0.91522534  0.27211650  1
  P  P274  1  0.29232271  0.91628774  0.52028337  1
  P  P275  1  0.29247741  0.91860753  0.77224089  1
  P  P276  1  0.79215427  0.24953877  0.02105799  1
  P  P277  1  0.79158381  0.24971036  0.27349382  1
  P  P278  1  0.79219736  0.24876454  0.52165401  1
  P  P279  1  0.79140332  0.25064072  0.77332159  1
  P  P280  1  0.79188469  0.58202382  0.02295998  1
  P  P281  1  0.79109240  0.58301770  0.27320822  1
  P  P282  1  0.79169257  0.58195446  0.52155610  1
  P  P283  1  0.79238690  0.58482479  0.77277499  1
  P  P284  1  0.79102211  0.91626896  0.02375865  1
  P  P285  1  0.79096103  0.91679954  0.27286031  1
  P  P286  1  0.79270801  0.91688051  0.52082902  1
  P  P287  1  0.79275795  0.91848238  0.77293211  1
  O  O288  1  0.03709092  0.25133845  0.18245318  1
  O  O289  1  0.03679475  0.24927014  0.43386976  1
  O  O290  1  0.03685239  0.24800062  0.68299554  1
  O  O291  1  0.03651410  0.24984008  0.93331368  1
  O  O292  1  0.03587717  0.58458314  0.18165936  1
  O  O293  1  0.03689878  0.58326066  0.43198488  1
  O  O294  1  0.03731935  0.58262396  0.68262292  1
  O  O295  1  0.03609341  0.58401804  0.93376554  1
  O  O296  1  0.03586908  0.91543056  0.18219820  1
  O  O297  1  0.03782145  0.91575249  0.43239993  1
  O  O298  1  0.03820656  0.91618448  0.68360086  1
  O  O299  1  0.03663306  0.91634730  0.93476840  1
  O  O300  1  0.53825220  0.24975787  0.18366255  1
  O  O301  1  0.53759238  0.25105012  0.43397267  1
  O  O302  1  0.53715667  0.25244121  0.68210718  1
  O  O303  1  0.53721873  0.25113484  0.93177039  1
  O  O304  1  0.53719596  0.58361204  0.18442276  1
  O  O305  1  0.53677902  0.58319119  0.43185434  1
  O  O306  1  0.53730619  0.58177359  0.68215650  1
  O  O307  1  0.53723420  0.58313608  0.93199736  1
  O  O308  1  0.53646955  0.91547332  0.18288422  1
  O  O309  1  0.53637311  0.91666703  0.43151495  1
  O  O310  1  0.53786286  0.91674249  0.68011436  1
  O  O311  1  0.53835236  0.91593830  0.93290979  1
  O  O312  1  0.46284118  0.08222616  0.06763591  1
  O  O313  1  0.46364976  0.08124249  0.31666564  1
  O  O314  1  0.46351384  0.08244093  0.56518703  1
  O  O315  1  0.46239354  0.08413084  0.81621697  1
  O  O316  1  0.46178997  0.41768175  0.06852840  1
  O  O317  1  0.46378072  0.41799499  0.31842278  1
  O  O318  1  0.46427036  0.41672318  0.56747950  1
  O  O319  1  0.46236193  0.41700306  0.81631285  1
  O  O320  1  0.46360078  0.75055485  0.06850918  1
  O  O321  1  0.46397796  0.75103390  0.31615292  1
  O  O322  1  0.46281142  0.75061500  0.56527782  1
  O  O323  1  0.46293822  0.75070295  0.81748318  1
  O  O324  1  0.96218419  0.08195151  0.06653173  1
  O  O325  1  0.96250085  0.08383039  0.31789201  1
  O  O326  1  0.96340875  0.08507831  0.56793693  1
  O  O327  1  0.96296930  0.08264128  0.81795338  1
  O  O328  1  0.96244562  0.41631670  0.06581141  1
  O  O329  1  0.96221636  0.41841402  0.31770572  1
  O  O330  1  0.96219368  0.41704953  0.56679129  1
  O  O331  1  0.96315468  0.41637300  0.81855117  1
  O  O332  1  0.96321254  0.75009338  0.06818002  1
  O  O333  1  0.96280041  0.75023905  0.31595444  1
  O  O334  1  0.96237073  0.74824342  0.56837599  1
  O  O335  1  0.96298772  0.74882801  0.81924388  1
  O  O336  1  0.21281665  0.08315266  0.05792610  1
  O  O337  1  0.21273206  0.08499708  0.30775643  1
  O  O338  1  0.21323613  0.08531613  0.55704719  1
  O  O339  1  0.21339749  0.08358339  0.80732195  1
  O  O340  1  0.21278621  0.41568578  0.05951680  1
  O  O341  1  0.21340075  0.41515086  0.30861155  1
  O  O342  1  0.21332601  0.41659445  0.55634302  1
  O  O343  1  0.21178083  0.41736722  0.80844866  1
  O  O344  1  0.21314975  0.74781351  0.05788155  1
  O  O345  1  0.21345817  0.74870818  0.30792550  1
  O  O346  1  0.21301862  0.75013581  0.55578886  1
  O  O347  1  0.21260876  0.74971005  0.80851079  1
  O  O348  1  0.71328362  0.08221625  0.05660844  1
  O  O349  1  0.71351728  0.08177213  0.30786735  1
  O  O350  1  0.71358687  0.08396873  0.55612997  1
  O  O351  1  0.71307420  0.08594130  0.80734041  1
  O  O352  1  0.71258813  0.41597097  0.05758302  1
  O  O353  1  0.71400726  0.41789906  0.30843491  1
  O  O354  1  0.71389572  0.41694889  0.55664433  1
  O  O355  1  0.71324666  0.41748346  0.80726094  1
  O  O356  1  0.71327481  0.74912930  0.05831073  1
  O  O357  1  0.71365145  0.75096134  0.30860500  1
  O  O358  1  0.71286553  0.74992931  0.55593558  1
  O  O359  1  0.71245933  0.74991105  0.80840850  1
  O  O360  1  0.28621520  0.25014665  0.19316388  1
  O  O361  1  0.28683739  0.24937757  0.44182729  1
  O  O362  1  0.28789679  0.24969816  0.69166515  1
  O  O363  1  0.28689835  0.24981929  0.94432498  1
  O  O364  1  0.28645678  0.58312012  0.19329025  1
  O  O365  1  0.28714604  0.58292758  0.44030806  1
  O  O366  1  0.28743756  0.58439773  0.69264628  1
  O  O367  1  0.28702921  0.58510530  0.94302675  1
  O  O368  1  0.28711441  0.91529580  0.19213723  1
  O  O369  1  0.28677213  0.91564030  0.44035560  1
  O  O370  1  0.28704847  0.91832384  0.69224737  1
  O  O371  1  0.28750052  0.91755742  0.94143078  1
  O  O372  1  0.78697402  0.24992767  0.19348653  1
  O  O373  1  0.78686345  0.24886487  0.44180955  1
  O  O374  1  0.78653982  0.25057220  0.69331593  1
  O  O375  1  0.78653600  0.24959745  0.94119727  1
  O  O376  1  0.78605102  0.58272615  0.19326198  1
  O  O377  1  0.78610837  0.58211884  0.44168900  1
  O  O378  1  0.78738416  0.58426025  0.69283577  1
  O  O379  1  0.78682050  0.58298443  0.94303909  1
  O  O380  1  0.78586203  0.91635397  0.19296519  1
  O  O381  1  0.78747290  0.91688365  0.44090803  1
  O  O382  1  0.78775883  0.91823630  0.69294742  1
  O  O383  1  0.78636511  0.91637340  0.94382799  1
  O  O384  1  0.22741634  0.24961102  0.05999418  1
  O  O385  1  0.22763873  0.25023885  0.30958292  1
  O  O386  1  0.22820694  0.24835790  0.55803573  1
  O  O387  1  0.22869364  0.24981860  0.80697146  1
  O  O388  1  0.22797382  0.58460288  0.05872391  1
  O  O389  1  0.22692310  0.58353987  0.30900359  1
  O  O390  1  0.22836165  0.58345778  0.55602283  1
  O  O391  1  0.22803574  0.58536587  0.80821332  1
  O  O392  1  0.22842631  0.91644675  0.05680519  1
  O  O393  1  0.22744439  0.91561645  0.30723802  1
  O  O394  1  0.22813991  0.91718827  0.55603027  1
  O  O395  1  0.22829391  0.91847022  0.80822264  1
  O  O396  1  0.72811489  0.24954570  0.05725473  1
  O  O397  1  0.72741315  0.24961207  0.30917347  1
  O  O398  1  0.72809565  0.24897941  0.55789279  1
  O  O399  1  0.72720931  0.25085950  0.80931506  1
  O  O400  1  0.72767201  0.58185533  0.05883284  1
  O  O401  1  0.72700086  0.58266933  0.30929632  1
  O  O402  1  0.72761357  0.58172992  0.55789860  1
  O  O403  1  0.72804977  0.58496811  0.80839821  1
  O  O404  1  0.72687456  0.91585027  0.05984283  1
  O  O405  1  0.72695637  0.91759401  0.30922963  1
  O  O406  1  0.72842741  0.91724200  0.55647573  1
  O  O407  1  0.72835379  0.91826330  0.80831000  1
  O  O408  1  0.27179630  0.08503731  0.19214258  1
  O  O409  1  0.27189423  0.08471793  0.44112826  1
  O  O410  1  0.27223196  0.08549897  0.69132980  1
  O  O411  1  0.27198806  0.08164430  0.94224111  1
  O  O412  1  0.27210498  0.41496348  0.19259419  1
  O  O413  1  0.27308202  0.41562357  0.44077241  1
  O  O414  1  0.27135849  0.41687153  0.69342553  1
  O  O415  1  0.27150885  0.41700895  0.94389368  1
  O  O416  1  0.27226011  0.74779093  0.19199136  1
  O  O417  1  0.27241455  0.74905321  0.44000599  1
  O  O418  1  0.27157791  0.75052721  0.69307015  1
  O  O419  1  0.27218810  0.74851274  0.94210870  1
  O  O420  1  0.77215828  0.08129950  0.19180874  1
  O  O421  1  0.77290005  0.08264110  0.44022781  1
  O  O422  1  0.77223758  0.08590004  0.69152627  1
  O  O423  1  0.77242916  0.08314408  0.94045873  1
  O  O424  1  0.77220810  0.41828932  0.19202589  1
  O  O425  1  0.77314912  0.41724230  0.44068948  1
  O  O426  1  0.77255041  0.41839236  0.69159313  1
  O  O427  1  0.77179128  0.41514037  0.94187886  1
  O  O428  1  0.77227782  0.75152670  0.19231347  1
  O  O429  1  0.77267238  0.74938547  0.44049736  1
  O  O430  1  0.77161382  0.75019493  0.69305687  1
  O  O431  1  0.77222767  0.74848808  0.94245431  1
  O  O432  1  0.02115614  0.08284681  0.18175312  1
  O  O433  1  0.02226833  0.08469852  0.43305342  1
  O  O434  1  0.02226799  0.08479189  0.68372489  1
  O  O435  1  0.02194024  0.08181181  0.93361644  1
  O  O436  1  0.02109850  0.41721225  0.18147564  1
  O  O437  1  0.02200018  0.41823092  0.43293222  1
  O  O438  1  0.02119527  0.41616516  0.68206867  1
  O  O439  1  0.02235989  0.41743528  0.93450580  1
  O  O440  1  0.02237311  0.74967805  0.18423827  1
  O  O441  1  0.02174815  0.74952657  0.43153539  1
  O  O442  1  0.02169302  0.74759018  0.68379928  1
  O  O443  1  0.02222411  0.75052944  0.93505870  1
  O  O444  1  0.52221755  0.08129399  0.18291097  1
  O  O445  1  0.52267184  0.08197120  0.43232122  1
  O  O446  1  0.52215122  0.08370639  0.68075293  1
  O  O447  1  0.52175875  0.08352580  0.93126628  1
  O  O448  1  0.52158080  0.41883351  0.18350134  1
  O  O449  1  0.52328935  0.41703681  0.43408270  1
  O  O450  1  0.52272676  0.41712701  0.68409217  1
  O  O451  1  0.52131131  0.41712431  0.93192771  1
  O  O452  1  0.52292736  0.75070251  0.18434198  1
  O  O453  1  0.52264647  0.75135926  0.43227078  1
  O  O454  1  0.52175940  0.74960209  0.68061217  1
  O  O455  1  0.52244370  0.75173608  0.93294893  1
  O  O456  1  0.47843533  0.24998225  0.06898788  1
  O  O457  1  0.47869430  0.25010611  0.31863675  1
  O  O458  1  0.47848329  0.25188816  0.56627044  1
  O  O459  1  0.47806343  0.25218682  0.81613812  1
  O  O460  1  0.47829744  0.58427132  0.06885511  1
  O  O461  1  0.47695629  0.58285144  0.31625125  1
  O  O462  1  0.47830502  0.58238353  0.56657006  1
  O  O463  1  0.47794919  0.58164411  0.81637279  1
  O  O464  1  0.47797386  0.91466202  0.06670604  1
  O  O465  1  0.47737611  0.91642279  0.31529185  1
  O  O466  1  0.47809940  0.91626301  0.56461458  1
  O  O467  1  0.47910190  0.91663246  0.81772229  1
  O  O468  1  0.97776264  0.25119673  0.06721748  1
  O  O469  1  0.97770203  0.25019940  0.31857162  1
  O  O470  1  0.97780168  0.24886815  0.56734308  1
  O  O471  1  0.97764387  0.24789470  0.81752029  1
  O  O472  1  0.97684507  0.58264144  0.06574275  1
  O  O473  1  0.97738411  0.58539433  0.31666837  1
  O  O474  1  0.97799541  0.58140283  0.56718921  1
  O  O475  1  0.97751806  0.58440775  0.81763500  1
  O  O476  1  0.97667692  0.91566329  0.06625036  1
  O  O477  1  0.97786649  0.91499614  0.31739619  1
  O  O478  1  0.97889060  0.91650272  0.56868846  1
  O  O479  1  0.97831914  0.91606838  0.81881970  1
  O  O480  1  0.07268237  0.31495427  0.07381899  1
  O  O481  1  0.07287871  0.31389289  0.32635209  1
  O  O482  1  0.07339832  0.31205228  0.57559686  1
  O  O483  1  0.07260959  0.31259150  0.82497937  1
  O  O484  1  0.07117107  0.64763784  0.07307167  1
  O  O485  1  0.07284159  0.64772616  0.32378413  1
  O  O486  1  0.07336138  0.64546415  0.57419719  1
  O  O487  1  0.07227938  0.64781553  0.82505032  1
  O  O488  1  0.07137511  0.97980555  0.07423460  1
  O  O489  1  0.07304606  0.97930366  0.32440969  1
  O  O490  1  0.07452240  0.97953780  0.57539313  1
  O  O491  1  0.07377571  0.97941836  0.82638105  1
  O  O492  1  0.57379576  0.31367560  0.07561961  1
  O  O493  1  0.57414644  0.31375945  0.32552857  1
  O  O494  1  0.57360000  0.31547266  0.57352506  1
  O  O495  1  0.57327340  0.31523031  0.82363787  1
  O  O496  1  0.57413140  0.64685907  0.07607499  1
  O  O497  1  0.57128102  0.64738717  0.32347568  1
  O  O498  1  0.57390909  0.64545023  0.57437103  1
  O  O499  1  0.57282925  0.64623956  0.82384125  1
  O  O500  1  0.57324958  0.97845297  0.07476223  1
  O  O501  1  0.57227956  0.98012145  0.32298049  1
  O  O502  1  0.57297235  0.98040808  0.57185152  1
  O  O503  1  0.57436200  0.98009059  0.82481606  1
  O  O504  1  0.42684710  0.01815911  0.17563682  1
  O  O505  1  0.42769873  0.01810414  0.42526595  1
  O  O506  1  0.42695482  0.01962097  0.67367655  1
  O  O507  1  0.42623217  0.02036040  0.92425866  1
  O  O508  1  0.42667589  0.35420241  0.17675433  1
  O  O509  1  0.42815887  0.35367085  0.42627842  1
  O  O510  1  0.42778524  0.35337351  0.67576069  1
  O  O511  1  0.42592821  0.35375307  0.92501397  1
  O  O512  1  0.42859977  0.68636770  0.17700559  1
  O  O513  1  0.42746418  0.68751230  0.42387672  1
  O  O514  1  0.42605206  0.68691050  0.67321373  1
  O  O515  1  0.42742502  0.68743760  0.92568287  1
  O  O516  1  0.92556179  0.01954218  0.17525976  1
  O  O517  1  0.92729202  0.02032453  0.42596153  1
  O  O518  1  0.92706969  0.02080568  0.67527482  1
  O  O519  1  0.92708934  0.01828449  0.92625857  1
  O  O520  1  0.92582793  0.35347426  0.17472864  1
  O  O521  1  0.92640705  0.35489915  0.42546001  1
  O  O522  1  0.92574740  0.35291919  0.67459010  1
  O  O523  1  0.92810977  0.35247101  0.92657981  1
  O  O524  1  0.92723550  0.68621816  0.17629402  1
  O  O525  1  0.92603938  0.68671009  0.42412647  1
  O  O526  1  0.92647949  0.68450673  0.67681814  1
  O  O527  1  0.92777405  0.68581532  0.92819442  1
  O  O528  1  0.17656969  0.02110093  0.20016617  1
  O  O529  1  0.17635434  0.02149652  0.44964927  1
  O  O530  1  0.17705003  0.02116979  0.69892898  1
  O  O531  1  0.17682885  0.01877759  0.94963688  1
  O  O532  1  0.17692964  0.35170674  0.19998843  1
  O  O533  1  0.17762359  0.35247390  0.44876095  1
  O  O534  1  0.17573557  0.35380275  0.70025609  1
  O  O535  1  0.17630483  0.35299689  0.95094667  1
  O  O536  1  0.17699791  0.68472959  0.19959558  1
  O  O537  1  0.17694577  0.68614816  0.44804622  1
  O  O538  1  0.17625185  0.68683637  0.69975934  1
  O  O539  1  0.17697925  0.68512313  0.94900838  1
  O  O540  1  0.67683250  0.01858428  0.19907805  1
  O  O541  1  0.67752984  0.01973869  0.44833324  1
  O  O542  1  0.67682623  0.02234870  0.69927752  1
  O  O543  1  0.67772498  0.01905541  0.94803654  1
  O  O544  1  0.67699445  0.35438341  0.20087620  1
  O  O545  1  0.67907800  0.35252952  0.44837066  1
  O  O546  1  0.67714875  0.35479200  0.69891646  1
  O  O547  1  0.67681599  0.35190167  0.94906717  1
  O  O548  1  0.67717096  0.68758153  0.20090870  1
  O  O549  1  0.67729770  0.68618134  0.44786561  1
  O  O550  1  0.67586484  0.68722939  0.69972747  1
  O  O551  1  0.67742176  0.68483613  0.95007899  1
  O  O552  1  0.32240269  0.31352818  0.05256430  1
  O  O553  1  0.32293594  0.31334980  0.30163886  1
  O  O554  1  0.32316723  0.31268868  0.54986845  1
  O  O555  1  0.32372927  0.31372473  0.79987684  1
  O  O556  1  0.32324567  0.64799797  0.05194727  1
  O  O557  1  0.32263217  0.64629740  0.30152147  1
  O  O558  1  0.32390351  0.64664736  0.54832456  1
  O  O559  1  0.32336588  0.64840845  0.80078787  1
  O  O560  1  0.32397062  0.97995507  0.05023475  1
  O  O561  1  0.32318864  0.97874844  0.29970748  1
  O  O562  1  0.32380907  0.97987527  0.54768954  1
  O  O563  1  0.32310157  0.98227730  0.80040450  1
  O  O564  1  0.82349113  0.31280390  0.04953754  1
  O  O565  1  0.82209443  0.31356953  0.30185673  1
  O  O566  1  0.82358025  0.31225528  0.54965308  1
  O  O567  1  0.82216184  0.31448465  0.80138994  1
  O  O568  1  0.82321807  0.64525981  0.05145793  1
  O  O569  1  0.82120663  0.64732850  0.30113028  1
  O  O570  1  0.82291090  0.64559637  0.54937189  1
  O  O571  1  0.82284190  0.64844203  0.80157681  1
  O  O572  1  0.82153678  0.98005217  0.05217353  1
  O  O573  1  0.82270739  0.97993842  0.30109551  1
  O  O574  1  0.82410732  0.98011817  0.54932104  1
  O  O575  1  0.82308457  0.98226229  0.80139706  1
  O  O576  1  0.42705297  0.14537547  0.17595686  1
  O  O577  1  0.42722745  0.14524923  0.42414194  1
  O  O578  1  0.42661163  0.14663068  0.67257095  1
  O  O579  1  0.42647571  0.14732154  0.92469886  1
  O  O580  1  0.42599813  0.48142970  0.17696912  1
  O  O581  1  0.42837730  0.48102903  0.42711653  1
  O  O582  1  0.42774434  0.48061551  0.67551049  1
  O  O583  1  0.42585605  0.48047766  0.92471660  1
  O  O584  1  0.42722136  0.81357145  0.17679120  1
  O  O585  1  0.42755161  0.81453361  0.42465734  1
  O  O586  1  0.42666182  0.81381738  0.67381238  1
  O  O587  1  0.42722992  0.81465586  0.92593969  1
  O  O588  1  0.92588537  0.14644432  0.17409055  1
  O  O589  1  0.92690984  0.14760892  0.42637750  1
  O  O590  1  0.92698697  0.14789747  0.67696029  1
  O  O591  1  0.92636120  0.14535475  0.92589834  1
  O  O592  1  0.92551271  0.48013635  0.17371319  1
  O  O593  1  0.92727820  0.48218329  0.42630647  1
  O  O594  1  0.92576871  0.47969150  0.67555982  1
  O  O595  1  0.92691510  0.48011443  0.92629433  1
  O  O596  1  0.92749467  0.81349328  0.17682645  1
  O  O597  1  0.92656810  0.81331595  0.42481687  1
  O  O598  1  0.92656284  0.81179195  0.67633866  1
  O  O599  1  0.92666014  0.81296877  0.92707506  1
  O  O600  1  0.07327336  0.18775041  0.07489274  1
  O  O601  1  0.07329869  0.18697633  0.32493575  1
  O  O602  1  0.07269920  0.18502862  0.57379453  1
  O  O603  1  0.07301337  0.18540759  0.82545999  1
  O  O604  1  0.07240921  0.52026062  0.07412463  1
  O  O605  1  0.07242011  0.52073348  0.32331582  1
  O  O606  1  0.07313507  0.51841893  0.57410289  1
  O  O607  1  0.07294899  0.52079010  0.82588761  1
  O  O608  1  0.07207916  0.85239582  0.07391065  1
  O  O609  1  0.07319412  0.85215720  0.32349858  1
  O  O610  1  0.07406919  0.85248856  0.57543404  1
  O  O611  1  0.07367360  0.85270196  0.82680862  1
  O  O612  1  0.57398391  0.18655841  0.07514319  1
  O  O613  1  0.57412624  0.18688571  0.32636288  1
  O  O614  1  0.57380701  0.18835649  0.57473440  1
  O  O615  1  0.57319467  0.18807324  0.82359721  1
  O  O616  1  0.57332259  0.52019430  0.07579346  1
  O  O617  1  0.57247918  0.51998738  0.32347825  1
  O  O618  1  0.57316623  0.51849186  0.57328719  1
  O  O619  1  0.57333260  0.51899170  0.82393141  1
  O  O620  1  0.57293905  0.85144655  0.07457715  1
  O  O621  1  0.57246494  0.85296638  0.32338978  1
  O  O622  1  0.57323475  0.85286089  0.57186721  1
  O  O623  1  0.57465116  0.85320283  0.82422277  1
  O  O624  1  0.32246947  0.18602261  0.05235207  1
  O  O625  1  0.32250121  0.18625471  0.30117447  1
  O  O626  1  0.32353661  0.18562079  0.55006628  1
  O  O627  1  0.32447193  0.18687576  0.80006146  1
  O  O628  1  0.32326032  0.52097912  0.05054635  1
  O  O629  1  0.32119009  0.51895703  0.30156738  1
  O  O630  1  0.32362126  0.51987157  0.54894180  1
  O  O631  1  0.32302431  0.52113113  0.80082935  1
  O  O632  1  0.32376868  0.85313526  0.04896659  1
  O  O633  1  0.32212024  0.85144442  0.30063186  1
  O  O634  1  0.32320913  0.85300400  0.54903747  1
  O  O635  1  0.32373497  0.85501392  0.79986471  1
  O  O636  1  0.82342602  0.18613481  0.04930279  1
  O  O637  1  0.82242812  0.18598076  0.30136856  1
  O  O638  1  0.82284649  0.18536404  0.55071714  1
  O  O639  1  0.82215942  0.18708609  0.80175138  1
  O  O640  1  0.82228289  0.51812833  0.05095092  1
  O  O641  1  0.82276879  0.52003355  0.30154965  1
  O  O642  1  0.82259593  0.51861687  0.55041608  1
  O  O643  1  0.82364810  0.52143072  0.80095440  1
  O  O644  1  0.82191494  0.85263764  0.05206948  1
  O  O645  1  0.82119253  0.85287580  0.30169759  1
  O  O646  1  0.82364656  0.85335969  0.54930213  1
  O  O647  1  0.82398004  0.85505484  0.80097287  1
  O  O648  1  0.17654847  0.14826184  0.19915094  1
  O  O649  1  0.17698836  0.14853632  0.44842849  1
  O  O650  1  0.17708539  0.14828397  0.69943479  1
  O  O651  1  0.17680234  0.14593567  0.94975527  1
  O  O652  1  0.17679568  0.47865416  0.20078576  1
  O  O653  1  0.17849861  0.47990874  0.44756872  1
  O  O654  1  0.17614184  0.48076821  0.70006235  1
  O  O655  1  0.17603607  0.47993025  0.95204239  1
  O  O656  1  0.17704008  0.81167431  0.19959589  1
  O  O657  1  0.17796644  0.81364201  0.44732360  1
  O  O658  1  0.17613349  0.81375154  0.70083371  1
  O  O659  1  0.17699822  0.81223448  0.95064720  1
  O  O660  1  0.67715903  0.14552473  0.20009847  1
  O  O661  1  0.67829158  0.14702236  0.44748676  1
  O  O662  1  0.67728140  0.14932059  0.69834053  1
  O  O663  1  0.67740433  0.14649846  0.94875918  1
  O  O664  1  0.67723654  0.48140754  0.19986634  1
  O  O665  1  0.67738974  0.47981721  0.44835054  1
  O  O666  1  0.67773520  0.48186278  0.69899037  1
  O  O667  1  0.67641935  0.47896096  0.94955593  1
  O  O668  1  0.67720105  0.81452517  0.20004571  1
  O  O669  1  0.67817778  0.81368873  0.44741310  1
  O  O670  1  0.67651564  0.81405095  0.70034506  1
  O  O671  1  0.67675817  0.81200885  0.95032870  1
