# generated using pymatgen
data_Na2MnFe(PO4)2
_symmetry_space_group_name_H-M   'P 1'
_cell_length_a   22.34567968
_cell_length_b   20.09759806
_cell_length_c   19.44728249
_cell_angle_alpha   89.97300950
_cell_angle_beta   90.00156942
_cell_angle_gamma   89.99861079
_symmetry_Int_Tables_number   1
_chemical_formula_structural   Na2MnFe(PO4)2
_chemical_formula_sum   'Na96 Mn48 Fe48 P96 O384'
_cell_volume   8733.66640721
_cell_formula_units_Z   48
loop_
 _symmetry_equiv_pos_site_id
 _symmetry_equiv_pos_as_xyz
  1  'x, y, z'
loop_
 _atom_site_type_symbol
 _atom_site_label
 _atom_site_symmetry_multiplicity
 _atom_site_fract_x
 _atom_site_fract_y
 _atom_site_fract_z
 _atom_site_occupancy
  Na  Na0  1  0.14017082  0.24955997  0.24481162  1
  Na  Na1  1  0.14000439  0.25027319  0.49406775  1
  Na  Na2  1  0.14005815  0.25159011  0.74383366  1
  Na  Na3  1  0.14056121  0.25080187  0.99250052  1
  Na  Na4  1  0.13983664  0.58320740  0.24297234  1
  Na  Na5  1  0.14040373  0.58342463  0.49360005  1
  Na  Na6  1  0.14014359  0.58175661  0.74407790  1
  Na  Na7  1  0.13965228  0.58223599  0.99289166  1
  Na  Na8  1  0.13973774  0.91731164  0.24468210  1
  Na  Na9  1  0.13986535  0.91667212  0.49156607  1
  Na  Na10  1  0.13905179  0.91771446  0.74304881  1
  Na  Na11  1  0.13940440  0.91799538  0.99271319  1
  Na  Na12  1  0.64100950  0.25049271  0.24406118  1
  Na  Na13  1  0.64107190  0.24922240  0.49350497  1
  Na  Na14  1  0.64100981  0.25200144  0.74426447  1
  Na  Na15  1  0.64095301  0.25144544  0.99371019  1
  Na  Na16  1  0.64078904  0.58358408  0.24366592  1
  Na  Na17  1  0.64067461  0.58248972  0.49408245  1
  Na  Na18  1  0.64063834  0.58315154  0.74337883  1
  Na  Na19  1  0.64066110  0.58205578  0.99371148  1
  Na  Na20  1  0.64091172  0.91584509  0.24444463  1
  Na  Na21  1  0.64043468  0.91619275  0.49291701  1
  Na  Na22  1  0.64007901  0.91677323  0.74300355  1
  Na  Na23  1  0.64047594  0.91636311  0.99483994  1
  Na  Na24  1  0.35894045  0.08474864  0.00473793  1
  Na  Na25  1  0.35895501  0.08312398  0.25637576  1
  Na  Na26  1  0.35913519  0.08444993  0.50497048  1
  Na  Na27  1  0.35882334  0.08452121  0.75644927  1
  Na  Na28  1  0.36049426  0.41651049  0.00557840  1
  Na  Na29  1  0.35974076  0.41588181  0.25570750  1
  Na  Na30  1  0.35984147  0.41736041  0.50691676  1
  Na  Na31  1  0.36030660  0.41615794  0.75695864  1
  Na  Na32  1  0.35884129  0.75024147  0.00489604  1
  Na  Na33  1  0.35905405  0.75054010  0.25722933  1
  Na  Na34  1  0.35967260  0.74979182  0.50604901  1
  Na  Na35  1  0.35935317  0.75039091  0.75542562  1
  Na  Na36  1  0.85994047  0.08195762  0.00710224  1
  Na  Na37  1  0.85953845  0.08194599  0.25811347  1
  Na  Na38  1  0.85990062  0.08189109  0.50664145  1
  Na  Na39  1  0.85967839  0.08372221  0.75588118  1
  Na  Na40  1  0.86081891  0.41746411  0.00665676  1
  Na  Na41  1  0.86029743  0.41656499  0.25608641  1
  Na  Na42  1  0.86009948  0.41416931  0.50724448  1
  Na  Na43  1  0.86089977  0.41682401  0.75784949  1
  Na  Na44  1  0.85889699  0.74952788  0.00787059  1
  Na  Na45  1  0.85978062  0.75026757  0.25641948  1
  Na  Na46  1  0.86024184  0.75003080  0.50641429  1
  Na  Na47  1  0.85978413  0.75027377  0.75624113  1
  Na  Na48  1  0.10916231  0.08358743  0.11875308  1
  Na  Na49  1  0.10964824  0.08366756  0.36912789  1
  Na  Na50  1  0.10880324  0.08280589  0.61823787  1
  Na  Na51  1  0.10915313  0.08227015  0.86779783  1
  Na  Na52  1  0.10945154  0.41743346  0.11741599  1
  Na  Na53  1  0.10939829  0.41664613  0.36931670  1
  Na  Na54  1  0.11039133  0.41579092  0.61911995  1
  Na  Na55  1  0.11020796  0.41618517  0.86810504  1
  Na  Na56  1  0.10925791  0.74936754  0.11898423  1
  Na  Na57  1  0.10949714  0.75044595  0.36744911  1
  Na  Na58  1  0.10907184  0.75113689  0.61780228  1
  Na  Na59  1  0.10813310  0.74927981  0.86851579  1
  Na  Na60  1  0.60987436  0.08368286  0.11973394  1
  Na  Na61  1  0.61011564  0.08414057  0.36797867  1
  Na  Na62  1  0.60956066  0.08327694  0.61819593  1
  Na  Na63  1  0.60949954  0.08349112  0.86877850  1
  Na  Na64  1  0.61024616  0.41659159  0.11853437  1
  Na  Na65  1  0.61013192  0.41759693  0.36954219  1
  Na  Na66  1  0.61071630  0.41798478  0.61978464  1
  Na  Na67  1  0.61079120  0.41700271  0.86877253  1
  Na  Na68  1  0.60998964  0.74908879  0.11849739  1
  Na  Na69  1  0.61026707  0.75016959  0.36945434  1
  Na  Na70  1  0.60939785  0.74985886  0.61816777  1
  Na  Na71  1  0.60952296  0.74894908  0.86923662  1
  Na  Na72  1  0.39002506  0.25107840  0.13007384  1
  Na  Na73  1  0.39035800  0.25173650  0.38099683  1
  Na  Na74  1  0.39043274  0.25183826  0.63193666  1
  Na  Na75  1  0.39005706  0.25176955  0.88133993  1
  Na  Na76  1  0.39053589  0.58183445  0.13038586  1
  Na  Na77  1  0.39051566  0.58460758  0.38212756  1
  Na  Na78  1  0.39062976  0.58329583  0.63090292  1
  Na  Na79  1  0.39038322  0.58131855  0.88035639  1
  Na  Na80  1  0.38967568  0.91697646  0.13069069  1
  Na  Na81  1  0.38972389  0.91641785  0.38199311  1
  Na  Na82  1  0.38987792  0.91667989  0.62978735  1
  Na  Na83  1  0.39011235  0.91673462  0.87996632  1
  Na  Na84  1  0.89102916  0.25035098  0.13194784  1
  Na  Na85  1  0.89048789  0.24904875  0.38321366  1
  Na  Na86  1  0.89042885  0.24930526  0.63160310  1
  Na  Na87  1  0.89073942  0.25035475  0.88208921  1
  Na  Na88  1  0.89033016  0.58304700  0.13131334  1
  Na  Na89  1  0.89083664  0.58301219  0.38055917  1
  Na  Na90  1  0.89095705  0.58244178  0.63231691  1
  Na  Na91  1  0.89061231  0.58138390  0.88249674  1
  Na  Na92  1  0.88967076  0.91626384  0.13269059  1
  Na  Na93  1  0.88995986  0.91737811  0.38230937  1
  Na  Na94  1  0.89043480  0.91620090  0.63056388  1
  Na  Na95  1  0.89015787  0.91517009  0.88117017  1
  Mn  Mn96  1  0.24933329  0.00100084  0.62423576  1
  Mn  Mn97  1  0.25035980  0.49923542  0.12455342  1
  Mn  Mn98  1  0.75101917  0.16595380  0.12543262  1
  Mn  Mn99  1  0.24940686  0.33291300  0.37558030  1
  Mn  Mn100  1  0.24916433  0.50016096  0.37482038  1
  Mn  Mn101  1  0.24922663  0.66593589  0.87470730  1
  Mn  Mn102  1  0.75093251  0.66659152  0.37491400  1
  Mn  Mn103  1  0.49981869  0.00043927  0.25000222  1
  Mn  Mn104  1  0.75110578  0.33377483  0.12505755  1
  Mn  Mn105  1  -0.00002432  0.16636417  0.25069622  1
  Mn  Mn106  1  -0.00039829  0.83278798  0.00004215  1
  Mn  Mn107  1  -0.00042853  0.66617637  0.75004657  1
  Mn  Mn108  1  0.75078607  0.33289241  0.62527850  1
  Mn  Mn109  1  0.50025188  0.16794683  0.49987442  1
  Mn  Mn110  1  0.24951100  0.66659886  0.12455993  1
  Mn  Mn111  1  0.75005106  0.00038516  0.87518773  1
  Mn  Mn112  1  0.49953247  0.83273762  -0.00035023  1
  Mn  Mn113  1  0.00072026  0.33410925  0.25060731  1
  Mn  Mn114  1  0.49898319  0.66509729  -0.00121117  1
  Mn  Mn115  1  0.49954779  0.16860580  0.24891633  1
  Mn  Mn116  1  0.49983322  0.16805287  -0.00065557  1
  Mn  Mn117  1  0.00032467  0.49936590  0.50055889  1
  Mn  Mn118  1  0.49951903  0.83294054  0.25004528  1
  Mn  Mn119  1  0.24935760  0.00066917  0.12498873  1
  Mn  Mn120  1  0.75070496  0.66625070  0.62498562  1
  Mn  Mn121  1  0.00001315  0.16598634  0.75017434  1
  Mn  Mn122  1  0.24937589  0.83392236  0.12505863  1
  Mn  Mn123  1  0.49940710  -0.00079152  0.74870477  1
  Mn  Mn124  1  0.74961067  0.83344019  0.87595397  1
  Mn  Mn125  1  0.24863205  0.83431893  0.87496797  1
  Mn  Mn126  1  -0.00030608  0.16603191  0.00020414  1
  Mn  Mn127  1  0.49961499  -0.00001395  0.49944835  1
  Mn  Mn128  1  0.00068446  0.66733406  0.50027105  1
  Mn  Mn129  1  0.24886211  0.66599028  0.62518255  1
  Mn  Mn130  1  0.49979429  0.66632973  0.74968066  1
  Mn  Mn131  1  0.49984487  0.66641798  0.25021668  1
  Mn  Mn132  1  0.75120244  0.49884027  0.37472614  1
  Mn  Mn133  1  0.74951805  0.00000144  0.62453399  1
  Mn  Mn134  1  0.50103145  0.33527919  0.50102284  1
  Mn  Mn135  1  0.49988721  0.16768492  0.74967252  1
  Mn  Mn136  1  -0.00035815  0.83395153  0.24930279  1
  Mn  Mn137  1  0.74980095  0.16760226  0.87606518  1
  Mn  Mn138  1  0.74972552  0.66602537  0.87545754  1
  Mn  Mn139  1  0.24934904  0.83366417  0.62435058  1
  Mn  Mn140  1  0.24923290  0.16800537  0.62565776  1
  Mn  Mn141  1  0.50068991  0.49960625  0.25072715  1
  Mn  Mn142  1  0.49979089  -0.00001746  -0.00067463  1
  Mn  Mn143  1  0.24899568  0.16769154  0.12475804  1
  Fe  Fe144  1  0.25022190  0.33409772  0.87440937  1
  Fe  Fe145  1  0.00014894  -0.00012738  0.50024689  1
  Fe  Fe146  1  0.50080251  0.33442894  0.75040404  1
  Fe  Fe147  1  0.75015516  0.33241755  0.37550746  1
  Fe  Fe148  1  0.75150401  0.33415958  0.87490336  1
  Fe  Fe149  1  0.25051966  0.49934802  0.87441372  1
  Fe  Fe150  1  0.25038907  0.16725323  0.37492005  1
  Fe  Fe151  1  0.00012648  0.33269371  0.75042513  1
  Fe  Fe152  1  -0.00031089  0.83316236  0.74938751  1
  Fe  Fe153  1  0.24929510  0.16781742  0.87457159  1
  Fe  Fe154  1  0.25004296  0.66632348  0.37474682  1
  Fe  Fe155  1  0.74998539  0.66639373  0.12530577  1
  Fe  Fe156  1  0.50064855  0.66709963  0.50075388  1
  Fe  Fe157  1  0.25069558  0.33361432  0.62515686  1
  Fe  Fe158  1  0.74948318  -0.00043183  0.12671024  1
  Fe  Fe159  1  0.24943749  0.00044431  0.37478232  1
  Fe  Fe160  1  0.00003781  0.66630420  0.24925494  1
  Fe  Fe161  1  0.50073657  0.50000985  0.75011998  1
  Fe  Fe162  1  -0.00015303  0.33321141  0.50054060  1
  Fe  Fe163  1  0.24957138  0.83324106  0.37469243  1
  Fe  Fe164  1  -0.00035340  0.00032813  0.25069080  1
  Fe  Fe165  1  0.75034285  0.16588716  0.37502238  1
  Fe  Fe166  1  0.00012318  0.50046689  0.24925789  1
  Fe  Fe167  1  0.00059043  0.49889383  0.75085620  1
  Fe  Fe168  1  0.50101409  0.33401910  -0.00031429  1
  Fe  Fe169  1  0.75017680  0.83267927  0.37488945  1
  Fe  Fe170  1  0.50024562  0.33437352  0.25004896  1
  Fe  Fe171  1  0.75118182  0.50029286  0.87538007  1
  Fe  Fe172  1  0.24965981  0.33344060  0.12440243  1
  Fe  Fe173  1  0.74996782  0.49967659  0.12511532  1
  Fe  Fe174  1  0.24968765  0.00082744  0.87441306  1
  Fe  Fe175  1  -0.00003359  0.16631428  0.50080387  1
  Fe  Fe176  1  0.50080323  0.49889476  0.00018239  1
  Fe  Fe177  1  0.50001422  0.83281908  0.74929455  1
  Fe  Fe178  1  0.75004431  0.83327782  0.62492985  1
  Fe  Fe179  1  0.00048886  0.33359409  0.00016371  1
  Fe  Fe180  1  0.50035132  0.83326579  0.50009756  1
  Fe  Fe181  1  -0.00068663  -0.00116154  0.74910192  1
  Fe  Fe182  1  0.74999750  0.16624383  0.62452966  1
  Fe  Fe183  1  0.75114446  0.49934828  0.62510534  1
  Fe  Fe184  1  0.49988884  0.50068118  0.50017273  1
  Fe  Fe185  1  0.00033570  0.49972769  0.00001704  1
  Fe  Fe186  1  0.25074384  0.49971721  0.62495940  1
  Fe  Fe187  1  0.75007395  -0.00077180  0.37572610  1
  Fe  Fe188  1  -0.00076019  0.66581909  -0.00022526  1
  Fe  Fe189  1  0.74982925  0.83342226  0.12619696  1
  Fe  Fe190  1  -0.00029711  0.83403659  0.49925899  1
  Fe  Fe191  1  -0.00062549  -0.00082941  -0.00031351  1
  P  P192  1  0.04215827  0.25101252  0.10227890  1
  P  P193  1  0.04235145  0.24988081  0.35456770  1
  P  P194  1  0.04112237  0.25008087  0.60236513  1
  P  P195  1  0.04185841  0.25079811  0.85305623  1
  P  P196  1  0.04131997  0.58332175  0.10178287  1
  P  P197  1  0.04136115  0.58317524  0.35132533  1
  P  P198  1  0.04288066  0.58291835  0.60370197  1
  P  P199  1  0.04177852  0.58150071  0.85316587  1
  P  P200  1  0.04167798  0.91786548  0.10256356  1
  P  P201  1  0.04135252  0.91807520  0.35313131  1
  P  P202  1  0.04149625  0.91651070  0.60159883  1
  P  P203  1  0.04059222  0.91611227  0.85143038  1
  P  P204  1  0.54268964  0.25217026  0.10248432  1
  P  P205  1  0.54261606  0.25248954  0.35234711  1
  P  P206  1  0.54336559  0.25125931  0.60394218  1
  P  P207  1  0.54244320  0.25223558  0.85276668  1
  P  P208  1  0.54255415  0.58165630  0.10212045  1
  P  P209  1  0.54311726  0.58379125  0.35437122  1
  P  P210  1  0.54167151  0.58305101  0.60213178  1
  P  P211  1  0.54253087  0.58146018  0.85251294  1
  P  P212  1  0.54260079  0.91654659  0.10307009  1
  P  P213  1  0.54245927  0.91617255  0.35362131  1
  P  P214  1  0.54227893  0.91533890  0.60231077  1
  P  P215  1  0.54225561  0.91506908  0.85170487  1
  P  P216  1  0.45661049  0.08419146  0.14642749  1
  P  P217  1  0.45726531  0.08453497  0.39648407  1
  P  P218  1  0.45655174  0.08391778  0.64644019  1
  P  P219  1  0.45699344  0.08395745  0.89617843  1
  P  P220  1  0.45823737  0.41568561  0.14692361  1
  P  P221  1  0.45762829  0.41836008  0.39780757  1
  P  P222  1  0.45899369  0.41773402  0.64855937  1
  P  P223  1  0.45931979  0.41674307  0.89759701  1
  P  P224  1  0.45646390  0.74921001  0.14665176  1
  P  P225  1  0.45871626  0.74992829  0.39894856  1
  P  P226  1  0.45782722  0.75098928  0.64640854  1
  P  P227  1  0.45653191  0.74954028  0.89567431  1
  P  P228  1  0.95741776  0.08190593  0.14790227  1
  P  P229  1  0.95867847  0.08299328  0.39886255  1
  P  P230  1  0.95801471  0.08160658  0.64682843  1
  P  P231  1  0.95761437  0.08120962  0.89714073  1
  P  P232  1  0.95854237  0.41815409  0.14683407  1
  P  P233  1  0.95778320  0.41573060  0.39769119  1
  P  P234  1  0.95912445  0.41563486  0.64882113  1
  P  P235  1  0.95952925  0.41642273  0.89811565  1
  P  P236  1  0.95801525  0.74837315  0.14705787  1
  P  P237  1  0.95807400  0.75111898  0.39698318  1
  P  P238  1  0.95790019  0.75133797  0.64707782  1
  P  P239  1  0.95701079  0.74807346  0.89752552  1
  P  P240  1  0.20690519  0.08378951  0.22895196  1
  P  P241  1  0.20815742  0.08436905  0.47629669  1
  P  P242  1  0.20661671  0.08419423  0.72873286  1
  P  P243  1  0.20803269  0.08411953  0.97586484  1
  P  P244  1  0.20724416  0.41517058  0.22706022  1
  P  P245  1  0.20727824  0.41682520  0.47921558  1
  P  P246  1  0.20944073  0.41653094  0.72712364  1
  P  P247  1  0.20875604  0.41636120  0.97635236  1
  P  P248  1  0.20722098  0.75001896  0.22892703  1
  P  P249  1  0.20820030  0.74944289  0.47597448  1
  P  P250  1  0.20624566  0.75007193  0.72783903  1
  P  P251  1  0.20591479  0.74998782  0.97777949  1
  P  P252  1  0.70814359  0.08216721  0.22907205  1
  P  P253  1  0.70883771  0.08324596  0.47682763  1
  P  P254  1  0.70758718  0.08506026  0.72729343  1
  P  P255  1  0.70709756  0.08300992  0.97922407  1
  P  P256  1  0.70820718  0.41720652  0.22776623  1
  P  P257  1  0.70858619  0.41489334  0.47790359  1
  P  P258  1  0.70938663  0.41803535  0.72836589  1
  P  P259  1  0.70975556  0.41717753  0.97678309  1
  P  P260  1  0.70881294  0.74978229  0.22714180  1
  P  P261  1  0.70871212  0.75074982  0.47789001  1
  P  P262  1  0.70774943  0.75078728  0.72717427  1
  P  P263  1  0.70726026  0.74938147  0.97959571  1
  P  P264  1  0.29157312  0.25174152  0.02120468  1
  P  P265  1  0.29224100  0.24943777  0.27213344  1
  P  P266  1  0.29240091  0.25113619  0.52252748  1
  P  P267  1  0.29137276  0.25114978  0.77307749  1
  P  P268  1  0.29253734  0.58266127  0.02093680  1
  P  P269  1  0.29229617  0.58400987  0.27232844  1
  P  P270  1  0.29182805  0.58268190  0.52227905  1
  P  P271  1  0.29194853  0.58139540  0.77172320  1
  P  P272  1  0.29196697  0.91781340  0.02116904  1
  P  P273  1  0.29114025  0.91704622  0.27368631  1
  P  P274  1  0.29160471  0.91716283  0.52027741  1
  P  P275  1  0.29141940  0.91827069  0.77209331  1
  P  P276  1  0.79372190  0.25033987  0.02199147  1
  P  P277  1  0.79223376  0.24955708  0.27392915  1
  P  P278  1  0.79236764  0.24783283  0.52200495  1
  P  P279  1  0.79288194  0.25117231  0.77278645  1
  P  P280  1  0.79143459  0.58270168  0.02360918  1
  P  P281  1  0.79277443  0.58319273  0.27087839  1
  P  P282  1  0.79327217  0.58144309  0.52271623  1
  P  P283  1  0.79276768  0.58217084  0.77252717  1
  P  P284  1  0.79119728  0.91688276  0.02472448  1
  P  P285  1  0.79111902  0.91610192  0.27349433  1
  P  P286  1  0.79182806  0.91509215  0.52195895  1
  P  P287  1  0.79223372  0.91657226  0.77162780  1
  O  O288  1  0.03737204  0.25089147  0.18227693  1
  O  O289  1  0.03687105  0.24982311  0.43445696  1
  O  O290  1  0.03621493  0.24994627  0.68238113  1
  O  O291  1  0.03655757  0.25087590  0.93296219  1
  O  O292  1  0.03627206  0.58334404  0.18173268  1
  O  O293  1  0.03661692  0.58341316  0.43132099  1
  O  O294  1  0.03763569  0.58274219  0.68360008  1
  O  O295  1  0.03629474  0.58153119  0.93303866  1
  O  O296  1  0.03654429  0.91813006  0.18252950  1
  O  O297  1  0.03605128  0.91754859  0.43302337  1
  O  O298  1  0.03616967  0.91626967  0.68151236  1
  O  O299  1  0.03571718  0.91608724  0.93141779  1
  O  O300  1  0.53746180  0.25251175  0.18244910  1
  O  O301  1  0.53781613  0.25214200  0.43236913  1
  O  O302  1  0.53810074  0.25151599  0.68390179  1
  O  O303  1  0.53720517  0.25233685  0.93275356  1
  O  O304  1  0.53759644  0.58212185  0.18211398  1
  O  O305  1  0.53791875  0.58385958  0.43429382  1
  O  O306  1  0.53679255  0.58292497  0.68211741  1
  O  O307  1  0.53732711  0.58119350  0.93242848  1
  O  O308  1  0.53750942  0.91668768  0.18308351  1
  O  O309  1  0.53738590  0.91567510  0.43362799  1
  O  O310  1  0.53714726  0.91514241  0.68227092  1
  O  O311  1  0.53692407  0.91556957  0.93167865  1
  O  O312  1  0.46169050  0.08418741  0.06642393  1
  O  O313  1  0.46230829  0.08462489  0.31650919  1
  O  O314  1  0.46178321  0.08406960  0.56645491  1
  O  O315  1  0.46208539  0.08394677  0.81620104  1
  O  O316  1  0.46379239  0.41597184  0.06704358  1
  O  O317  1  0.46265389  0.41735647  0.31787116  1
  O  O318  1  0.46384862  0.41840330  0.56861584  1
  O  O319  1  0.46448868  0.41679417  0.81770524  1
  O  O320  1  0.46117685  0.74903595  0.06662933  1
  O  O321  1  0.46300214  0.74958221  0.31888610  1
  O  O322  1  0.46368584  0.75079005  0.56653384  1
  O  O323  1  0.46193276  0.75004338  0.81570744  1
  O  O324  1  0.96234575  0.08194747  0.06791534  1
  O  O325  1  0.96320524  0.08320178  0.31885516  1
  O  O326  1  0.96366417  0.08200348  0.56697190  1
  O  O327  1  0.96309617  0.08111303  0.81721202  1
  O  O328  1  0.96414569  0.41777187  0.06697231  1
  O  O329  1  0.96309811  0.41663175  0.31780778  1
  O  O330  1  0.96382117  0.41545423  0.56884033  1
  O  O331  1  0.96436687  0.41597960  0.81818854  1
  O  O332  1  0.96291195  0.74814826  0.06711931  1
  O  O333  1  0.96314440  0.75083065  0.31704385  1
  O  O334  1  0.96335033  0.75168466  0.56713585  1
  O  O335  1  0.96222507  0.74871610  0.81762142  1
  O  O336  1  0.21237703  0.08436861  0.05593428  1
  O  O337  1  0.21248036  0.08376861  0.30882468  1
  O  O338  1  0.21307927  0.08443092  0.55629830  1
  O  O339  1  0.21190059  0.08395148  0.80861779  1
  O  O340  1  0.21346005  0.41600933  0.05634507  1
  O  O341  1  0.21197113  0.41562047  0.30706478  1
  O  O342  1  0.21299271  0.41705164  0.55909582  1
  O  O343  1  0.21471857  0.41662274  0.80706611  1
  O  O344  1  0.21109726  0.75007927  0.05778367  1
  O  O345  1  0.21274319  0.74959614  0.30885877  1
  O  O346  1  0.21253180  0.74976415  0.55603400  1
  O  O347  1  0.21116626  0.75011830  0.80778287  1
  O  O348  1  0.71233332  0.08236229  0.05920262  1
  O  O349  1  0.71357883  0.08257124  0.30897985  1
  O  O350  1  0.71360137  0.08361147  0.55683311  1
  O  O351  1  0.71259583  0.08476597  0.80727835  1
  O  O352  1  0.71443238  0.41753014  0.05676179  1
  O  O353  1  0.71339122  0.41621019  0.30766009  1
  O  O354  1  0.71404971  0.41530177  0.55781782  1
  O  O355  1  0.71495199  0.41798691  0.80821195  1
  O  O356  1  0.71265707  0.74914806  0.05948537  1
  O  O357  1  0.71373027  0.75023979  0.30713166  1
  O  O358  1  0.71408157  0.75086539  0.55780784  1
  O  O359  1  0.71241492  0.75042481  0.80721423  1
  O  O360  1  0.28674931  0.25028239  0.19220851  1
  O  O361  1  0.28721210  0.25024065  0.44258194  1
  O  O362  1  0.28689159  0.25132632  0.69308047  1
  O  O363  1  0.28630905  0.25166954  0.94130662  1
  O  O364  1  0.28731477  0.58369344  0.19231484  1
  O  O365  1  0.28666848  0.58326822  0.44230562  1
  O  O366  1  0.28654943  0.58102004  0.69175684  1
  O  O367  1  0.28732425  0.58213605  0.94095731  1
  O  O368  1  0.28659087  0.91683623  0.19363910  1
  O  O369  1  0.28615542  0.91710930  0.44036726  1
  O  O370  1  0.28646194  0.91801285  0.69205616  1
  O  O371  1  0.28672495  0.91830628  0.94120923  1
  O  O372  1  0.78735600  0.24958415  0.19390147  1
  O  O373  1  0.78699707  0.24805080  0.44213730  1
  O  O374  1  0.78777179  0.25079280  0.69288862  1
  O  O375  1  0.78857637  0.25106054  0.94204760  1
  O  O376  1  0.78686099  0.58341627  0.19103132  1
  O  O377  1  0.78829915  0.58172055  0.44273802  1
  O  O378  1  0.78797599  0.58201761  0.69253477  1
  O  O379  1  0.78662710  0.58246030  0.94356403  1
  O  O380  1  0.78599696  0.91662011  0.19361146  1
  O  O381  1  0.78671218  0.91501539  0.44207227  1
  O  O382  1  0.78692470  0.91623113  0.69167232  1
  O  O383  1  0.78641574  0.91679568  0.94470539  1
  O  O384  1  0.22741102  0.25224215  0.05740456  1
  O  O385  1  0.22800735  0.24846097  0.30805411  1
  O  O386  1  0.22808279  0.25243894  0.55818919  1
  O  O387  1  0.22708971  0.25194182  0.80856925  1
  O  O388  1  0.22819169  0.58258157  0.05625907  1
  O  O389  1  0.22782408  0.58484188  0.30753212  1
  O  O390  1  0.22758020  0.58181192  0.55791270  1
  O  O391  1  0.22777361  0.58116639  0.80763775  1
  O  O392  1  0.22755276  0.91744711  0.05640573  1
  O  O393  1  0.22689308  0.91753207  0.30922012  1
  O  O394  1  0.22738482  0.91713990  0.55605319  1
  O  O395  1  0.22702403  0.91879124  0.80738916  1
  O  O396  1  0.72938438  0.24994605  0.05723698  1
  O  O397  1  0.72797697  0.24953264  0.30966163  1
  O  O398  1  0.72826003  0.24824618  0.55820932  1
  O  O399  1  0.72864475  0.25211354  0.80858715  1
  O  O400  1  0.72728805  0.58252690  0.05957072  1
  O  O401  1  0.72878481  0.58293142  0.30712944  1
  O  O402  1  0.72892218  0.58142226  0.55814457  1
  O  O403  1  0.72839443  0.58171721  0.80796213  1
  O  O404  1  0.72701324  0.91717810  0.06048622  1
  O  O405  1  0.72717049  0.91562983  0.30992496  1
  O  O406  1  0.72765355  0.91521784  0.55794988  1
  O  O407  1  0.72793243  0.91680470  0.80707285  1
  O  O408  1  0.27105341  0.08415590  0.19304801  1
  O  O409  1  0.27227937  0.08415020  0.44027458  1
  O  O410  1  0.27088243  0.08441570  0.69312828  1
  O  O411  1  0.27224019  0.08356432  0.94029106  1
  O  O412  1  0.27171796  0.41465345  0.19187561  1
  O  O413  1  0.27137637  0.41691707  0.44323812  1
  O  O414  1  0.27346460  0.41598551  0.69066464  1
  O  O415  1  0.27303505  0.41635287  0.94061134  1
  O  O416  1  0.27139311  0.75008864  0.19308005  1
  O  O417  1  0.27253072  0.74894018  0.44065222  1
  O  O418  1  0.27070753  0.74989079  0.69288912  1
  O  O419  1  0.27032316  0.75021951  0.94273377  1
  O  O420  1  0.77230267  0.08139979  0.19296003  1
  O  O421  1  0.77299304  0.08348651  0.44096097  1
  O  O422  1  0.77191888  0.08462273  0.69180634  1
  O  O423  1  0.77150786  0.08356242  0.94402296  1
  O  O424  1  0.77253266  0.41844492  0.19212401  1
  O  O425  1  0.77278156  0.41409309  0.44202063  1
  O  O426  1  0.77345804  0.41785277  0.69205543  1
  O  O427  1  0.77400630  0.41709973  0.94100558  1
  O  O428  1  0.77290121  0.74926958  0.19116130  1
  O  O429  1  0.77288925  0.75113694  0.44193582  1
  O  O430  1  0.77221814  0.75067950  0.69211378  1
  O  O431  1  0.77145468  0.74943407  0.94371798  1
  O  O432  1  0.02179782  0.08189032  0.18338865  1
  O  O433  1  0.02282692  0.08266138  0.43469566  1
  O  O434  1  0.02198869  0.08127004  0.68328482  1
  O  O435  1  0.02175273  0.08128256  0.93328824  1
  O  O436  1  0.02260077  0.41862690  0.18319440  1
  O  O437  1  0.02203287  0.41486216  0.43354714  1
  O  O438  1  0.02332589  0.41529314  0.68471695  1
  O  O439  1  0.02357151  0.41725273  0.93429951  1
  O  O440  1  0.02219420  0.74930050  0.18277858  1
  O  O441  1  0.02232454  0.75166298  0.43276973  1
  O  O442  1  0.02201842  0.75086518  0.68305094  1
  O  O443  1  0.02127154  0.74803590  0.93328270  1
  O  O444  1  0.52110094  0.08427922  0.18138590  1
  O  O445  1  0.52172251  0.08411565  0.43148968  1
  O  O446  1  0.52102832  0.08364307  0.68133324  1
  O  O447  1  0.52140212  0.08407662  0.93127498  1
  O  O448  1  0.52243222  0.41539543  0.18306343  1
  O  O449  1  0.52206963  0.41949962  0.43318938  1
  O  O450  1  0.52327397  0.41709311  0.68432883  1
  O  O451  1  0.52341956  0.41687493  0.93399339  1
  O  O452  1  0.52110256  0.74959035  0.18124504  1
  O  O453  1  0.52305052  0.75012084  0.43426043  1
  O  O454  1  0.52188428  0.75108160  0.68285421  1
  O  O455  1  0.52084434  0.74906571  0.93109382  1
  O  O456  1  0.47842744  0.25259602  0.06673986  1
  O  O457  1  0.47817479  0.25287855  0.31708690  1
  O  O458  1  0.47899262  0.25150582  0.56870143  1
  O  O459  1  0.47821420  0.25253691  0.81698438  1
  O  O460  1  0.47818966  0.58069704  0.06667301  1
  O  O461  1  0.47877629  0.58332649  0.31888148  1
  O  O462  1  0.47757534  0.58280528  0.56608343  1
  O  O463  1  0.47825819  0.58166775  0.81681494  1
  O  O464  1  0.47812628  0.91654439  0.06808915  1
  O  O465  1  0.47801855  0.91648764  0.31855173  1
  O  O466  1  0.47797250  0.91547300  0.56674932  1
  O  O467  1  0.47792890  0.91457589  0.81606035  1
  O  O468  1  0.97782686  0.25045740  0.06700681  1
  O  O469  1  0.97825878  0.25033023  0.31854744  1
  O  O470  1  0.97706379  0.25067010  0.56629656  1
  O  O471  1  0.97774440  0.25083842  0.81696765  1
  O  O472  1  0.97724257  0.58281900  0.06542572  1
  O  O473  1  0.97724535  0.58243345  0.31540570  1
  O  O474  1  0.97862106  0.58338105  0.56822181  1
  O  O475  1  0.97774300  0.58119667  0.81687800  1
  O  O476  1  0.97733762  0.91755278  0.06697757  1
  O  O477  1  0.97726847  0.91817461  0.31687096  1
  O  O478  1  0.97739045  0.91670224  0.56530375  1
  O  O479  1  0.97647751  0.91627308  0.81539577  1
  O  O480  1  0.07224124  0.31490240  0.07358613  1
  O  O481  1  0.07405788  0.31299505  0.32623188  1
  O  O482  1  0.07263289  0.31327825  0.57422224  1
  O  O483  1  0.07295509  0.31400775  0.82425020  1
  O  O484  1  0.07174407  0.64715820  0.07316832  1
  O  O485  1  0.07132871  0.64729790  0.32284156  1
  O  O486  1  0.07410251  0.64636605  0.57547026  1
  O  O487  1  0.07298477  0.64506193  0.82523534  1
  O  O488  1  0.07242162  0.98115096  0.07343038  1
  O  O489  1  0.07211965  0.98172848  0.32480733  1
  O  O490  1  0.07264483  0.98009987  0.57347255  1
  O  O491  1  0.07179045  0.97946117  0.82305951  1
  O  O492  1  0.57411198  0.31512019  0.07352307  1
  O  O493  1  0.57332770  0.31609317  0.32409869  1
  O  O494  1  0.57483396  0.31445903  0.57571907  1
  O  O495  1  0.57357080  0.31551183  0.82421820  1
  O  O496  1  0.57292346  0.64546233  0.07380772  1
  O  O497  1  0.57395720  0.64726318  0.32557770  1
  O  O498  1  0.57190977  0.64723156  0.57397386  1
  O  O499  1  0.57356818  0.64518250  0.82468133  1
  O  O500  1  0.57355148  0.98005028  0.07484202  1
  O  O501  1  0.57344423  0.97987093  0.32584121  1
  O  O502  1  0.57328972  0.97921262  0.57470983  1
  O  O503  1  0.57304933  0.97889405  0.82384260  1
  O  O504  1  0.42563848  0.02074545  0.17474842  1
  O  O505  1  0.42604457  0.02110651  0.42445012  1
  O  O506  1  0.42540357  0.02034844  0.67419466  1
  O  O507  1  0.42607523  0.02036215  0.92412929  1
  O  O508  1  0.42721336  0.35234291  0.17564641  1
  O  O509  1  0.42703390  0.35480548  0.42657363  1
  O  O510  1  0.42811509  0.35399418  0.67658521  1
  O  O511  1  0.42846220  0.35316472  0.92612974  1
  O  O512  1  0.42590954  0.68559440  0.17519087  1
  O  O513  1  0.42824062  0.68623826  0.42767497  1
  O  O514  1  0.42664304  0.68729087  0.67421316  1
  O  O515  1  0.42547305  0.68576528  0.92329159  1
  O  O516  1  0.92662609  0.01864027  0.17697507  1
  O  O517  1  0.92732852  0.01960641  0.42684134  1
  O  O518  1  0.92674520  0.01826048  0.67515881  1
  O  O519  1  0.92665112  0.01791325  0.92593368  1
  O  O520  1  0.92744525  0.35456823  0.17502327  1
  O  O521  1  0.92682032  0.35223569  0.42601959  1
  O  O522  1  0.92762385  0.35243973  0.67717488  1
  O  O523  1  0.92944091  0.35244938  0.92714529  1
  O  O524  1  0.92784808  0.68472115  0.17616139  1
  O  O525  1  0.92717706  0.68744828  0.42509428  1
  O  O526  1  0.92650462  0.68768209  0.67450727  1
  O  O527  1  0.92648806  0.68428716  0.92582515  1
  O  O528  1  0.17591547  0.02028451  0.20048108  1
  O  O529  1  0.17723786  0.02067056  0.44844467  1
  O  O530  1  0.17548243  0.02103316  0.69977189  1
  O  O531  1  0.17678522  0.02070441  0.94784496  1
  O  O532  1  0.17638047  0.35176510  0.19865208  1
  O  O533  1  0.17607523  0.35336652  0.45114212  1
  O  O534  1  0.17813746  0.35311084  0.69889551  1
  O  O535  1  0.17763327  0.35310877  0.94770038  1
  O  O536  1  0.17587052  0.68684314  0.20022698  1
  O  O537  1  0.17707098  0.68594614  0.44796448  1
  O  O538  1  0.17520505  0.68652715  0.69989138  1
  O  O539  1  0.17519559  0.68634117  0.94971213  1
  O  O540  1  0.67678899  0.01891313  0.20065982  1
  O  O541  1  0.67873539  0.01893368  0.44897977  1
  O  O542  1  0.67615895  0.02169226  0.69932177  1
  O  O543  1  0.67609115  0.01985093  0.95022347  1
  O  O544  1  0.67782695  0.35347161  0.19913913  1
  O  O545  1  0.67753359  0.35146103  0.44954056  1
  O  O546  1  0.67789445  0.35465146  0.70045548  1
  O  O547  1  0.67931662  0.35324238  0.94859701  1
  O  O548  1  0.67751460  0.68627985  0.19922877  1
  O  O549  1  0.67820403  0.68656432  0.45043746  1
  O  O550  1  0.67673469  0.68714424  0.69917090  1
  O  O551  1  0.67610060  0.68610816  0.95080313  1
  O  O552  1  0.32266006  0.31493215  0.05015875  1
  O  O553  1  0.32299584  0.31303391  0.30052159  1
  O  O554  1  0.32372385  0.31451224  0.55059222  1
  O  O555  1  0.32320001  0.31408181  0.80141787  1
  O  O556  1  0.32338025  0.64636724  0.04879634  1
  O  O557  1  0.32346743  0.64721352  0.30089854  1
  O  O558  1  0.32263354  0.64629605  0.55053447  1
  O  O559  1  0.32267325  0.64548284  0.79890615  1
  O  O560  1  0.32300641  0.98107996  0.04987465  1
  O  O561  1  0.32235640  0.98050213  0.30161131  1
  O  O562  1  0.32284737  0.98053719  0.54855810  1
  O  O563  1  0.32237001  0.98171530  0.80041674  1
  O  O564  1  0.82481154  0.31355496  0.05074672  1
  O  O565  1  0.82277107  0.31343772  0.30190588  1
  O  O566  1  0.82396095  0.31106684  0.55018682  1
  O  O567  1  0.82398204  0.31459834  0.80123686  1
  O  O568  1  0.82190223  0.64666582  0.05167760  1
  O  O569  1  0.82393490  0.64659183  0.29932781  1
  O  O570  1  0.82436885  0.64507489  0.55042984  1
  O  O571  1  0.82316998  0.64623944  0.80037523  1
  O  O572  1  0.82229762  0.98026367  0.05295800  1
  O  O573  1  0.82160491  0.97977467  0.30256223  1
  O  O574  1  0.82299866  0.97874978  0.54979310  1
  O  O575  1  0.82327949  0.98020026  0.79957901  1
  O  O576  1  0.42568707  0.14782554  0.17436395  1
  O  O577  1  0.42656479  0.14818771  0.42461393  1
  O  O578  1  0.42563076  0.14738921  0.67473230  1
  O  O579  1  0.42602112  0.14752502  0.92416804  1
  O  O580  1  0.42713073  0.47918845  0.17520332  1
  O  O581  1  0.42654681  0.48180653  0.42599631  1
  O  O582  1  0.42836637  0.48127495  0.67728276  1
  O  O583  1  0.42833776  0.48022206  0.92612262  1
  O  O584  1  0.42538080  0.81263558  0.17493239  1
  O  O585  1  0.42783806  0.81368369  0.42670082  1
  O  O586  1  0.42668352  0.81429396  0.67490411  1
  O  O587  1  0.42534499  0.81271956  0.92426709  1
  O  O588  1  0.92659388  0.14573538  0.17584601  1
  O  O589  1  0.92849716  0.14693600  0.42759452  1
  O  O590  1  0.92698084  0.14523154  0.67497981  1
  O  O591  1  0.92661284  0.14505096  0.92465443  1
  O  O592  1  0.92742470  0.48149116  0.17529534  1
  O  O593  1  0.92695283  0.47931348  0.42604484  1
  O  O594  1  0.92912492  0.47982395  0.67715736  1
  O  O595  1  0.92773669  0.47950919  0.92630844  1
  O  O596  1  0.92638685  0.81183654  0.17453555  1
  O  O597  1  0.92711928  0.81457665  0.42546810  1
  O  O598  1  0.92716495  0.81470453  0.67600044  1
  O  O599  1  0.92567860  0.81138639  0.92587666  1
  O  O600  1  0.07367817  0.18764676  0.07449607  1
  O  O601  1  0.07316853  0.18634719  0.32598660  1
  O  O602  1  0.07119501  0.18584482  0.57411411  1
  O  O603  1  0.07267861  0.18691110  0.82546626  1
  O  O604  1  0.07277438  0.52000413  0.07351383  1
  O  O605  1  0.07276938  0.51977641  0.32348966  1
  O  O606  1  0.07380401  0.51947975  0.57533676  1
  O  O607  1  0.07284623  0.51813173  0.82437248  1
  O  O608  1  0.07273547  0.85408057  0.07498839  1
  O  O609  1  0.07266015  0.85477028  0.32475264  1
  O  O610  1  0.07232339  0.85300377  0.57278509  1
  O  O611  1  0.07100624  0.85210835  0.82319305  1
  O  O612  1  0.57329225  0.18809118  0.07497655  1
  O  O613  1  0.57338134  0.18881905  0.32423324  1
  O  O614  1  0.57403667  0.18755697  0.57567004  1
  O  O615  1  0.57333446  0.18835521  0.82523529  1
  O  O616  1  0.57376817  0.51825898  0.07408412  1
  O  O617  1  0.57456482  0.52062428  0.32582220  1
  O  O618  1  0.57307261  0.51989166  0.57378178  1
  O  O619  1  0.57345737  0.51824271  0.82357807  1
  O  O620  1  0.57350669  0.85295815  0.07511661  1
  O  O621  1  0.57354520  0.85289982  0.32501230  1
  O  O622  1  0.57316811  0.85204896  0.57353378  1
  O  O623  1  0.57319746  0.85152337  0.82369185  1
  O  O624  1  0.32236691  0.18795171  0.04928785  1
  O  O625  1  0.32334127  0.18597611  0.30031978  1
  O  O626  1  0.32290008  0.18746968  0.55106015  1
  O  O627  1  0.32104085  0.18682725  0.80163711  1
  O  O628  1  0.32385653  0.51947957  0.04953996  1
  O  O629  1  0.32270086  0.51998462  0.30011960  1
  O  O630  1  0.32300143  0.51928300  0.55066329  1
  O  O631  1  0.32321289  0.51829992  0.80058879  1
  O  O632  1  0.32299728  0.85417687  0.04920012  1
  O  O633  1  0.32132391  0.85297880  0.30210868  1
  O  O634  1  0.32275235  0.85372397  0.54874175  1
  O  O635  1  0.32216205  0.85442111  0.79981988  1
  O  O636  1  0.82479133  0.18671987  0.04992372  1
  O  O637  1  0.82312644  0.18584225  0.30183292  1
  O  O638  1  0.82282996  0.18419905  0.55090842  1
  O  O639  1  0.82360477  0.18743650  0.80086240  1
  O  O640  1  0.82260837  0.51930389  0.05189716  1
  O  O641  1  0.82435207  0.51993458  0.29899326  1
  O  O642  1  0.82385377  0.51778662  0.55115545  1
  O  O643  1  0.82403509  0.51919046  0.80165109  1
  O  O644  1  0.82159255  0.85283666  0.05288214  1
  O  O645  1  0.82252982  0.85254467  0.30127107  1
  O  O646  1  0.82264662  0.85174796  0.55104629  1
  O  O647  1  0.82333714  0.85331992  0.80031766  1
  O  O648  1  0.17540046  0.14692281  0.20033479  1
  O  O649  1  0.17763621  0.14832626  0.44852005  1
  O  O650  1  0.17544939  0.14773727  0.70048918  1
  O  O651  1  0.17800231  0.14830069  0.94752401  1
  O  O652  1  0.17670381  0.47902999  0.19894555  1
  O  O653  1  0.17579532  0.47995773  0.45049377  1
  O  O654  1  0.17880650  0.48029659  0.69876512  1
  O  O655  1  0.17826651  0.48026778  0.94808386  1
  O  O656  1  0.17604720  0.81365755  0.20099310  1
  O  O657  1  0.17799646  0.81344409  0.44745142  1
  O  O658  1  0.17546938  0.81360021  0.69940508  1
  O  O659  1  0.17463681  0.81338914  0.94978619  1
  O  O660  1  0.67743515  0.14595443  0.20077450  1
  O  O661  1  0.67733351  0.14630867  0.44823469  1
  O  O662  1  0.67732094  0.14890212  0.69891987  1
  O  O663  1  0.67598941  0.14666945  0.95137014  1
  O  O664  1  0.67687992  0.48053487  0.19958503  1
  O  O665  1  0.67774444  0.47859729  0.44997108  1
  O  O666  1  0.67861173  0.48146258  0.69931528  1
  O  O667  1  0.67872023  0.48055461  0.94821204  1
  O  O668  1  0.67837454  0.81363909  0.19860027  1
  O  O669  1  0.67732522  0.81367759  0.44897838  1
  O  O670  1  0.67724876  0.81436406  0.69852890  1
  O  O671  1  0.67610910  0.81286631  0.95132982  1
