# generated using pymatgen
data_Na2MnFe(PO4)2
_symmetry_space_group_name_H-M   'P 1'
_cell_length_a   22.34548508
_cell_length_b   20.09785532
_cell_length_c   19.44620325
_cell_angle_alpha   89.94406102
_cell_angle_beta   90.01265856
_cell_angle_gamma   90.01452037
_symmetry_Int_Tables_number   1
_chemical_formula_structural   Na2MnFe(PO4)2
_chemical_formula_sum   'Na96 Mn48 Fe48 P96 O384'
_cell_volume   8733.21378574
_cell_formula_units_Z   48
loop_
 _symmetry_equiv_pos_site_id
 _symmetry_equiv_pos_as_xyz
  1  'x, y, z'
loop_
 _atom_site_type_symbol
 _atom_site_label
 _atom_site_symmetry_multiplicity
 _atom_site_fract_x
 _atom_site_fract_y
 _atom_site_fract_z
 _atom_site_occupancy
  Na  Na0  1  0.14078918  0.24854759  0.24428334  1
  Na  Na1  1  0.14023732  0.24942195  0.49296863  1
  Na  Na2  1  0.14042020  0.25048272  0.74152702  1
  Na  Na3  1  0.14074735  0.24918079  0.99377327  1
  Na  Na4  1  0.14057191  0.58314274  0.24440370  1
  Na  Na5  1  0.14027698  0.58315460  0.49393255  1
  Na  Na6  1  0.14005145  0.58311074  0.74219313  1
  Na  Na7  1  0.14049261  0.58239683  0.99388079  1
  Na  Na8  1  0.14030691  0.91708512  0.24329678  1
  Na  Na9  1  0.14084420  0.91743924  0.49286091  1
  Na  Na10  1  0.14105516  0.91774846  0.74279248  1
  Na  Na11  1  0.14039033  0.91775360  0.99521537  1
  Na  Na12  1  0.64060492  0.25015335  0.24380495  1
  Na  Na13  1  0.64000629  0.24992829  0.49216625  1
  Na  Na14  1  0.63970753  0.25000368  0.74350264  1
  Na  Na15  1  0.64023816  0.25131472  0.99488748  1
  Na  Na16  1  0.63949370  0.58203606  0.24374165  1
  Na  Na17  1  0.63965763  0.58420448  0.49224665  1
  Na  Na18  1  0.63953946  0.58414857  0.74312141  1
  Na  Na19  1  0.63955518  0.58248979  0.99470849  1
  Na  Na20  1  0.64024856  0.91805415  0.24538835  1
  Na  Na21  1  0.64063519  0.91767435  0.49305252  1
  Na  Na22  1  0.64022154  0.91694914  0.74385689  1
  Na  Na23  1  0.64029151  0.91717333  0.99567839  1
  Na  Na24  1  0.35955066  0.08367883  0.00719830  1
  Na  Na25  1  0.36037077  0.08349313  0.25786429  1
  Na  Na26  1  0.35999431  0.08384211  0.50734225  1
  Na  Na27  1  0.35977156  0.08519246  0.75476801  1
  Na  Na28  1  0.35932807  0.41626586  0.00733091  1
  Na  Na29  1  0.35935518  0.41758563  0.25689955  1
  Na  Na30  1  0.35964986  0.41633925  0.50670306  1
  Na  Na31  1  0.35957350  0.41703240  0.75528784  1
  Na  Na32  1  0.35909499  0.74973506  0.00728189  1
  Na  Na33  1  0.35904560  0.74893172  0.25761665  1
  Na  Na34  1  0.35951432  0.74899867  0.50674841  1
  Na  Na35  1  0.35961787  0.75016227  0.75546040  1
  Na  Na36  1  0.86016872  0.08349379  0.00715589  1
  Na  Na37  1  0.86025148  0.08269323  0.25751859  1
  Na  Na38  1  0.86085155  0.08257738  0.50555596  1
  Na  Na39  1  0.86029836  0.08347591  0.75521778  1
  Na  Na40  1  0.85947059  0.41611078  0.00530744  1
  Na  Na41  1  0.85923926  0.41518972  0.25527172  1
  Na  Na42  1  0.85953886  0.41659495  0.50593388  1
  Na  Na43  1  0.85999461  0.41674398  0.75594856  1
  Na  Na44  1  0.85940322  0.74885889  0.00579477  1
  Na  Na45  1  0.85958102  0.75002569  0.25695877  1
  Na  Na46  1  0.85969058  0.74981724  0.50575213  1
  Na  Na47  1  0.85941989  0.74902833  0.75527509  1
  Na  Na48  1  0.11061193  0.08300630  0.11969109  1
  Na  Na49  1  0.11094893  0.08195363  0.36823261  1
  Na  Na50  1  0.11008065  0.08443485  0.61691421  1
  Na  Na51  1  0.10989264  0.08367568  0.86875011  1
  Na  Na52  1  0.11009233  0.41642048  0.11848979  1
  Na  Na53  1  0.10970853  0.41528470  0.36961806  1
  Na  Na54  1  0.10988039  0.41643050  0.61811469  1
  Na  Na55  1  0.10971185  0.41587333  0.86652846  1
  Na  Na56  1  0.10947854  0.75097185  0.11959893  1
  Na  Na57  1  0.10966743  0.74930470  0.36901508  1
  Na  Na58  1  0.10968280  0.75034681  0.61823885  1
  Na  Na59  1  0.10958078  0.74957026  0.86890483  1
  Na  Na60  1  0.60988522  0.08495131  0.12027936  1
  Na  Na61  1  0.60991813  0.08382804  0.36864397  1
  Na  Na62  1  0.60915745  0.08469091  0.61786179  1
  Na  Na63  1  0.60951035  0.08396949  0.87002501  1
  Na  Na64  1  0.60946054  0.41731946  0.11853458  1
  Na  Na65  1  0.60929882  0.41716045  0.36776944  1
  Na  Na66  1  0.60890955  0.41734466  0.61713033  1
  Na  Na67  1  0.60918716  0.41719031  0.86966807  1
  Na  Na68  1  0.60888199  0.74887663  0.12029834  1
  Na  Na69  1  0.60886222  0.74989725  0.36854843  1
  Na  Na70  1  0.60925419  0.75041335  0.61778711  1
  Na  Na71  1  0.60898672  0.74985200  0.86911767  1
  Na  Na72  1  0.39045226  0.25034117  0.13220933  1
  Na  Na73  1  0.39057347  0.24956952  0.38282317  1
  Na  Na74  1  0.39004297  0.25061720  0.63038643  1
  Na  Na75  1  0.38983185  0.25100445  0.88082275  1
  Na  Na76  1  0.38928466  0.58271292  0.13279594  1
  Na  Na77  1  0.38984316  0.58252845  0.38188719  1
  Na  Na78  1  0.39017818  0.58304778  0.63010329  1
  Na  Na79  1  0.39011750  0.58320210  0.88160232  1
  Na  Na80  1  0.39037548  0.91764104  0.13330578  1
  Na  Na81  1  0.39021980  0.91810289  0.38256083  1
  Na  Na82  1  0.39014221  0.91773886  0.63149918  1
  Na  Na83  1  0.39018867  0.91722519  0.88064450  1
  Na  Na84  1  0.89023723  0.24873017  0.13209769  1
  Na  Na85  1  0.89100432  0.24782952  0.38122786  1
  Na  Na86  1  0.89106592  0.25045896  0.63007051  1
  Na  Na87  1  0.89103769  0.24915659  0.88028912  1
  Na  Na88  1  0.89008449  0.58300494  0.13107015  1
  Na  Na89  1  0.89018583  0.58188874  0.38121949  1
  Na  Na90  1  0.89080173  0.58268328  0.63132594  1
  Na  Na91  1  0.89026049  0.58229947  0.88001634  1
  Na  Na92  1  0.89098487  0.91753591  0.13217303  1
  Na  Na93  1  0.89063155  0.91650628  0.38207228  1
  Na  Na94  1  0.89059232  0.91677767  0.63008859  1
  Na  Na95  1  0.89087420  0.91659633  0.88034346  1
  Mn  Mn96  1  0.00091277  0.00102019  0.74968009  1
  Mn  Mn97  1  -0.00036994  0.83444474  -0.00061317  1
  Mn  Mn98  1  0.49997040  0.83314433  0.75002896  1
  Mn  Mn99  1  0.00015821  0.49919151  0.50036579  1
  Mn  Mn100  1  0.25017643  0.49905919  0.87487629  1
  Mn  Mn101  1  0.75027325  0.33400207  0.87485939  1
  Mn  Mn102  1  0.74961643  -0.00066272  0.62502318  1
  Mn  Mn103  1  0.74941204  0.50039328  0.62471777  1
  Mn  Mn104  1  0.75025558  0.66638533  0.37463149  1
  Mn  Mn105  1  0.25024811  0.83334620  0.12572858  1
  Mn  Mn106  1  0.24941969  0.16779354  0.87458666  1
  Mn  Mn107  1  0.49948873  0.83361493  0.49993431  1
  Mn  Mn108  1  0.25023942  0.33337120  0.37503556  1
  Mn  Mn109  1  0.00016434  0.33152914  0.24986792  1
  Mn  Mn110  1  0.00011137  0.49892589  0.25044489  1
  Mn  Mn111  1  0.24965645  0.66658192  0.87495584  1
  Mn  Mn112  1  0.49893389  0.16803190  0.00052642  1
  Mn  Mn113  1  0.75014401  0.66747382  0.62399162  1
  Mn  Mn114  1  0.74995665  0.83309240  0.87517693  1
  Mn  Mn115  1  0.00085769  0.83310955  0.75000450  1
  Mn  Mn116  1  -0.00003045  0.66678061  -0.00009169  1
  Mn  Mn117  1  0.49941983  0.83349235  0.25090405  1
  Mn  Mn118  1  0.24994340  0.66653077  0.62511227  1
  Mn  Mn119  1  0.00044121  0.33243628  -0.00078860  1
  Mn  Mn120  1  0.49873519  0.66582852  0.00014679  1
  Mn  Mn121  1  0.75086120  0.00086273  0.12539582  1
  Mn  Mn122  1  0.74875318  0.66568036  0.87553018  1
  Mn  Mn123  1  0.49936834  0.50059359  0.74898043  1
  Mn  Mn124  1  0.24976006  0.33278310  0.12569497  1
  Mn  Mn125  1  0.00009675  0.49979701  -0.00099485  1
  Mn  Mn126  1  0.74933869  0.66541532  0.12597827  1
  Mn  Mn127  1  0.49949988  0.83328984  0.00100170  1
  Mn  Mn128  1  0.75008594  0.83327130  0.12556265  1
  Mn  Mn129  1  0.25030414  0.83415569  0.87571021  1
  Mn  Mn130  1  0.50017337  0.00142448  0.75048081  1
  Mn  Mn131  1  0.25010005  0.83338582  0.37501376  1
  Mn  Mn132  1  0.00030869  0.66689214  0.25003711  1
  Mn  Mn133  1  0.00061663  0.16558928  0.00031223  1
  Mn  Mn134  1  0.74981232  0.16727844  0.87546842  1
  Mn  Mn135  1  0.49951230  0.33321759  0.74931579  1
  Mn  Mn136  1  0.49967434  0.33390097  0.25077542  1
  Mn  Mn137  1  0.74940830  0.33359851  0.62409835  1
  Mn  Mn138  1  0.49973903  0.00079192  0.00059082  1
  Mn  Mn139  1  0.25047605  0.00094674  0.87432290  1
  Mn  Mn140  1  0.75022241  0.33340127  0.37410195  1
  Mn  Mn141  1  0.75017102  0.16641725  0.62432653  1
  Mn  Mn142  1  0.75025284  0.00031324  0.87520674  1
  Mn  Mn143  1  0.00029679  0.83298032  0.50011680  1
  Fe  Fe144  1  0.24983086  0.83356461  0.62447593  1
  Fe  Fe145  1  0.74993305  0.33323047  0.12504373  1
  Fe  Fe146  1  0.25087400  0.00025324  0.37503498  1
  Fe  Fe147  1  0.50029780  0.16714692  0.50004964  1
  Fe  Fe148  1  0.25008600  0.00040222  0.62418439  1
  Fe  Fe149  1  0.49949744  0.66654421  0.74974392  1
  Fe  Fe150  1  0.00104634  0.16510603  0.25088139  1
  Fe  Fe151  1  0.50016955  0.50035436  0.49936267  1
  Fe  Fe152  1  -0.00020004  0.33245813  0.50024724  1
  Fe  Fe153  1  0.49997546  0.16777940  0.74966054  1
  Fe  Fe154  1  0.00045406  -0.00028009  0.25051342  1
  Fe  Fe155  1  0.25096908  0.16613856  0.12528875  1
  Fe  Fe156  1  0.25008302  0.16715900  0.62440038  1
  Fe  Fe157  1  0.50024859  0.16724700  0.25124112  1
  Fe  Fe158  1  0.00026131  0.33286008  0.74910245  1
  Fe  Fe159  1  0.24936774  0.49996919  0.37547369  1
  Fe  Fe160  1  0.75078137  0.16659178  0.37425763  1
  Fe  Fe161  1  -0.00011209  0.66619233  0.49995409  1
  Fe  Fe162  1  0.00010277  0.16674388  0.74877250  1
  Fe  Fe163  1  0.00106618  -0.00009911  0.49946407  1
  Fe  Fe164  1  -0.00055641  0.83359222  0.25032412  1
  Fe  Fe165  1  0.74994691  0.83349701  0.62471504  1
  Fe  Fe166  1  0.50001674  0.00087713  0.25152915  1
  Fe  Fe167  1  0.25023172  0.49972851  0.62469463  1
  Fe  Fe168  1  0.50025613  0.33335192  0.49949680  1
  Fe  Fe169  1  0.25085089  0.00051408  0.12531113  1
  Fe  Fe170  1  -0.00037841  0.66644610  0.74952032  1
  Fe  Fe171  1  0.49978880  0.33408858  0.00056632  1
  Fe  Fe172  1  0.00010134  0.00036877  0.00038060  1
  Fe  Fe173  1  0.24981912  0.66605884  0.37599675  1
  Fe  Fe174  1  0.00081803  0.16615597  0.49971487  1
  Fe  Fe175  1  0.00033138  0.49980407  0.74899091  1
  Fe  Fe176  1  0.74962962  0.83346808  0.37528967  1
  Fe  Fe177  1  0.49923378  0.66591239  0.25003222  1
  Fe  Fe178  1  0.74934385  0.49991318  0.87504702  1
  Fe  Fe179  1  0.74998690  0.49959249  0.37407783  1
  Fe  Fe180  1  0.49914768  0.49996374  0.25029349  1
  Fe  Fe181  1  0.49959982  0.66632608  0.49913888  1
  Fe  Fe182  1  0.75020762  0.49914125  0.12454199  1
  Fe  Fe183  1  0.75055373  0.00004515  0.37527544  1
  Fe  Fe184  1  0.24969186  0.33354158  0.62426142  1
  Fe  Fe185  1  0.24952292  0.66610143  0.12610055  1
  Fe  Fe186  1  0.75005731  0.16692290  0.12574151  1
  Fe  Fe187  1  0.49999563  0.00105991  0.50065927  1
  Fe  Fe188  1  0.24936147  0.49990560  0.12595350  1
  Fe  Fe189  1  0.24982160  0.33364526  0.87439098  1
  Fe  Fe190  1  0.25062871  0.16639119  0.37513967  1
  Fe  Fe191  1  0.49956118  0.50013387  0.00036709  1
  P  P192  1  0.04327705  0.24886864  0.10346342  1
  P  P193  1  0.04265490  0.24740194  0.35346862  1
  P  P194  1  0.04163612  0.24970603  0.60181741  1
  P  P195  1  0.04201054  0.24917869  0.85046486  1
  P  P196  1  0.04287667  0.58326080  0.10302603  1
  P  P197  1  0.04259488  0.58291411  0.35383533  1
  P  P198  1  0.04199887  0.58435172  0.60303372  1
  P  P199  1  0.04179240  0.58293930  0.85068328  1
  P  P200  1  0.04189488  0.91825119  0.10355381  1
  P  P201  1  0.04184791  0.91636433  0.35199917  1
  P  P202  1  0.04292400  0.91812319  0.60189931  1
  P  P203  1  0.04359586  0.91740374  0.85327156  1
  P  P204  1  0.54182325  0.25198323  0.10330496  1
  P  P205  1  0.54207124  0.24928054  0.35351973  1
  P  P206  1  0.54169155  0.25034201  0.60131627  1
  P  P207  1  0.54191136  0.24974689  0.85273000  1
  P  P208  1  0.54110980  0.58187659  0.10348056  1
  P  P209  1  0.54071593  0.58312033  0.35207268  1
  P  P210  1  0.54120874  0.58387385  0.60099998  1
  P  P211  1  0.54154292  0.58402165  0.85234873  1
  P  P212  1  0.54228799  0.91745686  0.10473031  1
  P  P213  1  0.54156491  0.91843319  0.35362753  1
  P  P214  1  0.54204233  0.91828546  0.60226665  1
  P  P215  1  0.54288048  0.91694500  0.85340647  1
  P  P216  1  0.45891871  0.08428379  0.14975985  1
  P  P217  1  0.45892083  0.08404501  0.39850831  1
  P  P218  1  0.45824024  0.08566891  0.64669785  1
  P  P219  1  0.45663979  0.08459201  0.89690689  1
  P  P220  1  0.45752487  0.41794530  0.14748937  1
  P  P221  1  0.45862775  0.41690022  0.39828946  1
  P  P222  1  0.45733707  0.41669854  0.64534486  1
  P  P223  1  0.45805791  0.41696898  0.89865130  1
  P  P224  1  0.45688376  0.74861427  0.14844600  1
  P  P225  1  0.45734094  0.74861878  0.39715347  1
  P  P226  1  0.45794435  0.74849982  0.64680409  1
  P  P227  1  0.45644216  0.74982359  0.89691888  1
  P  P228  1  0.95885391  0.08271581  0.14881918  1
  P  P229  1  0.95991983  0.08262108  0.39770174  1
  P  P230  1  0.95840933  0.08483406  0.64596253  1
  P  P231  1  0.95789456  0.08237008  0.89722452  1
  P  P232  1  0.95738949  0.41569410  0.14667201  1
  P  P233  1  0.95776238  0.41423324  0.39780656  1
  P  P234  1  0.95901724  0.41617906  0.64768794  1
  P  P235  1  0.95781360  0.41605535  0.89508158  1
  P  P236  1  0.95734417  0.75170035  0.14775786  1
  P  P237  1  0.95790574  0.74887047  0.39735029  1
  P  P238  1  0.95817166  0.74888925  0.64691433  1
  P  P239  1  0.95718582  0.74958581  0.89606921  1
  P  P240  1  0.20966169  0.08309304  0.22763902  1
  P  P241  1  0.20965005  0.08314537  0.47709813  1
  P  P242  1  0.20865685  0.08386735  0.72561494  1
  P  P243  1  0.20785025  0.08368996  0.97867067  1
  P  P244  1  0.20766585  0.41763602  0.22830415  1
  P  P245  1  0.20806317  0.41742296  0.47821923  1
  P  P246  1  0.20861731  0.41642862  0.72622177  1
  P  P247  1  0.20732969  0.41482455  0.97741122  1
  P  P248  1  0.20796094  0.74838224  0.22851377  1
  P  P249  1  0.20806917  0.74927581  0.47790600  1
  P  P250  1  0.20762832  0.75151663  0.72713122  1
  P  P251  1  0.20730586  0.74975583  0.97910720  1
  P  P252  1  0.70873665  0.08477838  0.22882184  1
  P  P253  1  0.70919062  0.08359377  0.47611728  1
  P  P254  1  0.70670889  0.08339850  0.72788028  1
  P  P255  1  0.70724900  0.08411204  0.97921668  1
  P  P256  1  0.70829130  0.41651345  0.22649720  1
  P  P257  1  0.70723447  0.41789550  0.47642142  1
  P  P258  1  0.70639823  0.41692896  0.72796735  1
  P  P259  1  0.70768801  0.41775139  0.97820773  1
  P  P260  1  0.70709033  0.75015400  0.22927066  1
  P  P261  1  0.70751930  0.75143127  0.47732673  1
  P  P262  1  0.70713886  0.75110148  0.72697539  1
  P  P263  1  0.70632198  0.74958691  0.97872837  1
  P  P264  1  0.29242991  0.24907582  0.02282502  1
  P  P265  1  0.29251040  0.24845181  0.27278476  1
  P  P266  1  0.29107633  0.25017608  0.52269996  1
  P  P267  1  0.29168754  0.25216967  0.77120616  1
  P  P268  1  0.29087539  0.58277372  0.02420005  1
  P  P269  1  0.29085735  0.58308107  0.27354271  1
  P  P270  1  0.29168400  0.58190935  0.52188629  1
  P  P271  1  0.29241819  0.58289876  0.77140569  1
  P  P272  1  0.29290289  0.91809753  0.02333794  1
  P  P273  1  0.29242811  0.91814950  0.27254890  1
  P  P274  1  0.29153729  0.91706234  0.52289975  1
  P  P275  1  0.29263983  0.91714612  0.77051183  1
  P  P276  1  0.79165092  0.25028179  0.02389747  1
  P  P277  1  0.79252579  0.24876199  0.27153211  1
  P  P278  1  0.79265908  0.24977580  0.52058529  1
  P  P279  1  0.79293465  0.25025571  0.77160362  1
  P  P280  1  0.79192590  0.58148015  0.02231417  1
  P  P281  1  0.79232809  0.58110601  0.27179412  1
  P  P282  1  0.79282620  0.58323732  0.52088265  1
  P  P283  1  0.79168497  0.58218196  0.77247161  1
  P  P284  1  0.79348700  0.91666842  0.02236267  1
  P  P285  1  0.79166134  0.91668657  0.27403414  1
  P  P286  1  0.79203545  0.91530975  0.52155345  1
  P  P287  1  0.79308073  0.91633808  0.77136750  1
  O  O288  1  0.03842514  0.24836903  0.18342915  1
  O  O289  1  0.03700786  0.24767849  0.43333084  1
  O  O290  1  0.03642432  0.24969405  0.68170327  1
  O  O291  1  0.03746197  0.24933553  0.93050283  1
  O  O292  1  0.03793746  0.58315005  0.18301969  1
  O  O293  1  0.03720383  0.58328592  0.43378949  1
  O  O294  1  0.03624106  0.58407772  0.68291112  1
  O  O295  1  0.03692784  0.58285380  0.93073257  1
  O  O296  1  0.03625629  0.91771679  0.18348233  1
  O  O297  1  0.03707226  0.91665192  0.43200477  1
  O  O298  1  0.03814270  0.91803913  0.68183677  1
  O  O299  1  0.03806818  0.91790509  0.93323174  1
  O  O300  1  0.53689174  0.25157657  0.18323579  1
  O  O301  1  0.53690136  0.24958769  0.43341911  1
  O  O302  1  0.53665644  0.24980762  0.68129638  1
  O  O303  1  0.53665397  0.25066179  0.93265929  1
  O  O304  1  0.53586128  0.58198812  0.18338370  1
  O  O305  1  0.53576948  0.58333523  0.43200573  1
  O  O306  1  0.53657121  0.58384349  0.68097911  1
  O  O307  1  0.53621688  0.58321761  0.93227872  1
  O  O308  1  0.53688692  0.91791557  0.18474296  1
  O  O309  1  0.53613906  0.91843165  0.43354215  1
  O  O310  1  0.53713821  0.91796209  0.68223780  1
  O  O311  1  0.53769675  0.91680950  0.93342035  1
  O  O312  1  0.46327537  0.08426076  0.06974997  1
  O  O313  1  0.46397413  0.08390271  0.31860164  1
  O  O314  1  0.46380292  0.08531556  0.56678087  1
  O  O315  1  0.46179468  0.08504225  0.81694448  1
  O  O316  1  0.46277478  0.41767651  0.06761099  1
  O  O317  1  0.46331401  0.41745623  0.31828795  1
  O  O318  1  0.46268613  0.41649974  0.56550236  1
  O  O319  1  0.46305202  0.41687484  0.81863623  1
  O  O320  1  0.46189028  0.74896857  0.06845754  1
  O  O321  1  0.46269045  0.74864847  0.31723574  1
  O  O322  1  0.46335856  0.74846523  0.56682895  1
  O  O323  1  0.46169272  0.74949378  0.81692421  1
  O  O324  1  0.96362868  0.08228234  0.06880799  1
  O  O325  1  0.96497252  0.08226085  0.31777551  1
  O  O326  1  0.96411264  0.08444046  0.56608256  1
  O  O327  1  0.96310493  0.08346558  0.81730206  1
  O  O328  1  0.96245642  0.41587088  0.06666568  1
  O  O329  1  0.96289608  0.41432675  0.31786837  1
  O  O330  1  0.96386095  0.41561591  0.56770498  1
  O  O331  1  0.96320326  0.41632798  0.81514949  1
  O  O332  1  0.96235746  0.75177659  0.06776822  1
  O  O333  1  0.96330386  0.75000573  0.31742021  1
  O  O334  1  0.96352090  0.74862912  0.56694355  1
  O  O335  1  0.96265585  0.74904342  0.81610573  1
  O  O336  1  0.21346907  0.08368122  0.05857784  1
  O  O337  1  0.21486464  0.08284763  0.30758276  1
  O  O338  1  0.21466610  0.08315074  0.55699036  1
  O  O339  1  0.21323079  0.08430814  0.80561432  1
  O  O340  1  0.21198926  0.41512988  0.05735675  1
  O  O341  1  0.21312707  0.41769832  0.30822298  1
  O  O342  1  0.21369012  0.41704782  0.55809193  1
  O  O343  1  0.21364812  0.41592600  0.80621439  1
  O  O344  1  0.21280512  0.74903635  0.05909684  1
  O  O345  1  0.21348615  0.74819592  0.30847313  1
  O  O346  1  0.21339592  0.75014704  0.55784652  1
  O  O347  1  0.21256605  0.75134077  0.80715673  1
  O  O348  1  0.71261395  0.08461531  0.05923720  1
  O  O349  1  0.71432626  0.08472554  0.30872519  1
  O  O350  1  0.71341036  0.08303405  0.55613693  1
  O  O351  1  0.71155591  0.08340694  0.80789350  1
  O  O352  1  0.71337215  0.41713452  0.05808121  1
  O  O353  1  0.71349872  0.41686214  0.30647409  1
  O  O354  1  0.71206917  0.41759107  0.55639474  1
  O  O355  1  0.71136421  0.41726887  0.80796555  1
  O  O356  1  0.71137805  0.74925778  0.05874661  1
  O  O357  1  0.71257421  0.75047171  0.30923358  1
  O  O358  1  0.71269973  0.75155923  0.55730809  1
  O  O359  1  0.71199165  0.75028329  0.80699216  1
  O  O360  1  0.28733523  0.24825877  0.19285977  1
  O  O361  1  0.28639885  0.24947439  0.44273486  1
  O  O362  1  0.28623127  0.25236126  0.69133310  1
  O  O363  1  0.28719795  0.24987580  0.94289049  1
  O  O364  1  0.28554686  0.58335011  0.19361088  1
  O  O365  1  0.28592934  0.58225622  0.44202722  1
  O  O366  1  0.28728532  0.58256054  0.69144044  1
  O  O367  1  0.28617604  0.58275789  0.94414631  1
  O  O368  1  0.28737663  0.91829283  0.19260167  1
  O  O369  1  0.28653972  0.91730695  0.44285583  1
  O  O370  1  0.28691770  0.91695685  0.69057686  1
  O  O371  1  0.28793063  0.91795626  0.94331012  1
  O  O372  1  0.78704274  0.24906299  0.19163015  1
  O  O373  1  0.78753676  0.24946961  0.44059102  1
  O  O374  1  0.78797526  0.25024082  0.69160476  1
  O  O375  1  0.78656262  0.25055044  0.94390604  1
  O  O376  1  0.78697592  0.58097611  0.19183431  1
  O  O377  1  0.78793549  0.58266662  0.44087109  1
  O  O378  1  0.78692209  0.58304368  0.69244767  1
  O  O379  1  0.78636688  0.58159327  0.94236517  1
  O  O380  1  0.78741116  0.91715197  0.19403528  1
  O  O381  1  0.78660948  0.91554230  0.44164536  1
  O  O382  1  0.78782033  0.91591159  0.69133932  1
  O  O383  1  0.78838066  0.91691685  0.94238141  1
  O  O384  1  0.22822871  0.24827536  0.05871065  1
  O  O385  1  0.22828420  0.24877318  0.30849372  1
  O  O386  1  0.22696322  0.25065906  0.55857916  1
  O  O387  1  0.22754893  0.25241132  0.80746381  1
  O  O388  1  0.22666190  0.58292732  0.05988763  1
  O  O389  1  0.22688201  0.58292626  0.31003769  1
  O  O390  1  0.22773805  0.58184830  0.55838735  1
  O  O391  1  0.22808739  0.58265719  0.80669639  1
  O  O392  1  0.22856311  0.91821915  0.05876081  1
  O  O393  1  0.22817340  0.91812349  0.30819704  1
  O  O394  1  0.22737907  0.91731997  0.55877688  1
  O  O395  1  0.22853778  0.91724418  0.80660578  1
  O  O396  1  0.72745361  0.25014044  0.05980044  1
  O  O397  1  0.72837796  0.24863238  0.30757157  1
  O  O398  1  0.72822491  0.24988656  0.55568495  1
  O  O399  1  0.72846429  0.25051987  0.80651952  1
  O  O400  1  0.72770719  0.58119002  0.05822556  1
  O  O401  1  0.72804289  0.58154004  0.30750137  1
  O  O402  1  0.72832322  0.58375398  0.55572659  1
  O  O403  1  0.72723417  0.58152392  0.80768478  1
  O  O404  1  0.72902824  0.91710698  0.05737089  1
  O  O405  1  0.72732429  0.91662208  0.30928464  1
  O  O406  1  0.72788659  0.91488578  0.55775077  1
  O  O407  1  0.72869773  0.91684926  0.80663406  1
  O  O408  1  0.27368774  0.08317970  0.19118561  1
  O  O409  1  0.27369816  0.08304526  0.44082641  1
  O  O410  1  0.27288998  0.08328144  0.69004990  1
  O  O411  1  0.27196840  0.08437988  0.94270528  1
  O  O412  1  0.27179057  0.41764985  0.19227986  1
  O  O413  1  0.27208537  0.41780170  0.44184811  1
  O  O414  1  0.27272796  0.41635619  0.69015479  1
  O  O415  1  0.27184081  0.41464808  0.94213448  1
  O  O416  1  0.27206819  0.74840786  0.19247014  1
  O  O417  1  0.27221854  0.74910212  0.44203519  1
  O  O418  1  0.27195523  0.75136258  0.69172061  1
  O  O419  1  0.27158220  0.74988844  0.94352656  1
  O  O420  1  0.77281942  0.08523315  0.19257725  1
  O  O421  1  0.77355064  0.08393176  0.44093023  1
  O  O422  1  0.77128577  0.08297827  0.69318616  1
  O  O423  1  0.77162800  0.08381517  0.94392415  1
  O  O424  1  0.77239040  0.41604545  0.19036795  1
  O  O425  1  0.77172055  0.41807850  0.44132883  1
  O  O426  1  0.77094540  0.41673869  0.69308091  1
  O  O427  1  0.77175762  0.41859654  0.94177030  1
  O  O428  1  0.77137801  0.74944101  0.19384806  1
  O  O429  1  0.77183634  0.75113813  0.44179298  1
  O  O430  1  0.77161726  0.75162744  0.69169221  1
  O  O431  1  0.77076752  0.74916951  0.94372582  1
  O  O432  1  0.02313605  0.08267286  0.18466060  1
  O  O433  1  0.02398292  0.08298995  0.43394266  1
  O  O434  1  0.02255140  0.08544471  0.68218430  1
  O  O435  1  0.02223589  0.08159726  0.93296284  1
  O  O436  1  0.02182098  0.41554461  0.18177631  1
  O  O437  1  0.02205355  0.41438197  0.43336283  1
  O  O438  1  0.02313248  0.41707146  0.68362252  1
  O  O439  1  0.02207780  0.41608209  0.93084275  1
  O  O440  1  0.02170565  0.75189492  0.18319150  1
  O  O441  1  0.02209293  0.74807904  0.43334243  1
  O  O442  1  0.02237925  0.74863543  0.68276824  1
  O  O443  1  0.02144820  0.75020072  0.93165522  1
  O  O444  1  0.52318104  0.08421148  0.18531076  1
  O  O445  1  0.52304127  0.08428035  0.43461385  1
  O  O446  1  0.52223878  0.08616586  0.68317018  1
  O  O447  1  0.52097924  0.08463459  0.93226616  1
  O  O448  1  0.52169355  0.41834295  0.18355151  1
  O  O449  1  0.52281981  0.41616761  0.43401878  1
  O  O450  1  0.52144775  0.41685904  0.68128545  1
  O  O451  1  0.52220579  0.41732262  0.93470675  1
  O  O452  1  0.52121346  0.74859533  0.18390020  1
  O  O453  1  0.52155068  0.74895831  0.43298039  1
  O  O454  1  0.52205403  0.74826859  0.68294391  1
  O  O455  1  0.52078132  0.74970766  0.93228222  1
  O  O456  1  0.47750754  0.25253675  0.06768482  1
  O  O457  1  0.47783350  0.24916784  0.31776284  1
  O  O458  1  0.47751262  0.25060896  0.56529198  1
  O  O459  1  0.47764115  0.24894532  0.81680638  1
  O  O460  1  0.47692002  0.58146194  0.06746703  1
  O  O461  1  0.47658318  0.58291272  0.31587255  1
  O  O462  1  0.47697995  0.58396423  0.56528657  1
  O  O463  1  0.47730373  0.58478178  0.81639290  1
  O  O464  1  0.47796896  0.91726608  0.06926290  1
  O  O465  1  0.47741310  0.91850645  0.31769854  1
  O  O466  1  0.47765952  0.91833648  0.56693247  1
  O  O467  1  0.47851697  0.91709184  0.81815114  1
  O  O468  1  0.97887117  0.24900126  0.06827077  1
  O  O469  1  0.97860726  0.24685522  0.31708655  1
  O  O470  1  0.97765566  0.24911867  0.56534814  1
  O  O471  1  0.97771150  0.24872916  0.81494637  1
  O  O472  1  0.97837947  0.58312076  0.06808556  1
  O  O473  1  0.97834996  0.58298824  0.31828363  1
  O  O474  1  0.97795760  0.58442495  0.56659821  1
  O  O475  1  0.97755198  0.58238952  0.81493910  1
  O  O476  1  0.97787760  0.91878353  0.06700433  1
  O  O477  1  0.97760619  0.91665592  0.31619434  1
  O  O478  1  0.97855713  0.91803263  0.56659250  1
  O  O479  1  0.97933080  0.91710129  0.81771993  1
  O  O480  1  0.07417220  0.31245759  0.07510815  1
  O  O481  1  0.07365721  0.31114357  0.32554314  1
  O  O482  1  0.07196471  0.31375026  0.57337254  1
  O  O483  1  0.07217569  0.31314507  0.82180041  1
  O  O484  1  0.07355785  0.64702525  0.07498650  1
  O  O485  1  0.07404930  0.64602809  0.32537326  1
  O  O486  1  0.07303261  0.64771341  0.57440667  1
  O  O487  1  0.07210565  0.64705276  0.82281883  1
  O  O488  1  0.07303950  0.98167064  0.07517586  1
  O  O489  1  0.07321350  0.97965130  0.32364554  1
  O  O490  1  0.07353369  0.98168420  0.57319050  1
  O  O491  1  0.07484755  0.98059155  0.82462694  1
  O  O492  1  0.57250628  0.31553461  0.07455859  1
  O  O493  1  0.57326948  0.31274148  0.32520829  1
  O  O494  1  0.57251567  0.31415821  0.57332809  1
  O  O495  1  0.57270224  0.31335436  0.82421348  1
  O  O496  1  0.57218699  0.64553861  0.07544968  1
  O  O497  1  0.57147311  0.64680471  0.32347717  1
  O  O498  1  0.57249379  0.64713916  0.57252034  1
  O  O499  1  0.57241217  0.64765269  0.82407706  1
  O  O500  1  0.57353371  0.98071975  0.07620925  1
  O  O501  1  0.57267387  0.98176719  0.32513046  1
  O  O502  1  0.57270812  0.98198505  0.57392430  1
  O  O503  1  0.57392557  0.98052765  0.82548679  1
  O  O504  1  0.42816786  0.02065013  0.17824893  1
  O  O505  1  0.42823764  0.02034764  0.42728317  1
  O  O506  1  0.42719244  0.02197068  0.67460398  1
  O  O507  1  0.42588871  0.02081900  0.92507696  1
  O  O508  1  0.42651599  0.35437853  0.17594429  1
  O  O509  1  0.42737958  0.35326583  0.42602107  1
  O  O510  1  0.42620525  0.35336829  0.67408870  1
  O  O511  1  0.42760817  0.35306418  0.92686861  1
  O  O512  1  0.42626909  0.68488641  0.17665260  1
  O  O513  1  0.42657472  0.68516155  0.42575606  1
  O  O514  1  0.42680670  0.68526561  0.67549836  1
  O  O515  1  0.42502433  0.68660632  0.92541396  1
  O  O516  1  0.92768336  0.01947992  0.17760415  1
  O  O517  1  0.92929257  0.01881661  0.42634920  1
  O  O518  1  0.92747817  0.02112864  0.67407029  1
  O  O519  1  0.92703078  0.01882373  0.92550221  1
  O  O520  1  0.92641361  0.35215315  0.17475643  1
  O  O521  1  0.92718044  0.35056057  0.42622417  1
  O  O522  1  0.92877584  0.35222539  0.67625275  1
  O  O523  1  0.92677840  0.35249861  0.92347983  1
  O  O524  1  0.92639645  0.68785960  0.17529440  1
  O  O525  1  0.92679123  0.68526842  0.42514601  1
  O  O526  1  0.92689411  0.68571146  0.67562511  1
  O  O527  1  0.92623045  0.68613404  0.92463017  1
  O  O528  1  0.17869058  0.01954563  0.19914121  1
  O  O529  1  0.17857579  0.01968777  0.44856502  1
  O  O530  1  0.17733178  0.02053626  0.69760910  1
  O  O531  1  0.17703715  0.02014670  0.95019843  1
  O  O532  1  0.17662443  0.35379600  0.20089796  1
  O  O533  1  0.17700866  0.35382066  0.45009505  1
  O  O534  1  0.17728910  0.35325266  0.69765965  1
  O  O535  1  0.17687283  0.35127416  0.94845697  1
  O  O536  1  0.17679350  0.68526342  0.19979539  1
  O  O537  1  0.17739716  0.68544568  0.45005712  1
  O  O538  1  0.17645046  0.68788812  0.69953389  1
  O  O539  1  0.17600625  0.68664230  0.95029638  1
  O  O540  1  0.67778155  0.02097215  0.20116370  1
  O  O541  1  0.67893808  0.01963823  0.44758589  1
  O  O542  1  0.67547199  0.02015635  0.69951386  1
  O  O543  1  0.67616812  0.02053697  0.95137342  1
  O  O544  1  0.67739355  0.35265422  0.19878913  1
  O  O545  1  0.67637802  0.35425889  0.44844213  1
  O  O546  1  0.67556821  0.35334808  0.69955024  1
  O  O547  1  0.67692273  0.35397508  0.95008572  1
  O  O548  1  0.67576306  0.68660796  0.20160551  1
  O  O549  1  0.67633619  0.68778633  0.44961435  1
  O  O550  1  0.67644360  0.68744143  0.69863351  1
  O  O551  1  0.67504154  0.68626049  0.95050421  1
  O  O552  1  0.32332358  0.31255133  0.05132551  1
  O  O553  1  0.32366677  0.31223268  0.30027970  1
  O  O554  1  0.32221535  0.31382318  0.55028491  1
  O  O555  1  0.32277181  0.31529702  0.80039316  1
  O  O556  1  0.32184834  0.64630133  0.05241558  1
  O  O557  1  0.32174343  0.64661967  0.30220254  1
  O  O558  1  0.32306908  0.64540412  0.54971090  1
  O  O559  1  0.32310711  0.64663257  0.79948475  1
  O  O560  1  0.32370069  0.98160230  0.05177311  1
  O  O561  1  0.32353029  0.98126298  0.30149281  1
  O  O562  1  0.32284984  0.98037568  0.55112887  1
  O  O563  1  0.32389696  0.98069150  0.79847517  1
  O  O564  1  0.82238297  0.31407983  0.05181241  1
  O  O565  1  0.82371529  0.31235047  0.29946769  1
  O  O566  1  0.82341017  0.31351686  0.54863510  1
  O  O567  1  0.82404949  0.31361777  0.79983006  1
  O  O568  1  0.82272267  0.64533713  0.05019331  1
  O  O569  1  0.82366836  0.64470631  0.29933411  1
  O  O570  1  0.82382521  0.64683491  0.54891073  1
  O  O571  1  0.82241904  0.64581210  0.80074346  1
  O  O572  1  0.82477547  0.97989159  0.05076396  1
  O  O573  1  0.82211922  0.98049857  0.30268923  1
  O  O574  1  0.82297412  0.97910032  0.54940818  1
  O  O575  1  0.82428520  0.97990782  0.79918211  1
  O  O576  1  0.42836200  0.14811957  0.17789448  1
  O  O577  1  0.42765797  0.14743883  0.42680088  1
  O  O578  1  0.42713872  0.14906353  0.67506745  1
  O  O579  1  0.42529007  0.14766797  0.92557389  1
  O  O580  1  0.42634628  0.48109028  0.17639498  1
  O  O581  1  0.42834446  0.48066783  0.42700570  1
  O  O582  1  0.42606580  0.48002127  0.67371777  1
  O  O583  1  0.42700420  0.48055888  0.92654012  1
  O  O584  1  0.42576683  0.81211950  0.17635251  1
  O  O585  1  0.42611354  0.81227207  0.42482436  1
  O  O586  1  0.42710937  0.81249997  0.67410809  1
  O  O587  1  0.42562804  0.81345254  0.92510124  1
  O  O588  1  0.92848481  0.14666410  0.17691060  1
  O  O589  1  0.92854197  0.14591744  0.42580428  1
  O  O590  1  0.92715363  0.14805380  0.67450307  1
  O  O591  1  0.92702555  0.14585660  0.92585587  1
  O  O592  1  0.92647736  0.47911925  0.17500156  1
  O  O593  1  0.92659932  0.47778845  0.42550308  1
  O  O594  1  0.92757429  0.47962069  0.67541762  1
  O  O595  1  0.92655815  0.47930733  0.92361265  1
  O  O596  1  0.92657938  0.81505598  0.17656412  1
  O  O597  1  0.92709459  0.81243020  0.42573344  1
  O  O598  1  0.92754023  0.81296898  0.67425283  1
  O  O599  1  0.92590498  0.81307018  0.92377060  1
  O  O600  1  0.07438513  0.18563791  0.07487584  1
  O  O601  1  0.07386605  0.18415233  0.32486035  1
  O  O602  1  0.07326334  0.18662560  0.57340513  1
  O  O603  1  0.07311103  0.18572806  0.82239211  1
  O  O604  1  0.07392674  0.51993871  0.07465940  1
  O  O605  1  0.07336153  0.51903911  0.32619894  1
  O  O606  1  0.07322352  0.52071184  0.57528174  1
  O  O607  1  0.07305133  0.51957533  0.82246919  1
  O  O608  1  0.07295943  0.85466739  0.07549608  1
  O  O609  1  0.07207256  0.85231245  0.32386254  1
  O  O610  1  0.07394392  0.85450685  0.57414940  1
  O  O611  1  0.07463176  0.85375209  0.82546204  1
  O  O612  1  0.57272255  0.18840937  0.07528564  1
  O  O613  1  0.57287364  0.18587025  0.32472322  1
  O  O614  1  0.57269186  0.18694963  0.57280934  1
  O  O615  1  0.57288375  0.18625543  0.82453730  1
  O  O616  1  0.57215859  0.51869302  0.07448732  1
  O  O617  1  0.57175348  0.51956442  0.32384277  1
  O  O618  1  0.57149695  0.51989682  0.57241824  1
  O  O619  1  0.57242406  0.52052245  0.82402308  1
  O  O620  1  0.57320518  0.85368977  0.07702417  1
  O  O621  1  0.57252991  0.85464069  0.32609518  1
  O  O622  1  0.57304796  0.85474601  0.57429697  1
  O  O623  1  0.57381160  0.85350766  0.82508788  1
  O  O624  1  0.32350771  0.18558178  0.05110336  1
  O  O625  1  0.32324175  0.18516953  0.30190483  1
  O  O626  1  0.32155459  0.18648817  0.55161652  1
  O  O627  1  0.32259901  0.18836271  0.79903591  1
  O  O628  1  0.32125193  0.51878097  0.05242228  1
  O  O629  1  0.32188595  0.51939999  0.30170227  1
  O  O630  1  0.32264147  0.51843044  0.55037147  1
  O  O631  1  0.32387456  0.51977060  0.79994536  1
  O  O632  1  0.32385522  0.85442838  0.05124398  1
  O  O633  1  0.32333439  0.85429090  0.30025309  1
  O  O634  1  0.32190142  0.85293173  0.55085207  1
  O  O635  1  0.32386629  0.85389130  0.79921748  1
  O  O636  1  0.82257182  0.18658931  0.05185776  1
  O  O637  1  0.82357724  0.18548113  0.30040927  1
  O  O638  1  0.82390955  0.18656941  0.54904793  1
  O  O639  1  0.82373332  0.18671361  0.79999369  1
  O  O640  1  0.82323268  0.51826979  0.05074761  1
  O  O641  1  0.82295417  0.51757336  0.30047137  1
  O  O642  1  0.82387612  0.52002952  0.54972874  1
  O  O643  1  0.82247837  0.51856870  0.80056683  1
  O  O644  1  0.82404476  0.85287687  0.05041512  1
  O  O645  1  0.82245958  0.85301285  0.30210832  1
  O  O646  1  0.82316399  0.85205586  0.55032395  1
  O  O647  1  0.82397923  0.85291561  0.79993782  1
  O  O648  1  0.17874023  0.14678209  0.19944581  1
  O  O649  1  0.17890148  0.14686949  0.44860002  1
  O  O650  1  0.17860211  0.14795550  0.69708628  1
  O  O651  1  0.17613016  0.14676457  0.95010904  1
  O  O652  1  0.17671163  0.48091368  0.19949371  1
  O  O653  1  0.17678691  0.48070484  0.44979344  1
  O  O654  1  0.17814612  0.48050205  0.69837923  1
  O  O655  1  0.17634379  0.47833387  0.94896113  1
  O  O656  1  0.17704860  0.81239448  0.20116638  1
  O  O657  1  0.17666330  0.81254609  0.44954123  1
  O  O658  1  0.17705905  0.81504647  0.69832382  1
  O  O659  1  0.17647067  0.81365194  0.95157978  1
  O  O660  1  0.67746461  0.14796124  0.20001455  1
  O  O661  1  0.67814168  0.14710882  0.44807726  1
  O  O662  1  0.67615315  0.14703433  0.69937634  1
  O  O663  1  0.67612982  0.14748312  0.95076742  1
  O  O664  1  0.67745924  0.48005582  0.19810705  1
  O  O665  1  0.67658744  0.48145296  0.44791069  1
  O  O666  1  0.67523424  0.48016221  0.69925754  1
  O  O667  1  0.67630642  0.48094916  0.94971449  1
  O  O668  1  0.67617165  0.81363802  0.20097795  1
  O  O669  1  0.67673975  0.81484527  0.44855590  1
  O  O670  1  0.67639952  0.81469824  0.69874858  1
  O  O671  1  0.67570249  0.81332154  0.95067085  1
