# generated using pymatgen
data_Na2MnFe(PO4)2
_symmetry_space_group_name_H-M   'P 1'
_cell_length_a   22.34151444
_cell_length_b   20.09587633
_cell_length_c   19.45265062
_cell_angle_alpha   90.02646361
_cell_angle_beta   89.90739543
_cell_angle_gamma   90.07652940
_symmetry_Int_Tables_number   1
_chemical_formula_structural   Na2MnFe(PO4)2
_chemical_formula_sum   'Na96 Mn48 Fe48 P96 O384'
_cell_volume   8733.68138487
_cell_formula_units_Z   48
loop_
 _symmetry_equiv_pos_site_id
 _symmetry_equiv_pos_as_xyz
  1  'x, y, z'
loop_
 _atom_site_type_symbol
 _atom_site_label
 _atom_site_symmetry_multiplicity
 _atom_site_fract_x
 _atom_site_fract_y
 _atom_site_fract_z
 _atom_site_occupancy
  Na  Na0  1  0.13971085  0.25060262  0.24418781  1
  Na  Na1  1  0.13984266  0.24996630  0.49482458  1
  Na  Na2  1  0.14088062  0.25051453  0.74356451  1
  Na  Na3  1  0.14076086  0.24988545  0.99421156  1
  Na  Na4  1  0.13946761  0.58441321  0.24323159  1
  Na  Na5  1  0.14050824  0.58367711  0.49408680  1
  Na  Na6  1  0.14012351  0.58279211  0.74412924  1
  Na  Na7  1  0.13965293  0.58480078  0.99352532  1
  Na  Na8  1  0.14056221  0.91580627  0.24408946  1
  Na  Na9  1  0.14017138  0.91594364  0.49355463  1
  Na  Na10  1  0.14045206  0.91745838  0.74402462  1
  Na  Na11  1  0.14107739  0.91762565  0.99343631  1
  Na  Na12  1  0.64098080  0.24848925  0.24256546  1
  Na  Na13  1  0.64044028  0.25015600  0.49366926  1
  Na  Na14  1  0.64146993  0.24980901  0.74371713  1
  Na  Na15  1  0.64119771  0.24848952  0.99395871  1
  Na  Na16  1  0.64042850  0.58150943  0.24373245  1
  Na  Na17  1  0.64061445  0.58273517  0.49476988  1
  Na  Na18  1  0.64084190  0.58357805  0.74234418  1
  Na  Na19  1  0.64127295  0.58232720  0.99286651  1
  Na  Na20  1  0.64110344  0.91714564  0.24376469  1
  Na  Na21  1  0.64067213  0.91607401  0.49393980  1
  Na  Na22  1  0.64165726  0.91668926  0.74328303  1
  Na  Na23  1  0.64169798  0.91662387  0.99248745  1
  Na  Na24  1  0.35981099  0.08393955  0.00548034  1
  Na  Na25  1  0.35981114  0.08353421  0.25558379  1
  Na  Na26  1  0.35955132  0.08335659  0.50609481  1
  Na  Na27  1  0.35915307  0.08322922  0.75585770  1
  Na  Na28  1  0.35930455  0.41778716  0.00571875  1
  Na  Na29  1  0.35953718  0.41767997  0.25585714  1
  Na  Na30  1  0.35879664  0.41580162  0.50641818  1
  Na  Na31  1  0.35947472  0.41616128  0.75578104  1
  Na  Na32  1  0.35993506  0.75106488  0.00489931  1
  Na  Na33  1  0.35953374  0.74986849  0.25602327  1
  Na  Na34  1  0.35922571  0.74915192  0.50613224  1
  Na  Na35  1  0.35953163  0.75025374  0.75619551  1
  Na  Na36  1  0.85919935  0.08373834  0.00628783  1
  Na  Na37  1  0.85942989  0.08328401  0.25630847  1
  Na  Na38  1  0.85934483  0.08386779  0.50808963  1
  Na  Na39  1  0.85887739  0.08370509  0.75624911  1
  Na  Na40  1  0.85926363  0.41574401  0.00735682  1
  Na  Na41  1  0.85934405  0.41645762  0.25701915  1
  Na  Na42  1  0.85848517  0.41753303  0.50701930  1
  Na  Na43  1  0.85926422  0.41723807  0.75688357  1
  Na  Na44  1  0.85979962  0.74889331  0.00660332  1
  Na  Na45  1  0.85974970  0.74883395  0.25722240  1
  Na  Na46  1  0.85901117  0.74966753  0.50685700  1
  Na  Na47  1  0.85929038  0.75112242  0.75710686  1
  Na  Na48  1  0.10989407  0.08390268  0.11849799  1
  Na  Na49  1  0.10889759  0.08360297  0.36977323  1
  Na  Na50  1  0.10935564  0.08397383  0.61888745  1
  Na  Na51  1  0.11016743  0.08307543  0.86815990  1
  Na  Na52  1  0.10897617  0.41806262  0.11946254  1
  Na  Na53  1  0.10867517  0.41746736  0.36928268  1
  Na  Na54  1  0.10970659  0.41714729  0.61903506  1
  Na  Na55  1  0.10984968  0.41798047  0.86887802  1
  Na  Na56  1  0.10963688  0.74903938  0.11967255  1
  Na  Na57  1  0.10975290  0.74939058  0.36777004  1
  Na  Na58  1  0.10973653  0.75197910  0.61865723  1
  Na  Na59  1  0.10953034  0.74938439  0.86872462  1
  Na  Na60  1  0.61087186  0.08282361  0.11759449  1
  Na  Na61  1  0.61044256  0.08386703  0.36919780  1
  Na  Na62  1  0.61061615  0.08232700  0.61773921  1
  Na  Na63  1  0.61107537  0.08349749  0.86842085  1
  Na  Na64  1  0.61042480  0.41571252  0.11850362  1
  Na  Na65  1  0.60984628  0.41568627  0.36803565  1
  Na  Na66  1  0.61039079  0.41621487  0.61837190  1
  Na  Na67  1  0.61017589  0.41636741  0.86818465  1
  Na  Na68  1  0.61019214  0.74941411  0.11855015  1
  Na  Na69  1  0.61013001  0.74920292  0.36953367  1
  Na  Na70  1  0.61055228  0.74905338  0.61859867  1
  Na  Na71  1  0.61075881  0.74951189  0.86743375  1
  Na  Na72  1  0.39037588  0.24965504  0.13038230  1
  Na  Na73  1  0.39038314  0.24934905  0.38027978  1
  Na  Na74  1  0.38984582  0.24949464  0.63143689  1
  Na  Na75  1  0.39008440  0.24979972  0.88057934  1
  Na  Na76  1  0.39030259  0.58430048  0.13060260  1
  Na  Na77  1  0.39007894  0.58360821  0.38065233  1
  Na  Na78  1  0.39005626  0.58278480  0.63146045  1
  Na  Na79  1  0.39039891  0.58386964  0.88013190  1
  Na  Na80  1  0.39117205  0.91715898  0.12983393  1
  Na  Na81  1  0.39064881  0.91676193  0.38121347  1
  Na  Na82  1  0.39009369  0.91496594  0.63089799  1
  Na  Na83  1  0.39040294  0.91721785  0.88105526  1
  Na  Na84  1  0.88959663  0.25069350  0.13251437  1
  Na  Na85  1  0.88977149  0.24951602  0.38207950  1
  Na  Na86  1  0.88923472  0.25053492  0.63242252  1
  Na  Na87  1  0.88955196  0.25097441  0.88232311  1
  Na  Na88  1  0.89027753  0.58285799  0.13250775  1
  Na  Na89  1  0.88901505  0.58352692  0.38118732  1
  Na  Na90  1  0.88930486  0.58468090  0.63240788  1
  Na  Na91  1  0.89003692  0.58316572  0.88155426  1
  Na  Na92  1  0.89025182  0.91621744  0.13105641  1
  Na  Na93  1  0.89050633  0.91693868  0.38149350  1
  Na  Na94  1  0.88959436  0.91748054  0.63212920  1
  Na  Na95  1  0.88955408  0.91528806  0.88198855  1
  Mn  Mn96  1  0.74987915  0.83348608  0.12492226  1
  Mn  Mn97  1  0.00002033  0.16724735  0.00044260  1
  Mn  Mn98  1  0.50068238  0.83338253  0.24977506  1
  Mn  Mn99  1  0.24931026  0.66670124  0.62506937  1
  Mn  Mn100  1  0.50039564  0.16627272  0.74950913  1
  Mn  Mn101  1  0.50101857  0.33348704  0.74995984  1
  Mn  Mn102  1  0.50121262  0.00076527  0.25018429  1
  Mn  Mn103  1  0.00013846  0.33483608  0.75095528  1
  Mn  Mn104  1  0.74977277  0.66540840  0.12539514  1
  Mn  Mn105  1  0.25079894  0.83314223  0.12434347  1
  Mn  Mn106  1  0.00038879  -0.00079862  -0.00000544  1
  Mn  Mn107  1  0.74993965  0.49945321  0.87482510  1
  Mn  Mn108  1  0.74998787  0.33307540  0.37516287  1
  Mn  Mn109  1  -0.00114624  0.83426461  0.49938564  1
  Mn  Mn110  1  0.49950815  0.33289164  -0.00041678  1
  Mn  Mn111  1  0.49972653  0.66599538  0.24932078  1
  Mn  Mn112  1  0.25012771  0.66727876  0.87406548  1
  Mn  Mn113  1  0.50074565  0.66655507  0.50001038  1
  Mn  Mn114  1  0.24971789  0.50193775  0.12565287  1
  Mn  Mn115  1  0.24996511  -0.00049283  0.62523558  1
  Mn  Mn116  1  0.50016005  0.33275658  0.24922980  1
  Mn  Mn117  1  -0.00021821  0.66732866  0.50027325  1
  Mn  Mn118  1  -0.00103179  -0.00048934  0.74983265  1
  Mn  Mn119  1  0.24989932  0.33360624  0.87482901  1
  Mn  Mn120  1  0.00011897  0.66685972  0.75037993  1
  Mn  Mn121  1  0.24891749  0.50090219  0.37527626  1
  Mn  Mn122  1  0.49969877  0.49940544  0.49982729  1
  Mn  Mn123  1  0.24967054  0.33333731  0.37537695  1
  Mn  Mn124  1  -0.00068060  0.16720557  0.25048959  1
  Mn  Mn125  1  -0.00031176  -0.00035055  0.25014437  1
  Mn  Mn126  1  0.49989723  -0.00037361  0.49953453  1
  Mn  Mn127  1  0.00067736  0.83169106  0.00115401  1
  Mn  Mn128  1  0.24987614  0.16676442  0.37520446  1
  Mn  Mn129  1  0.25073718  0.00085966  0.12429840  1
  Mn  Mn130  1  -0.00044298  0.16704604  0.75035210  1
  Mn  Mn131  1  0.49922234  0.33196306  0.49869311  1
  Mn  Mn132  1  0.75055855  0.00076854  0.37505957  1
  Mn  Mn133  1  0.24958202  0.33350834  0.12469715  1
  Mn  Mn134  1  -0.00176080  0.33360459  0.50029632  1
  Mn  Mn135  1  0.50090161  0.00023505  -0.00010867  1
  Mn  Mn136  1  -0.00070320  0.50085895  0.49974152  1
  Mn  Mn137  1  0.50018222  -0.00059305  0.74939556  1
  Mn  Mn138  1  0.24945366  -0.00082442  0.37535109  1
  Mn  Mn139  1  0.50054143  0.50025930  -0.00083120  1
  Mn  Mn140  1  0.75061543  0.83252951  0.37529577  1
  Mn  Mn141  1  0.00040061  0.33492539  0.00105379  1
  Mn  Mn142  1  0.50111029  0.83224873  0.75011013  1
  Mn  Mn143  1  0.50131609  0.66718636  -0.00007812  1
  Fe  Fe144  1  0.24995984  0.16679535  0.12450522  1
  Fe  Fe145  1  0.24964547  0.33314148  0.62571866  1
  Fe  Fe146  1  0.50058808  0.16649339  -0.00046480  1
  Fe  Fe147  1  0.50086938  0.83333605  -0.00070327  1
  Fe  Fe148  1  0.25007306  0.00072483  0.87432320  1
  Fe  Fe149  1  0.75016406  0.83350031  0.62584942  1
  Fe  Fe150  1  -0.00014996  0.50072257  0.75065944  1
  Fe  Fe151  1  0.75023537  0.16611656  0.12428429  1
  Fe  Fe152  1  0.74922179  0.66562372  0.37601069  1
  Fe  Fe153  1  0.25027517  0.83259113  0.37427076  1
  Fe  Fe154  1  -0.00072449  0.50054294  0.00107995  1
  Fe  Fe155  1  0.49991023  0.66647791  0.74951770  1
  Fe  Fe156  1  0.24992913  0.49975882  0.62463349  1
  Fe  Fe157  1  0.74989036  0.50025670  0.62533146  1
  Fe  Fe158  1  0.50006018  0.83271319  0.50013680  1
  Fe  Fe159  1  0.24951210  0.16639593  0.62552162  1
  Fe  Fe160  1  -0.00015028  0.33392108  0.25080775  1
  Fe  Fe161  1  0.75016817  0.66703397  0.62508052  1
  Fe  Fe162  1  0.24990357  0.50039529  0.87474346  1
  Fe  Fe163  1  0.49983810  0.49996018  0.74944728  1
  Fe  Fe164  1  0.24987319  0.83422704  0.87506288  1
  Fe  Fe165  1  0.75031781  0.83329009  0.87456905  1
  Fe  Fe166  1  0.74986365  0.33271965  0.87571139  1
  Fe  Fe167  1  0.75016979  0.33244689  0.12543316  1
  Fe  Fe168  1  0.25019551  0.16683084  0.87446779  1
  Fe  Fe169  1  -0.00061896  0.66605397  0.00038389  1
  Fe  Fe170  1  0.75074929  0.00015907  0.12404306  1
  Fe  Fe171  1  0.50032267  0.16640721  0.24941612  1
  Fe  Fe172  1  0.74988523  0.16718780  0.62582057  1
  Fe  Fe173  1  0.24991747  0.66760535  0.12422897  1
  Fe  Fe174  1  0.74993882  0.00024079  0.62530387  1
  Fe  Fe175  1  0.00009826  0.83356984  0.74983731  1
  Fe  Fe176  1  -0.00069578  0.50074670  0.24991115  1
  Fe  Fe177  1  0.00013701  0.83296711  0.25032278  1
  Fe  Fe178  1  0.75047289  0.00031008  0.87441614  1
  Fe  Fe179  1  0.75011956  0.49907572  0.12518256  1
  Fe  Fe180  1  -0.00072990  0.66648370  0.24985362  1
  Fe  Fe181  1  0.25005328  0.66677789  0.37524336  1
  Fe  Fe182  1  -0.00045566  0.16718497  0.50042857  1
  Fe  Fe183  1  0.50011464  0.16610541  0.49969956  1
  Fe  Fe184  1  0.75009910  0.16672094  0.37521032  1
  Fe  Fe185  1  0.74971022  0.33357523  0.62521214  1
  Fe  Fe186  1  0.74937085  0.49972789  0.37609436  1
  Fe  Fe187  1  0.75052508  0.16659960  0.87496419  1
  Fe  Fe188  1  -0.00013519  0.00019729  0.50027040  1
  Fe  Fe189  1  0.24986814  0.83330948  0.62486328  1
  Fe  Fe190  1  0.50014362  0.49948420  0.24966491  1
  Fe  Fe191  1  0.75036583  0.66679919  0.87419221  1
  P  P192  1  0.04259777  0.25122254  0.10425169  1
  P  P193  1  0.04152061  0.25118666  0.35339186  1
  P  P194  1  0.04134457  0.24981756  0.60276473  1
  P  P195  1  0.04293533  0.25084411  0.85359317  1
  P  P196  1  0.04088137  0.58363381  0.10271302  1
  P  P197  1  0.04083937  0.58378452  0.35135824  1
  P  P198  1  0.04247249  0.58383594  0.60369805  1
  P  P199  1  0.04204944  0.58228270  0.85359038  1
  P  P200  1  0.04319741  0.91582676  0.10395184  1
  P  P201  1  0.04206027  0.91586702  0.35289713  1
  P  P202  1  0.04171705  0.91787902  0.60258379  1
  P  P203  1  0.04200183  0.91498493  0.85247475  1
  P  P204  1  0.54237560  0.24837863  0.10228332  1
  P  P205  1  0.54261093  0.24812907  0.35194323  1
  P  P206  1  0.54234955  0.24855448  0.60178639  1
  P  P207  1  0.54330147  0.24940463  0.85326894  1
  P  P208  1  0.54352391  0.58276155  0.10312105  1
  P  P209  1  0.54227619  0.58181090  0.35211323  1
  P  P210  1  0.54246702  0.58276499  0.60392675  1
  P  P211  1  0.54205366  0.58349520  0.85068381  1
  P  P212  1  0.54348746  0.91545716  0.10185498  1
  P  P213  1  0.54351716  0.91657260  0.35356516  1
  P  P214  1  0.54251062  0.91486387  0.60208811  1
  P  P215  1  0.54354376  0.91642347  0.85313832  1
  P  P216  1  0.45852310  0.08452222  0.14682757  1
  P  P217  1  0.45785739  0.08472122  0.39698412  1
  P  P218  1  0.45729940  0.08287878  0.64597346  1
  P  P219  1  0.45818947  0.08432504  0.89730546  1
  P  P220  1  0.45763121  0.41768255  0.14709298  1
  P  P221  1  0.45669534  0.41632889  0.39582562  1
  P  P222  1  0.45791102  0.41706028  0.64738773  1
  P  P223  1  0.45734568  0.41704827  0.89593894  1
  P  P224  1  0.45750686  0.75046565  0.14607301  1
  P  P225  1  0.45789570  0.75080056  0.39754615  1
  P  P226  1  0.45782249  0.74871700  0.64710158  1
  P  P227  1  0.45858266  0.75069453  0.89686633  1
  P  P228  1  0.95701487  0.08332164  0.14715239  1
  P  P229  1  0.95799396  0.08333599  0.39907205  1
  P  P230  1  0.95695219  0.08366203  0.64621396  1
  P  P231  1  0.95715140  0.08306784  0.89719974  1
  P  P232  1  0.95833209  0.41727834  0.14895420  1
  P  P233  1  0.95629756  0.41720842  0.39620805  1
  P  P234  1  0.95719273  0.41866222  0.64828077  1
  P  P235  1  0.95762820  0.41893715  0.89823250  1
  P  P236  1  0.95806349  0.74940807  0.14857776  1
  P  P237  1  0.95692374  0.74981571  0.39594857  1
  P  P238  1  0.95730629  0.75167483  0.64802688  1
  P  P239  1  0.95787528  0.74828817  0.89783100  1
  P  P240  1  0.20756002  0.08452044  0.22721623  1
  P  P241  1  0.20709157  0.08320894  0.47892515  1
  P  P242  1  0.20770770  0.08432145  0.72820346  1
  P  P243  1  0.20867430  0.08396525  0.97636466  1
  P  P244  1  0.20675965  0.41737083  0.22817407  1
  P  P245  1  0.20676315  0.41669922  0.47928842  1
  P  P246  1  0.20868608  0.41724492  0.72702074  1
  P  P247  1  0.20772267  0.41850553  0.97738022  1
  P  P248  1  0.20819898  0.74908959  0.22789388  1
  P  P249  1  0.20814474  0.75004521  0.47657105  1
  P  P250  1  0.20773894  0.75188419  0.72777363  1
  P  P251  1  0.20783306  0.75132122  0.97710679  1
  P  P252  1  0.70912563  0.08294300  0.22612599  1
  P  P253  1  0.70850954  0.08500353  0.47837957  1
  P  P254  1  0.70888234  0.08344172  0.72720216  1
  P  P255  1  0.70945398  0.08311573  0.97666786  1
  P  P256  1  0.70905264  0.41608634  0.22696838  1
  P  P257  1  0.70754010  0.41743379  0.47826236  1
  P  P258  1  0.70888414  0.41643270  0.72692112  1
  P  P259  1  0.70794616  0.41480658  0.97809672  1
  P  P260  1  0.70750848  0.74923524  0.22856723  1
  P  P261  1  0.70821309  0.74828339  0.47874437  1
  P  P262  1  0.70912081  0.75006485  0.72732275  1
  P  P263  1  0.70934434  0.74951785  0.97611041  1
  P  P264  1  0.29206991  0.24886635  0.02174582  1
  P  P265  1  0.29257638  0.24994327  0.27126264  1
  P  P266  1  0.29096797  0.24974096  0.52404236  1
  P  P267  1  0.29198513  0.24902758  0.77173875  1
  P  P268  1  0.29215088  0.58534420  0.02175086  1
  P  P269  1  0.29178710  0.58546256  0.27225820  1
  P  P270  1  0.29199850  0.58259349  0.52241011  1
  P  P271  1  0.29186441  0.58185290  0.77168551  1
  P  P272  1  0.29299749  0.91732737  0.02045648  1
  P  P273  1  0.29260778  0.91559184  0.27239944  1
  P  P274  1  0.29198032  0.91470887  0.52204926  1
  P  P275  1  0.29160705  0.91683637  0.77297046  1
  P  P276  1  0.79151400  0.24975151  0.02309151  1
  P  P277  1  0.79209186  0.24829323  0.27225006  1
  P  P278  1  0.79112817  0.25022419  0.52382699  1
  P  P279  1  0.79116846  0.25031744  0.77322877  1
  P  P280  1  0.79226079  0.58120391  0.02271553  1
  P  P281  1  0.79052125  0.58231950  0.27383808  1
  P  P282  1  0.79100538  0.58357867  0.52337112  1
  P  P283  1  0.79192608  0.58463812  0.77190552  1
  P  P284  1  0.79237257  0.91777229  0.02143982  1
  P  P285  1  0.79303996  0.91679781  0.27184098  1
  P  P286  1  0.79112137  0.91655781  0.52402186  1
  P  P287  1  0.79128717  0.91695897  0.77274758  1
  O  O288  1  0.03726311  0.25156297  0.18420512  1
  O  O289  1  0.03586444  0.25035164  0.43332681  1
  O  O290  1  0.03668308  0.25026806  0.68276020  1
  O  O291  1  0.03811180  0.25097266  0.93359928  1
  O  O292  1  0.03538754  0.58378958  0.18259199  1
  O  O293  1  0.03644176  0.58384982  0.43136453  1
  O  O294  1  0.03759195  0.58341853  0.68365954  1
  O  O295  1  0.03658549  0.58242201  0.93345220  1
  O  O296  1  0.03795797  0.91548405  0.18389348  1
  O  O297  1  0.03650423  0.91694524  0.43283031  1
  O  O298  1  0.03648159  0.91693351  0.68251926  1
  O  O299  1  0.03736109  0.91496457  0.93246173  1
  O  O300  1  0.53709222  0.24843746  0.18223850  1
  O  O301  1  0.53725325  0.24805187  0.43189400  1
  O  O302  1  0.53763090  0.24918783  0.68175312  1
  O  O303  1  0.53790021  0.24915628  0.93319793  1
  O  O304  1  0.53816366  0.58222008  0.18305459  1
  O  O305  1  0.53708811  0.58224181  0.43207826  1
  O  O306  1  0.53701771  0.58295736  0.68382502  1
  O  O307  1  0.53763560  0.58376123  0.93074249  1
  O  O308  1  0.53836053  0.91614460  0.18183355  1
  O  O309  1  0.53807936  0.91612197  0.43349578  1
  O  O310  1  0.53761426  0.91518310  0.68207097  1
  O  O311  1  0.53848257  0.91617481  0.93308703  1
  O  O312  1  0.46367457  0.08434664  0.06686400  1
  O  O313  1  0.46334764  0.08478343  0.31704447  1
  O  O314  1  0.46237777  0.08332821  0.56601667  1
  O  O315  1  0.46311051  0.08368855  0.81734212  1
  O  O316  1  0.46269514  0.41726888  0.06709982  1
  O  O317  1  0.46208656  0.41665855  0.31587662  1
  O  O318  1  0.46245992  0.41653807  0.56736881  1
  O  O319  1  0.46276127  0.41739586  0.81599774  1
  O  O320  1  0.46307662  0.75090915  0.06613631  1
  O  O321  1  0.46287706  0.75041737  0.31759136  1
  O  O322  1  0.46295824  0.74951965  0.56716518  1
  O  O323  1  0.46373907  0.74951250  0.81690267  1
  O  O324  1  0.96224901  0.08328659  0.06724373  1
  O  O325  1  0.96299033  0.08332305  0.31906418  1
  O  O326  1  0.96230210  0.08370584  0.56630251  1
  O  O327  1  0.96196048  0.08307798  0.81717476  1
  O  O328  1  0.96327276  0.41801056  0.06899070  1
  O  O329  1  0.96173533  0.41688450  0.31633398  1
  O  O330  1  0.96182890  0.41802098  0.56828261  1
  O  O331  1  0.96270795  0.41910908  0.81828617  1
  O  O332  1  0.96306727  0.74872370  0.06859681  1
  O  O333  1  0.96231771  0.74971912  0.31604806  1
  O  O334  1  0.96189718  0.75143239  0.56803223  1
  O  O335  1  0.96305372  0.74897276  0.81797131  1
  O  O336  1  0.21373470  0.08434528  0.05634702  1
  O  O337  1  0.21248312  0.08386462  0.30719296  1
  O  O338  1  0.21250314  0.08354514  0.55884231  1
  O  O339  1  0.21330637  0.08406766  0.80806268  1
  O  O340  1  0.21287872  0.41834624  0.05728467  1
  O  O341  1  0.21160595  0.41727158  0.30813649  1
  O  O342  1  0.21225708  0.41671262  0.55919301  1
  O  O343  1  0.21351832  0.41741188  0.80700588  1
  O  O344  1  0.21318972  0.75053945  0.05699243  1
  O  O345  1  0.21360859  0.74926997  0.30776280  1
  O  O346  1  0.21286782  0.75036843  0.55657909  1
  O  O347  1  0.21320514  0.75212925  0.80763185  1
  O  O348  1  0.71451887  0.08320566  0.05650174  1
  O  O349  1  0.71383194  0.08345804  0.30607510  1
  O  O350  1  0.71372988  0.08490270  0.55819650  1
  O  O351  1  0.71402600  0.08275600  0.80702665  1
  O  O352  1  0.71328870  0.41529305  0.05790585  1
  O  O353  1  0.71363415  0.41630261  0.30690706  1
  O  O354  1  0.71264222  0.41727834  0.55808000  1
  O  O355  1  0.71343750  0.41609168  0.80683882  1
  O  O356  1  0.71385891  0.74971341  0.05607388  1
  O  O357  1  0.71265222  0.74882426  0.30848775  1
  O  O358  1  0.71391880  0.74851205  0.55857079  1
  O  O359  1  0.71431958  0.75025184  0.80720214  1
  O  O360  1  0.28750744  0.24950759  0.19131989  1
  O  O361  1  0.28618457  0.25014487  0.44406371  1
  O  O362  1  0.28644225  0.24922476  0.69190968  1
  O  O363  1  0.28654389  0.24890666  0.94182327  1
  O  O364  1  0.28669509  0.58603658  0.19231037  1
  O  O365  1  0.28672562  0.58345513  0.44249809  1
  O  O366  1  0.28627181  0.58162182  0.69182052  1
  O  O367  1  0.28705410  0.58445034  0.94180861  1
  O  O368  1  0.28792916  0.91609189  0.19241527  1
  O  O369  1  0.28669627  0.91450395  0.44214219  1
  O  O370  1  0.28659114  0.91646930  0.69298755  1
  O  O371  1  0.28735298  0.91770559  0.94060143  1
  O  O372  1  0.78711000  0.24824707  0.19241383  1
  O  O373  1  0.78653538  0.25023831  0.44388810  1
  O  O374  1  0.78565672  0.25002753  0.69342375  1
  O  O375  1  0.78683599  0.25015890  0.94322926  1
  O  O376  1  0.78576157  0.58168586  0.19390186  1
  O  O377  1  0.78567288  0.58318797  0.44352451  1
  O  O378  1  0.78668522  0.58479663  0.69209785  1
  O  O379  1  0.78732827  0.58163960  0.94287681  1
  O  O380  1  0.78787435  0.91714408  0.19192040  1
  O  O381  1  0.78664372  0.91664809  0.44407070  1
  O  O382  1  0.78600664  0.91648751  0.69290428  1
  O  O383  1  0.78684798  0.91775415  0.94159254  1
  O  O384  1  0.22789869  0.24861284  0.05792488  1
  O  O385  1  0.22815088  0.25002568  0.30658036  1
  O  O386  1  0.22677484  0.24955850  0.55988455  1
  O  O387  1  0.22792358  0.24889551  0.80817037  1
  O  O388  1  0.22780569  0.58581302  0.05753249  1
  O  O389  1  0.22744031  0.58567441  0.30799149  1
  O  O390  1  0.22771271  0.58213903  0.55820796  1
  O  O391  1  0.22775030  0.58220689  0.80791564  1
  O  O392  1  0.22889076  0.91723403  0.05657358  1
  O  O393  1  0.22814156  0.91516943  0.30768711  1
  O  O394  1  0.22774205  0.91502779  0.55802356  1
  O  O395  1  0.22745450  0.91717502  0.80912462  1
  O  O396  1  0.72747499  0.24951274  0.05945821  1
  O  O397  1  0.72787830  0.24815079  0.30837839  1
  O  O398  1  0.72689037  0.24994852  0.55966276  1
  O  O399  1  0.72729593  0.25054029  0.81008812  1
  O  O400  1  0.72787532  0.58081722  0.05832439  1
  O  O401  1  0.72640564  0.58300198  0.31001946  1
  O  O402  1  0.72708711  0.58394862  0.56005961  1
  O  O403  1  0.72781150  0.58457082  0.80822571  1
  O  O404  1  0.72827529  0.91820784  0.05788134  1
  O  O405  1  0.72878419  0.91661751  0.30749139  1
  O  O406  1  0.72692037  0.91611835  0.55974109  1
  O  O407  1  0.72740455  0.91741688  0.80947714  1
  O  O408  1  0.27201642  0.08529947  0.19173423  1
  O  O409  1  0.27138294  0.08288079  0.44329912  1
  O  O410  1  0.27181023  0.08446748  0.69188868  1
  O  O411  1  0.27281376  0.08357071  0.94019182  1
  O  O412  1  0.27118916  0.41755166  0.19304777  1
  O  O413  1  0.27098044  0.41722673  0.44339453  1
  O  O414  1  0.27277719  0.41735428  0.69090192  1
  O  O415  1  0.27199617  0.41840314  0.94161350  1
  O  O416  1  0.27234163  0.74843797  0.19153656  1
  O  O417  1  0.27242414  0.74965187  0.44066796  1
  O  O418  1  0.27187632  0.75148943  0.69161212  1
  O  O419  1  0.27204726  0.75167581  0.94113105  1
  O  O420  1  0.77328436  0.08251020  0.19006033  1
  O  O421  1  0.77266196  0.08534912  0.44209947  1
  O  O422  1  0.77286409  0.08407884  0.69072590  1
  O  O423  1  0.77340326  0.08264155  0.94003588  1
  O  O424  1  0.77318548  0.41636976  0.19090321  1
  O  O425  1  0.77174251  0.41755798  0.44222940  1
  O  O426  1  0.77301106  0.41642690  0.69097142  1
  O  O427  1  0.77208715  0.41475510  0.94176877  1
  O  O428  1  0.77178769  0.74956477  0.19295062  1
  O  O429  1  0.77220244  0.74758990  0.44208675  1
  O  O430  1  0.77312587  0.74993061  0.69082511  1
  O  O431  1  0.77355820  0.74897191  0.94039068  1
  O  O432  1  0.02138031  0.08359445  0.18217124  1
  O  O433  1  0.02217900  0.08314978  0.43484398  1
  O  O434  1  0.02116599  0.08339643  0.68184566  1
  O  O435  1  0.02171113  0.08335012  0.93181762  1
  O  O436  1  0.02239644  0.41678916  0.18488975  1
  O  O437  1  0.02049666  0.41687350  0.43187154  1
  O  O438  1  0.02169600  0.41917322  0.68330747  1
  O  O439  1  0.02195682  0.41931940  0.93366379  1
  O  O440  1  0.02223195  0.74931471  0.18446579  1
  O  O441  1  0.02118617  0.75046037  0.43151054  1
  O  O442  1  0.02182371  0.75168834  0.68293175  1
  O  O443  1  0.02213187  0.74747706  0.93352036  1
  O  O444  1  0.52288758  0.08471998  0.18228844  1
  O  O445  1  0.52209107  0.08460371  0.43274864  1
  O  O446  1  0.52181266  0.08265914  0.68081116  1
  O  O447  1  0.52259455  0.08468214  0.93255758  1
  O  O448  1  0.52199902  0.41786140  0.18246571  1
  O  O449  1  0.52104354  0.41579571  0.43105060  1
  O  O450  1  0.52239083  0.41773779  0.68232327  1
  O  O451  1  0.52169785  0.41632232  0.93112642  1
  O  O452  1  0.52182263  0.74975738  0.18134360  1
  O  O453  1  0.52228836  0.75127688  0.43284599  1
  O  O454  1  0.52221445  0.74772837  0.68243901  1
  O  O455  1  0.52292219  0.75159783  0.93240349  1
  O  O456  1  0.47812460  0.24795067  0.06658884  1
  O  O457  1  0.47833710  0.24824360  0.31635916  1
  O  O458  1  0.47786933  0.24780304  0.56669305  1
  O  O459  1  0.47898503  0.24981685  0.81805166  1
  O  O460  1  0.47917386  0.58356346  0.06796133  1
  O  O461  1  0.47799609  0.58124629  0.31652177  1
  O  O462  1  0.47829382  0.58313839  0.56825222  1
  O  O463  1  0.47766186  0.58357172  0.81543683  1
  O  O464  1  0.47915288  0.91522433  0.06641501  1
  O  O465  1  0.47923226  0.91711944  0.31823749  1
  O  O466  1  0.47813634  0.91489418  0.56685225  1
  O  O467  1  0.47909781  0.91606643  0.81816658  1
  O  O468  1  0.97825765  0.25113972  0.06899854  1
  O  O469  1  0.97737376  0.25176503  0.31746941  1
  O  O470  1  0.97691046  0.24912043  0.56770936  1
  O  O471  1  0.97835726  0.25105674  0.81904648  1
  O  O472  1  0.97685014  0.58365210  0.06626180  1
  O  O473  1  0.97651209  0.58420456  0.31610439  1
  O  O474  1  0.97795893  0.58417266  0.56885865  1
  O  O475  1  0.97793187  0.58219375  0.81739675  1
  O  O476  1  0.97885535  0.91579447  0.06874962  1
  O  O477  1  0.97787939  0.91512674  0.31711509  1
  O  O478  1  0.97739856  0.91881986  0.56706742  1
  O  O479  1  0.97752753  0.91469472  0.81742841  1
  O  O480  1  0.07396222  0.31446263  0.07582312  1
  O  O481  1  0.07250169  0.31483052  0.32532331  1
  O  O482  1  0.07202390  0.31363769  0.57479191  1
  O  O483  1  0.07398474  0.31438563  0.82535420  1
  O  O484  1  0.07189924  0.64715000  0.07413134  1
  O  O485  1  0.07207514  0.64711746  0.32297190  1
  O  O486  1  0.07342538  0.64758235  0.57561992  1
  O  O487  1  0.07340088  0.64579934  0.82549758  1
  O  O488  1  0.07413055  0.97950411  0.07574621  1
  O  O489  1  0.07331033  0.97934950  0.32478293  1
  O  O490  1  0.07290120  0.98137374  0.57450659  1
  O  O491  1  0.07279315  0.97879026  0.82460520  1
  O  O492  1  0.57298147  0.31247975  0.07470490  1
  O  O493  1  0.57370114  0.31197570  0.32423990  1
  O  O494  1  0.57287300  0.31239056  0.57353838  1
  O  O495  1  0.57453208  0.31292641  0.82513230  1
  O  O496  1  0.57499196  0.64620891  0.07511919  1
  O  O497  1  0.57308988  0.64567269  0.32445352  1
  O  O498  1  0.57402325  0.64596473  0.57541222  1
  O  O499  1  0.57283334  0.64715374  0.82235719  1
  O  O500  1  0.57458246  0.97910010  0.07396109  1
  O  O501  1  0.57474311  0.98024331  0.32564084  1
  O  O502  1  0.57377036  0.97838094  0.57424814  1
  O  O503  1  0.57407111  0.98026274  0.82480898  1
  O  O504  1  0.42771495  0.02063270  0.17484419  1
  O  O505  1  0.42666012  0.02091650  0.42453354  1
  O  O506  1  0.42641374  0.01907965  0.67395679  1
  O  O507  1  0.42726627  0.02067727  0.92535930  1
  O  O508  1  0.42660147  0.35390292  0.17472613  1
  O  O509  1  0.42549085  0.35267211  0.42379744  1
  O  O510  1  0.42725527  0.35323908  0.67542874  1
  O  O511  1  0.42589827  0.35364113  0.92398914  1
  O  O512  1  0.42617766  0.68695294  0.17409110  1
  O  O513  1  0.42710676  0.68698726  0.42544263  1
  O  O514  1  0.42666173  0.68529266  0.67547195  1
  O  O515  1  0.42758888  0.68716957  0.92522893  1
  O  O516  1  0.92607821  0.01976784  0.17534520  1
  O  O517  1  0.92700037  0.01963977  0.42700233  1
  O  O518  1  0.92555359  0.02034678  0.67466289  1
  O  O519  1  0.92648131  0.01931663  0.92523999  1
  O  O520  1  0.92719004  0.35362806  0.17677066  1
  O  O521  1  0.92463317  0.35417075  0.42501684  1
  O  O522  1  0.92654026  0.35486584  0.67651907  1
  O  O523  1  0.92699345  0.35484206  0.92597678  1
  O  O524  1  0.92661552  0.68611028  0.17696261  1
  O  O525  1  0.92613557  0.68630487  0.42475726  1
  O  O526  1  0.92622718  0.68818286  0.67614184  1
  O  O527  1  0.92684799  0.68478154  0.92624611  1
  O  O528  1  0.17703863  0.02060764  0.19913763  1
  O  O529  1  0.17601923  0.01955731  0.45100043  1
  O  O530  1  0.17642982  0.02072581  0.70024981  1
  O  O531  1  0.17765849  0.02018090  0.94842413  1
  O  O532  1  0.17582791  0.35392668  0.19984073  1
  O  O533  1  0.17587120  0.35307956  0.45095325  1
  O  O534  1  0.17834359  0.35299180  0.69905272  1
  O  O535  1  0.17647955  0.35484994  0.94975236  1
  O  O536  1  0.17681070  0.68597840  0.19903114  1
  O  O537  1  0.17729488  0.68612668  0.44873532  1
  O  O538  1  0.17649384  0.68800502  0.70050302  1
  O  O539  1  0.17651625  0.68797439  0.94883557  1
  O  O540  1  0.67810448  0.01927247  0.19804607  1
  O  O541  1  0.67751078  0.02122714  0.45037641  1
  O  O542  1  0.67840177  0.01965249  0.69813736  1
  O  O543  1  0.67781312  0.01998253  0.94822871  1
  O  O544  1  0.67879390  0.35186814  0.19888504  1
  O  O545  1  0.67635934  0.35396053  0.44980705  1
  O  O546  1  0.67760433  0.35310093  0.69835457  1
  O  O547  1  0.67704991  0.35127236  0.94957065  1
  O  O548  1  0.67639448  0.68589269  0.20002313  1
  O  O549  1  0.67671469  0.68507463  0.45023456  1
  O  O550  1  0.67780809  0.68662769  0.69918599  1
  O  O551  1  0.67808095  0.68599203  0.94810109  1
  O  O552  1  0.32293813  0.31293153  0.04909546  1
  O  O553  1  0.32342998  0.31368471  0.29933971  1
  O  O554  1  0.32163572  0.31353123  0.55243802  1
  O  O555  1  0.32321402  0.31264903  0.79977368  1
  O  O556  1  0.32289376  0.64913334  0.04972769  1
  O  O557  1  0.32313745  0.64836953  0.30143763  1
  O  O558  1  0.32304568  0.64608783  0.55078774  1
  O  O559  1  0.32312489  0.64577276  0.79881653  1
  O  O560  1  0.32436760  0.98059937  0.04908865  1
  O  O561  1  0.32342912  0.97930537  0.30053676  1
  O  O562  1  0.32330560  0.97836300  0.54969486  1
  O  O563  1  0.32251958  0.98074051  0.80068355  1
  O  O564  1  0.82220241  0.31335273  0.05216961  1
  O  O565  1  0.82306380  0.31198390  0.30040709  1
  O  O566  1  0.82138621  0.31431447  0.55234959  1
  O  O567  1  0.82255195  0.31373365  0.80143812  1
  O  O568  1  0.82315483  0.64482165  0.05109231  1
  O  O569  1  0.82165092  0.64600138  0.30169726  1
  O  O570  1  0.82267373  0.64692112  0.55130616  1
  O  O571  1  0.82282122  0.64804326  0.80089943  1
  O  O572  1  0.82361996  0.98097377  0.05023993  1
  O  O573  1  0.82424330  0.98009811  0.30043355  1
  O  O574  1  0.82130766  0.98068607  0.55224927  1
  O  O575  1  0.82288286  0.98035421  0.80058579  1
  O  O576  1  0.42748913  0.14771517  0.17557958  1
  O  O577  1  0.42692319  0.14795023  0.42584035  1
  O  O578  1  0.42617604  0.14598733  0.67480405  1
  O  O579  1  0.42749129  0.14793006  0.92550392  1
  O  O580  1  0.42694164  0.48125126  0.17542256  1
  O  O581  1  0.42560620  0.47952132  0.42449079  1
  O  O582  1  0.42706664  0.48053286  0.67585706  1
  O  O583  1  0.42653312  0.48052975  0.92438628  1
  O  O584  1  0.42650848  0.81378456  0.17460043  1
  O  O585  1  0.42718696  0.81431623  0.42603232  1
  O  O586  1  0.42713827  0.81229799  0.67560995  1
  O  O587  1  0.42778598  0.81440231  0.92481433  1
  O  O588  1  0.92581900  0.14668087  0.17530862  1
  O  O589  1  0.92754923  0.14727698  0.42712184  1
  O  O590  1  0.92591369  0.14703580  0.67486830  1
  O  O591  1  0.92613404  0.14656484  0.92531392  1
  O  O592  1  0.92781107  0.48105778  0.17758482  1
  O  O593  1  0.92554515  0.48088124  0.42457068  1
  O  O594  1  0.92648501  0.48217818  0.67659858  1
  O  O595  1  0.92631920  0.48182820  0.92735367  1
  O  O596  1  0.92783261  0.81353760  0.17652753  1
  O  O597  1  0.92530342  0.81298206  0.42429283  1
  O  O598  1  0.92698832  0.81537628  0.67670730  1
  O  O599  1  0.92705284  0.81181539  0.92624166  1
  O  O600  1  0.07350583  0.18758248  0.07614812  1
  O  O601  1  0.07268532  0.18767848  0.32531826  1
  O  O602  1  0.07219239  0.18632425  0.57435824  1
  O  O603  1  0.07368132  0.18734739  0.82525638  1
  O  O604  1  0.07179976  0.51995983  0.07455884  1
  O  O605  1  0.07096874  0.51972121  0.32303683  1
  O  O606  1  0.07338498  0.52065446  0.57475202  1
  O  O607  1  0.07286026  0.51896341  0.82453960  1
  O  O608  1  0.07444111  0.85259135  0.07551458  1
  O  O609  1  0.07286380  0.85216396  0.32486422  1
  O  O610  1  0.07242367  0.85432128  0.57400661  1
  O  O611  1  0.07263547  0.85148979  0.82374934  1
  O  O612  1  0.57359522  0.18525026  0.07354015  1
  O  O613  1  0.57355474  0.18493905  0.32299766  1
  O  O614  1  0.57328090  0.18507832  0.57358229  1
  O  O615  1  0.57442727  0.18616868  0.82475664  1
  O  O616  1  0.57436790  0.51946229  0.07427318  1
  O  O617  1  0.57313089  0.51823763  0.32398615  1
  O  O618  1  0.57343665  0.51928484  0.57552653  1
  O  O619  1  0.57247259  0.51951832  0.82265707  1
  O  O620  1  0.57412902  0.85183888  0.07357536  1
  O  O621  1  0.57469546  0.85336735  0.32505481  1
  O  O622  1  0.57290184  0.85106832  0.57386870  1
  O  O623  1  0.57504920  0.85339435  0.82459072  1
  O  O624  1  0.32314228  0.18568620  0.05026657  1
  O  O625  1  0.32373022  0.18680080  0.29998704  1
  O  O626  1  0.32187844  0.18601284  0.55162808  1
  O  O627  1  0.32305262  0.18571735  0.80029378  1
  O  O628  1  0.32324026  0.52202777  0.05024988  1
  O  O629  1  0.32231897  0.52136662  0.29960531  1
  O  O630  1  0.32284289  0.51899033  0.55041106  1
  O  O631  1  0.32264828  0.51865925  0.80059626  1
  O  O632  1  0.32422781  0.85393493  0.04848634  1
  O  O633  1  0.32329759  0.85204171  0.30069248  1
  O  O634  1  0.32258686  0.85132841  0.55093119  1
  O  O635  1  0.32246125  0.85333750  0.80133751  1
  O  O636  1  0.82250199  0.18614127  0.05122490  1
  O  O637  1  0.82292170  0.18503559  0.30138347  1
  O  O638  1  0.82244631  0.18710593  0.55227804  1
  O  O639  1  0.82176388  0.18652801  0.80173529  1
  O  O640  1  0.82293382  0.51776296  0.05146608  1
  O  O641  1  0.82091128  0.51863729  0.30255516  1
  O  O642  1  0.82140587  0.51976588  0.55211615  1
  O  O643  1  0.82302576  0.52105830  0.79977158  1
  O  O644  1  0.82320867  0.85395158  0.04929133  1
  O  O645  1  0.82401224  0.85325827  0.29984511  1
  O  O646  1  0.82235667  0.85317252  0.55209461  1
  O  O647  1  0.82168435  0.85312967  0.80149543  1
  O  O648  1  0.17660649  0.14790539  0.19899695  1
  O  O649  1  0.17591889  0.14642659  0.45057378  1
  O  O650  1  0.17671548  0.14767355  0.69964526  1
  O  O651  1  0.17780361  0.14747562  0.94807609  1
  O  O652  1  0.17578982  0.48094997  0.20036004  1
  O  O653  1  0.17519118  0.47984187  0.45093421  1
  O  O654  1  0.17736092  0.48036880  0.69857915  1
  O  O655  1  0.17723798  0.48214346  0.94901656  1
  O  O656  1  0.17750798  0.81287411  0.19988512  1
  O  O657  1  0.17749556  0.81351746  0.44786350  1
  O  O658  1  0.17699752  0.81514275  0.69888171  1
  O  O659  1  0.17713815  0.81505361  0.94914012  1
  O  O660  1  0.67863441  0.14654121  0.19730674  1
  O  O661  1  0.67760158  0.14821568  0.44931274  1
  O  O662  1  0.67740487  0.14683905  0.69939582  1
  O  O663  1  0.67922875  0.14711640  0.94816677  1
  O  O664  1  0.67777603  0.47920510  0.19836058  1
  O  O665  1  0.67672859  0.48084142  0.44944504  1
  O  O666  1  0.67860679  0.48048150  0.69880362  1
  O  O667  1  0.67675606  0.47815464  0.94955127  1
  O  O668  1  0.67645215  0.81275249  0.20050740  1
  O  O669  1  0.67747400  0.81208893  0.45090002  1
  O  O670  1  0.67838860  0.81377239  0.69885875  1
  O  O671  1  0.67921980  0.81349947  0.94772909  1
