# generated using pymatgen
data_Na2MnFe(PO4)2
_symmetry_space_group_name_H-M   'P 1'
_cell_length_a   22.34316299
_cell_length_b   20.10089114
_cell_length_c   19.44759636
_cell_angle_alpha   89.97782591
_cell_angle_beta   89.95566181
_cell_angle_gamma   90.01229349
_symmetry_Int_Tables_number   1
_chemical_formula_structural   Na2MnFe(PO4)2
_chemical_formula_sum   'Na96 Mn48 Fe48 P96 O384'
_cell_volume   8734.25213125
_cell_formula_units_Z   48
loop_
 _symmetry_equiv_pos_site_id
 _symmetry_equiv_pos_as_xyz
  1  'x, y, z'
loop_
 _atom_site_type_symbol
 _atom_site_label
 _atom_site_symmetry_multiplicity
 _atom_site_fract_x
 _atom_site_fract_y
 _atom_site_fract_z
 _atom_site_occupancy
  Na  Na0  1  0.14004361  0.25083938  0.24260199  1
  Na  Na1  1  0.14030717  0.25024697  0.49304982  1
  Na  Na2  1  0.14051909  0.25042985  0.74514989  1
  Na  Na3  1  0.14024860  0.24963068  0.99192202  1
  Na  Na4  1  0.14033782  0.58472700  0.24248637  1
  Na  Na5  1  0.14044500  0.58274863  0.49439248  1
  Na  Na6  1  0.14029389  0.58347022  0.74286801  1
  Na  Na7  1  0.13986523  0.58321388  0.99353368  1
  Na  Na8  1  0.14072269  0.91676000  0.24206080  1
  Na  Na9  1  0.14064913  0.91606924  0.49289304  1
  Na  Na10  1  0.14072932  0.91625795  0.74293098  1
  Na  Na11  1  0.14044493  0.91735434  0.99342730  1
  Na  Na12  1  0.64025267  0.25009648  0.24459693  1
  Na  Na13  1  0.64089258  0.25067896  0.49389757  1
  Na  Na14  1  0.64022173  0.25030710  0.74575121  1
  Na  Na15  1  0.64055711  0.24937758  0.99224015  1
  Na  Na16  1  0.64039383  0.58223085  0.24455631  1
  Na  Na17  1  0.64071292  0.58323303  0.49518188  1
  Na  Na18  1  0.64053109  0.58470210  0.74493948  1
  Na  Na19  1  0.64050124  0.58195842  0.99277647  1
  Na  Na20  1  0.64081731  0.91738291  0.24320321  1
  Na  Na21  1  0.64111283  0.91690655  0.49515960  1
  Na  Na22  1  0.64084474  0.91702189  0.74415246  1
  Na  Na23  1  0.64053099  0.91651280  0.99187280  1
  Na  Na24  1  0.35962590  0.08281289  0.00680403  1
  Na  Na25  1  0.35903746  0.08417777  0.25413775  1
  Na  Na26  1  0.35884930  0.08336742  0.50517224  1
  Na  Na27  1  0.35921978  0.08395374  0.75763822  1
  Na  Na28  1  0.35931997  0.41697044  0.00690269  1
  Na  Na29  1  0.35886618  0.41722575  0.25585023  1
  Na  Na30  1  0.35895624  0.41651624  0.50624541  1
  Na  Na31  1  0.35887690  0.41657643  0.75722810  1
  Na  Na32  1  0.35901198  0.75027171  0.00691614  1
  Na  Na33  1  0.35931498  0.75016627  0.25468766  1
  Na  Na34  1  0.35887281  0.74874851  0.50700454  1
  Na  Na35  1  0.35981929  0.74998697  0.75696451  1
  Na  Na36  1  0.86025453  0.08335738  0.00576227  1
  Na  Na37  1  0.85961660  0.08445703  0.25569062  1
  Na  Na38  1  0.85996171  0.08312473  0.50642812  1
  Na  Na39  1  0.85977459  0.08456676  0.75706353  1
  Na  Na40  1  0.85995401  0.41487566  0.00629671  1
  Na  Na41  1  0.85996859  0.41538746  0.25755159  1
  Na  Na42  1  0.85956053  0.41672280  0.50573238  1
  Na  Na43  1  0.85913768  0.41671231  0.75798389  1
  Na  Na44  1  0.86023887  0.74849047  0.00593305  1
  Na  Na45  1  0.85994986  0.74931965  0.25648618  1
  Na  Na46  1  0.85993507  0.74985213  0.50657774  1
  Na  Na47  1  0.86057553  0.74980094  0.75697887  1
  Na  Na48  1  0.10982425  0.08384425  0.11686608  1
  Na  Na49  1  0.10967871  0.08327443  0.36747923  1
  Na  Na50  1  0.10984575  0.08408122  0.61937345  1
  Na  Na51  1  0.11056657  0.08248123  0.86870998  1
  Na  Na52  1  0.10931607  0.41707146  0.11800886  1
  Na  Na53  1  0.10943852  0.41723783  0.36734302  1
  Na  Na54  1  0.10974090  0.41750589  0.61988177  1
  Na  Na55  1  0.10990748  0.41613881  0.86806373  1
  Na  Na56  1  0.10973658  0.75035806  0.11838671  1
  Na  Na57  1  0.11002130  0.74898009  0.36739417  1
  Na  Na58  1  0.11043721  0.75053836  0.61817346  1
  Na  Na59  1  0.10940530  0.74852135  0.86809121  1
  Na  Na60  1  0.60990899  0.08361926  0.11694111  1
  Na  Na61  1  0.60973279  0.08424457  0.36908878  1
  Na  Na62  1  0.60992222  0.08462406  0.61953811  1
  Na  Na63  1  0.61018303  0.08285894  0.86907995  1
  Na  Na64  1  0.60968548  0.41581761  0.11857846  1
  Na  Na65  1  0.61000951  0.41621769  0.36956910  1
  Na  Na66  1  0.60977052  0.41685390  0.62004568  1
  Na  Na67  1  0.60968640  0.41723185  0.86957673  1
  Na  Na68  1  0.60959725  0.74955732  0.11794818  1
  Na  Na69  1  0.60980803  0.75000359  0.37041229  1
  Na  Na70  1  0.61052741  0.75007962  0.61997475  1
  Na  Na71  1  0.60946943  0.74996879  0.86832569  1
  Na  Na72  1  0.38977432  0.24953374  0.12981235  1
  Na  Na73  1  0.38888272  0.25013370  0.38102183  1
  Na  Na74  1  0.38978108  0.25055853  0.63038163  1
  Na  Na75  1  0.39007146  0.24997860  0.88405003  1
  Na  Na76  1  0.38953287  0.58307755  0.13095121  1
  Na  Na77  1  0.38969019  0.58299881  0.38158942  1
  Na  Na78  1  0.38955215  0.58378739  0.63250003  1
  Na  Na79  1  0.38969889  0.58376026  0.88200469  1
  Na  Na80  1  0.39022388  0.91697686  0.12969720  1
  Na  Na81  1  0.38988384  0.91660929  0.37980034  1
  Na  Na82  1  0.39014597  0.91578007  0.63171349  1
  Na  Na83  1  0.39035345  0.91746138  0.88201807  1
  Na  Na84  1  0.89010023  0.24990545  0.13115768  1
  Na  Na85  1  0.88983206  0.24982773  0.38164159  1
  Na  Na86  1  0.89023424  0.24998347  0.63171277  1
  Na  Na87  1  0.89048187  0.24842937  0.88258710  1
  Na  Na88  1  0.89057246  0.58339019  0.13161506  1
  Na  Na89  1  0.89045663  0.58323789  0.38082741  1
  Na  Na90  1  0.89039438  0.58453360  0.63286315  1
  Na  Na91  1  0.89032785  0.58200740  0.88131319  1
  Na  Na92  1  0.89072454  0.91656262  0.13021689  1
  Na  Na93  1  0.89091520  0.91625969  0.38067406  1
  Na  Na94  1  0.89126637  0.91746996  0.63200609  1
  Na  Na95  1  0.89111765  0.91603653  0.88124925  1
  Mn  Mn96  1  0.24928816  -0.00042967  0.62468300  1
  Mn  Mn97  1  0.74976149  0.50048311  0.62639358  1
  Mn  Mn98  1  0.49978479  0.83325286  0.50047912  1
  Mn  Mn99  1  -0.00021380  0.33405125  0.50058235  1
  Mn  Mn100  1  0.50035519  0.83354217  0.24943517  1
  Mn  Mn101  1  0.74936730  0.33203562  0.12574681  1
  Mn  Mn102  1  0.50030486  -0.00000189  0.24919110  1
  Mn  Mn103  1  0.49959249  0.33377638  0.75111408  1
  Mn  Mn104  1  0.24929823  0.66596698  0.87516383  1
  Mn  Mn105  1  0.49938855  -0.00029401  0.75010515  1
  Mn  Mn106  1  0.25016179  0.33379095  0.62524330  1
  Mn  Mn107  1  0.00039292  0.00025716  0.75063009  1
  Mn  Mn108  1  0.25017270  0.83232183  0.37370603  1
  Mn  Mn109  1  0.75013913  0.00098100  0.62486824  1
  Mn  Mn110  1  0.24926635  0.83388052  0.87534227  1
  Mn  Mn111  1  0.24950054  0.33354911  0.12450435  1
  Mn  Mn112  1  0.24986587  0.50067531  0.37513456  1
  Mn  Mn113  1  0.75042448  0.00091151  0.12433792  1
  Mn  Mn114  1  0.25031669  0.00071528  0.37370805  1
  Mn  Mn115  1  0.75052727  0.83300956  0.87445329  1
  Mn  Mn116  1  0.75007153  0.66554832  0.12529500  1
  Mn  Mn117  1  -0.00043024  0.16718216  0.24902827  1
  Mn  Mn118  1  0.74916141  0.66582258  0.37587837  1
  Mn  Mn119  1  0.00074558  0.16641915  0.50003795  1
  Mn  Mn120  1  0.75008041  0.83330894  0.37520803  1
  Mn  Mn121  1  0.49922987  0.16753774  0.49976670  1
  Mn  Mn122  1  0.49975293  0.16689519  0.24925860  1
  Mn  Mn123  1  0.74979621  0.33274749  0.62601373  1
  Mn  Mn124  1  0.49996904  0.00024516  0.50024160  1
  Mn  Mn125  1  0.00032769  0.66696315  0.49977551  1
  Mn  Mn126  1  -0.00009640  0.33280690  0.75009642  1
  Mn  Mn127  1  0.75028271  0.49869631  0.12484113  1
  Mn  Mn128  1  0.49992847  0.66620680  0.24945906  1
  Mn  Mn129  1  0.25006126  0.16704383  0.62534939  1
  Mn  Mn130  1  0.49968540  0.66676474  0.00006853  1
  Mn  Mn131  1  0.49978756  0.16715861  0.75034440  1
  Mn  Mn132  1  0.49932518  0.33303798  0.24912797  1
  Mn  Mn133  1  0.50009437  0.49946978  0.50117562  1
  Mn  Mn134  1  0.75062484  0.00113803  0.37496658  1
  Mn  Mn135  1  0.49960138  0.66668825  0.50062245  1
  Mn  Mn136  1  0.49889667  0.50077899  0.75015600  1
  Mn  Mn137  1  -0.00026843  -0.00040433  0.24924302  1
  Mn  Mn138  1  0.49947842  0.49939103  0.25029264  1
  Mn  Mn139  1  0.75002972  0.83297161  0.12416007  1
  Mn  Mn140  1  -0.00000953  0.83403606  0.49954651  1
  Mn  Mn141  1  -0.00007848  0.83218780  -0.00011090  1
  Mn  Mn142  1  -0.00016084  0.50063134  0.49942522  1
  Mn  Mn143  1  0.00008538  0.49968588  0.00011720  1
  Fe  Fe144  1  0.24956768  0.16708329  0.12409150  1
  Fe  Fe145  1  0.24988337  0.50013079  0.87505291  1
  Fe  Fe146  1  0.75032770  0.66660589  0.87484208  1
  Fe  Fe147  1  0.24992566  0.66641578  0.37499761  1
  Fe  Fe148  1  -0.00020932  0.49971932  0.75050234  1
  Fe  Fe149  1  0.74986168  0.16665576  0.12465029  1
  Fe  Fe150  1  0.24970489  0.83368490  0.12453879  1
  Fe  Fe151  1  0.74963476  0.16698718  0.37547279  1
  Fe  Fe152  1  0.00010352  0.33332291  0.24960082  1
  Fe  Fe153  1  0.75028653  0.16718360  0.62581420  1
  Fe  Fe154  1  0.25034729  0.00005783  0.87525142  1
  Fe  Fe155  1  0.75028630  0.16650189  0.87500170  1
  Fe  Fe156  1  0.50060782  -0.00041722  -0.00057939  1
  Fe  Fe157  1  -0.00015322  0.33324575  -0.00021133  1
  Fe  Fe158  1  0.49979050  0.33355189  0.50020890  1
  Fe  Fe159  1  0.24961403  0.00072217  0.12442201  1
  Fe  Fe160  1  0.50058589  0.83340402  0.75087777  1
  Fe  Fe161  1  0.00029393  0.16655671  -0.00002652  1
  Fe  Fe162  1  0.75133880  0.83369803  0.62566192  1
  Fe  Fe163  1  0.49974119  0.83342898  -0.00074210  1
  Fe  Fe164  1  0.24964539  0.66680946  0.12442941  1
  Fe  Fe165  1  0.75106106  0.66688001  0.62522937  1
  Fe  Fe166  1  0.00025102  0.66637920  0.75013700  1
  Fe  Fe167  1  0.00063404  0.83326157  0.24940561  1
  Fe  Fe168  1  0.24961978  0.49972313  0.62519635  1
  Fe  Fe169  1  0.25049957  0.83309230  0.62467929  1
  Fe  Fe170  1  0.00117702  0.83328669  0.75003876  1
  Fe  Fe171  1  -0.00021573  0.50013989  0.24895639  1
  Fe  Fe172  1  -0.00011175  0.66622442  0.00011140  1
  Fe  Fe173  1  0.24910237  0.16698907  0.37409250  1
  Fe  Fe174  1  0.24909014  0.33372823  0.37453001  1
  Fe  Fe175  1  0.00063540  0.00017983  0.49988340  1
  Fe  Fe176  1  0.25008238  0.66623675  0.62516316  1
  Fe  Fe177  1  0.75020787  0.49979239  0.87512222  1
  Fe  Fe178  1  0.75049350  0.33278889  0.87541142  1
  Fe  Fe179  1  -0.00019855  0.66707162  0.24970727  1
  Fe  Fe180  1  0.00042169  0.16641638  0.75086171  1
  Fe  Fe181  1  0.49974389  0.33374125  0.00005976  1
  Fe  Fe182  1  0.00086042  -0.00060332  -0.00044466  1
  Fe  Fe183  1  0.49997451  0.16647315  -0.00003765  1
  Fe  Fe184  1  0.75036183  0.49957239  0.37576048  1
  Fe  Fe185  1  0.75089263  0.00046616  0.87428213  1
  Fe  Fe186  1  0.24997256  0.16642256  0.87523443  1
  Fe  Fe187  1  0.50012462  0.66728529  0.75137375  1
  Fe  Fe188  1  0.75009466  0.33276971  0.37583527  1
  Fe  Fe189  1  0.24915330  0.50034094  0.12516623  1
  Fe  Fe190  1  0.49995378  0.50038805  -0.00002419  1
  Fe  Fe191  1  0.25013901  0.33357214  0.87553941  1
  P  P192  1  0.04135098  0.25070574  0.10135373  1
  P  P193  1  0.04204273  0.25105029  0.35190073  1
  P  P194  1  0.04302725  0.25018740  0.60372255  1
  P  P195  1  0.04190009  0.24844825  0.85366602  1
  P  P196  1  0.04158050  0.58455849  0.10308597  1
  P  P197  1  0.04144270  0.58349524  0.35046539  1
  P  P198  1  0.04218927  0.58357386  0.60400501  1
  P  P199  1  0.04156111  0.58292839  0.85173186  1
  P  P200  1  0.04231894  0.91698852  0.10219944  1
  P  P201  1  0.04285758  0.91555264  0.35190145  1
  P  P202  1  0.04283629  0.91825578  0.60245845  1
  P  P203  1  0.04269644  0.91516729  0.85268724  1
  P  P204  1  0.54152428  0.25008033  0.10077033  1
  P  P205  1  0.54204874  0.25057921  0.35329419  1
  P  P206  1  0.54252098  0.25167801  0.60266936  1
  P  P207  1  0.54205764  0.25008131  0.85491721  1
  P  P208  1  0.54246753  0.58189382  0.10221255  1
  P  P209  1  0.54277157  0.58296258  0.35352837  1
  P  P210  1  0.54247859  0.58399326  0.60464026  1
  P  P211  1  0.54158162  0.58420355  0.85335421  1
  P  P212  1  0.54220589  0.91639803  0.10061430  1
  P  P213  1  0.54330897  0.91685057  0.35294442  1
  P  P214  1  0.54286382  0.91651501  0.60416407  1
  P  P215  1  0.54206993  0.91570969  0.85336618  1
  P  P216  1  0.45784425  0.08317547  0.14491157  1
  P  P217  1  0.45650756  0.08343958  0.39649161  1
  P  P218  1  0.45647705  0.08388035  0.64722116  1
  P  P219  1  0.45856979  0.08304386  0.89873245  1
  P  P220  1  0.45681872  0.41660124  0.14559882  1
  P  P221  1  0.45702925  0.41550010  0.39792618  1
  P  P222  1  0.45661389  0.41633871  0.64712262  1
  P  P223  1  0.45801005  0.41725034  0.89893545  1
  P  P224  1  0.45727104  0.75030388  0.14580755  1
  P  P225  1  0.45655446  0.74995706  0.39693249  1
  P  P226  1  0.45880540  0.75014321  0.64954343  1
  P  P227  1  0.45754763  0.75140184  0.89700538  1
  P  P228  1  0.95766104  0.08339266  0.14538372  1
  P  P229  1  0.95798268  0.08203832  0.39743286  1
  P  P230  1  0.95817345  0.08463987  0.64793205  1
  P  P231  1  0.95958563  0.08285058  0.89828737  1
  P  P232  1  0.95854809  0.41595018  0.14785009  1
  P  P233  1  0.95764465  0.41681894  0.39568216  1
  P  P234  1  0.95710520  0.41796995  0.64828695  1
  P  P235  1  0.95815590  0.41545504  0.89737251  1
  P  P236  1  0.95852296  0.75002142  0.14805386  1
  P  P237  1  0.95752571  0.75003926  0.39594090  1
  P  P238  1  0.95940203  0.75035600  0.64872838  1
  P  P239  1  0.95834887  0.74747939  0.89667754  1
  P  P240  1  0.20798546  0.08441727  0.22582885  1
  P  P241  1  0.20738495  0.08441485  0.47664613  1
  P  P242  1  0.20750978  0.08337839  0.72906508  1
  P  P243  1  0.20902559  0.08320123  0.97727460  1
  P  P244  1  0.20755247  0.41780791  0.22737239  1
  P  P245  1  0.20733068  0.41602993  0.47732649  1
  P  P246  1  0.20780063  0.41787310  0.72855224  1
  P  P247  1  0.20843396  0.41735885  0.97679702  1
  P  P248  1  0.20860123  0.74986893  0.22608236  1
  P  P249  1  0.20786160  0.74820442  0.47759979  1
  P  P250  1  0.20892760  0.75000937  0.72632087  1
  P  P251  1  0.20717622  0.74989115  0.97871495  1
  P  P252  1  0.70765384  0.08539062  0.22744527  1
  P  P253  1  0.70789575  0.08508253  0.47818955  1
  P  P254  1  0.70811091  0.08503893  0.72855358  1
  P  P255  1  0.70909104  0.08342964  0.97638117  1
  P  P256  1  0.70746636  0.41599139  0.22934609  1
  P  P257  1  0.70876195  0.41664807  0.47736453  1
  P  P258  1  0.70755317  0.41655326  0.72997712  1
  P  P259  1  0.70895593  0.41603517  0.97657199  1
  P  P260  1  0.70697207  0.74963776  0.22807533  1
  P  P261  1  0.70782665  0.75007485  0.47979017  1
  P  P262  1  0.70994244  0.74975108  0.72721259  1
  P  P263  1  0.70786969  0.74837980  0.97695075  1
  P  P264  1  0.29133022  0.24903460  0.02140860  1
  P  P265  1  0.29038233  0.25012848  0.27249304  1
  P  P266  1  0.29190692  0.25028963  0.52087440  1
  P  P267  1  0.29161497  0.25017018  0.77428199  1
  P  P268  1  0.29073511  0.58289839  0.02316714  1
  P  P269  1  0.29168725  0.58501072  0.27176453  1
  P  P270  1  0.29114373  0.58287263  0.52359240  1
  P  P271  1  0.29181981  0.58204234  0.77212157  1
  P  P272  1  0.29077838  0.91750737  0.02296362  1
  P  P273  1  0.29220289  0.91700091  0.27002664  1
  P  P274  1  0.29220849  0.91524900  0.52205822  1
  P  P275  1  0.29198626  0.91749069  0.77252157  1
  P  P276  1  0.79181236  0.24837827  0.02185421  1
  P  P277  1  0.79124620  0.24950167  0.27365751  1
  P  P278  1  0.79231937  0.24888445  0.52241357  1
  P  P279  1  0.79185467  0.24957404  0.77372329  1
  P  P280  1  0.79279541  0.58229503  0.02100565  1
  P  P281  1  0.79241544  0.58156888  0.27316945  1
  P  P282  1  0.79262433  0.58371135  0.52311934  1
  P  P283  1  0.79158577  0.58368405  0.77352892  1
  P  P284  1  0.79290539  0.91702601  0.02066405  1
  P  P285  1  0.79309766  0.91723817  0.27162546  1
  P  P286  1  0.79306219  0.91601533  0.52299683  1
  P  P287  1  0.79270750  0.91793001  0.77200549  1
  O  O288  1  0.03637937  0.25100702  0.18133732  1
  O  O289  1  0.03723984  0.25070103  0.43188526  1
  O  O290  1  0.03776954  0.24968569  0.68370074  1
  O  O291  1  0.03630522  0.24891180  0.93355501  1
  O  O292  1  0.03602392  0.58444107  0.18289848  1
  O  O293  1  0.03688367  0.58331399  0.43052395  1
  O  O294  1  0.03679394  0.58349546  0.68391373  1
  O  O295  1  0.03669255  0.58313393  0.93173861  1
  O  O296  1  0.03695591  0.91638992  0.18209797  1
  O  O297  1  0.03767979  0.91636999  0.43186704  1
  O  O298  1  0.03792198  0.91786792  0.68241491  1
  O  O299  1  0.03729450  0.91542024  0.93258289  1
  O  O300  1  0.53657709  0.24991609  0.18078874  1
  O  O301  1  0.53705236  0.25112472  0.43325564  1
  O  O302  1  0.53752475  0.25122292  0.68272300  1
  O  O303  1  0.53668309  0.24992278  0.93481801  1
  O  O304  1  0.53747223  0.58211821  0.18222651  1
  O  O305  1  0.53774972  0.58293936  0.43356343  1
  O  O306  1  0.53710054  0.58469221  0.68461267  1
  O  O307  1  0.53640678  0.58348954  0.93332065  1
  O  O308  1  0.53740364  0.91653861  0.18064192  1
  O  O309  1  0.53827660  0.91690734  0.43295462  1
  O  O310  1  0.53759131  0.91604893  0.68417394  1
  O  O311  1  0.53673450  0.91582150  0.93328939  1
  O  O312  1  0.46352661  0.08296909  0.06499535  1
  O  O313  1  0.46166502  0.08350804  0.31644333  1
  O  O314  1  0.46138398  0.08397511  0.56722239  1
  O  O315  1  0.46298544  0.08334745  0.81869920  1
  O  O316  1  0.46225428  0.41696719  0.06568222  1
  O  O317  1  0.46178877  0.41585192  0.31786801  1
  O  O318  1  0.46184684  0.41577258  0.56718048  1
  O  O319  1  0.46263516  0.41747313  0.81892236  1
  O  O320  1  0.46237647  0.75072619  0.06580734  1
  O  O321  1  0.46166018  0.74980324  0.31692443  1
  O  O322  1  0.46333706  0.75002793  0.56951900  1
  O  O323  1  0.46309836  0.75120912  0.81709975  1
  O  O324  1  0.96333190  0.08326509  0.06551342  1
  O  O325  1  0.96270280  0.08231708  0.31741992  1
  O  O326  1  0.96357531  0.08384640  0.56802902  1
  O  O327  1  0.96445131  0.08370444  0.81832066  1
  O  O328  1  0.96344386  0.41559258  0.06781392  1
  O  O329  1  0.96308221  0.41648761  0.31576802  1
  O  O330  1  0.96202787  0.41793908  0.56826346  1
  O  O331  1  0.96340485  0.41632032  0.81748179  1
  O  O332  1  0.96350272  0.74946958  0.06804479  1
  O  O333  1  0.96263804  0.75009800  0.31601700  1
  O  O334  1  0.96396335  0.75068581  0.56871223  1
  O  O335  1  0.96400072  0.74738193  0.81686756  1
  O  O336  1  0.21416746  0.08346820  0.05719057  1
  O  O337  1  0.21316289  0.08481894  0.30577531  1
  O  O338  1  0.21247194  0.08390776  0.55662355  1
  O  O339  1  0.21307318  0.08298345  0.80898410  1
  O  O340  1  0.21294798  0.41725970  0.05679918  1
  O  O341  1  0.21256150  0.41730351  0.30729534  1
  O  O342  1  0.21251698  0.41643346  0.55727041  1
  O  O343  1  0.21332000  0.41765438  0.80840588  1
  O  O344  1  0.21256521  0.74987987  0.05855781  1
  O  O345  1  0.21339509  0.74961783  0.30602329  1
  O  O346  1  0.21326800  0.74851512  0.55746990  1
  O  O347  1  0.21318050  0.74977765  0.80633241  1
  O  O348  1  0.71380912  0.08348385  0.05634898  1
  O  O349  1  0.71269683  0.08544316  0.30742028  1
  O  O350  1  0.71317549  0.08521739  0.55814639  1
  O  O351  1  0.71384242  0.08426147  0.80842490  1
  O  O352  1  0.71338733  0.41551369  0.05660432  1
  O  O353  1  0.71260272  0.41615880  0.30923524  1
  O  O354  1  0.71344049  0.41632942  0.55738674  1
  O  O355  1  0.71324220  0.41660694  0.80983391  1
  O  O356  1  0.71271800  0.74870591  0.05692975  1
  O  O357  1  0.71190783  0.74977403  0.30809684  1
  O  O358  1  0.71386044  0.75031891  0.55966856  1
  O  O359  1  0.71512050  0.74918461  0.80719957  1
  O  O360  1  0.28524428  0.25000878  0.19248074  1
  O  O361  1  0.28623609  0.25048378  0.44100876  1
  O  O362  1  0.28712942  0.25065887  0.69425360  1
  O  O363  1  0.28614014  0.24921454  0.94155289  1
  O  O364  1  0.28616955  0.58474296  0.19193364  1
  O  O365  1  0.28641579  0.58372266  0.44362754  1
  O  O366  1  0.28669604  0.58212361  0.69225703  1
  O  O367  1  0.28583997  0.58208109  0.94320783  1
  O  O368  1  0.28649058  0.91730366  0.19016518  1
  O  O369  1  0.28719903  0.91535351  0.44208698  1
  O  O370  1  0.28682745  0.91692952  0.69258667  1
  O  O371  1  0.28588332  0.91775688  0.94298564  1
  O  O372  1  0.78653155  0.24948614  0.19366661  1
  O  O373  1  0.78668371  0.24920681  0.44254130  1
  O  O374  1  0.78722195  0.24952820  0.69373745  1
  O  O375  1  0.78680684  0.24868736  0.94196701  1
  O  O376  1  0.78751596  0.58176639  0.19316762  1
  O  O377  1  0.78712382  0.58275296  0.44321288  1
  O  O378  1  0.78657072  0.58423997  0.69357193  1
  O  O379  1  0.78745108  0.58242885  0.94107886  1
  O  O380  1  0.78784400  0.91723605  0.19161292  1
  O  O381  1  0.78791516  0.91629264  0.44303614  1
  O  O382  1  0.78738407  0.91761869  0.69205925  1
  O  O383  1  0.78768313  0.91739421  0.94067960  1
  O  O384  1  0.22720173  0.24898169  0.05755630  1
  O  O385  1  0.22633269  0.24987417  0.30880610  1
  O  O386  1  0.22784210  0.25032500  0.55710572  1
  O  O387  1  0.22733869  0.24950889  0.80977556  1
  O  O388  1  0.22659889  0.58391934  0.05916429  1
  O  O389  1  0.22756131  0.58499832  0.30809242  1
  O  O390  1  0.22701208  0.58240161  0.55961488  1
  O  O391  1  0.22753044  0.58145771  0.80800843  1
  O  O392  1  0.22672205  0.91784888  0.05904535  1
  O  O393  1  0.22816370  0.91675605  0.30624833  1
  O  O394  1  0.22785620  0.91463169  0.55765542  1
  O  O395  1  0.22766636  0.91853458  0.80821979  1
  O  O396  1  0.72757074  0.24808491  0.05784619  1
  O  O397  1  0.72709556  0.24928834  0.30959729  1
  O  O398  1  0.72817868  0.24837193  0.55880510  1
  O  O399  1  0.72762310  0.24915562  0.80943688  1
  O  O400  1  0.72846476  0.58227702  0.05655739  1
  O  O401  1  0.72803747  0.58093084  0.30864813  1
  O  O402  1  0.72839550  0.58489870  0.55907627  1
  O  O403  1  0.72745301  0.58348060  0.80964374  1
  O  O404  1  0.72858128  0.91697888  0.05610456  1
  O  O405  1  0.72873529  0.91748438  0.30689638  1
  O  O406  1  0.72878973  0.91572909  0.55863690  1
  O  O407  1  0.72853689  0.91804026  0.80791370  1
  O  O408  1  0.27212809  0.08409166  0.18965202  1
  O  O409  1  0.27167448  0.08544962  0.44094136  1
  O  O410  1  0.27164981  0.08297421  0.69311376  1
  O  O411  1  0.27303280  0.08299577  0.94076428  1
  O  O412  1  0.27176576  0.41766911  0.19159483  1
  O  O413  1  0.27154889  0.41589351  0.44144986  1
  O  O414  1  0.27187439  0.41843681  0.69214800  1
  O  O415  1  0.27269081  0.41790443  0.94110036  1
  O  O416  1  0.27263745  0.74948724  0.18987492  1
  O  O417  1  0.27207510  0.74800139  0.44148361  1
  O  O418  1  0.27318287  0.75065702  0.69072898  1
  O  O419  1  0.27133454  0.74983455  0.94285052  1
  O  O420  1  0.77204023  0.08541093  0.19185511  1
  O  O421  1  0.77218555  0.08540069  0.44237910  1
  O  O422  1  0.77222678  0.08543337  0.69222168  1
  O  O423  1  0.77332147  0.08390157  0.94050980  1
  O  O424  1  0.77178121  0.41541935  0.19371237  1
  O  O425  1  0.77290002  0.41699458  0.44142445  1
  O  O426  1  0.77163674  0.41641528  0.69389245  1
  O  O427  1  0.77322810  0.41700010  0.94111323  1
  O  O428  1  0.77152771  0.74959893  0.19318222  1
  O  O429  1  0.77185800  0.74949726  0.44351154  1
  O  O430  1  0.77402059  0.74954496  0.69099075  1
  O  O431  1  0.77233860  0.74832882  0.94180037  1
  O  O432  1  0.02177835  0.08347026  0.18127710  1
  O  O433  1  0.02244598  0.08184955  0.43258521  1
  O  O434  1  0.02239606  0.08501431  0.68380664  1
  O  O435  1  0.02368111  0.08244250  0.93421302  1
  O  O436  1  0.02271724  0.41568455  0.18362187  1
  O  O437  1  0.02184181  0.41687870  0.43151824  1
  O  O438  1  0.02154451  0.41775243  0.68342523  1
  O  O439  1  0.02234224  0.41498210  0.93322947  1
  O  O440  1  0.02272965  0.75002342  0.18399026  1
  O  O441  1  0.02186292  0.75028810  0.43137951  1
  O  O442  1  0.02366301  0.74958927  0.68424790  1
  O  O443  1  0.02237186  0.74763795  0.93305234  1
  O  O444  1  0.52196988  0.08358041  0.18086397  1
  O  O445  1  0.52096479  0.08367887  0.43154217  1
  O  O446  1  0.52103650  0.08357715  0.68192233  1
  O  O447  1  0.52290138  0.08268249  0.93407171  1
  O  O448  1  0.52111082  0.41645317  0.18111414  1
  O  O449  1  0.52149149  0.41514714  0.43320337  1
  O  O450  1  0.52098330  0.41695059  0.68230321  1
  O  O451  1  0.52235022  0.41672651  0.93434531  1
  O  O452  1  0.52163554  0.74987088  0.18101158  1
  O  O453  1  0.52106614  0.74994574  0.43182859  1
  O  O454  1  0.52310962  0.75009061  0.68507898  1
  O  O455  1  0.52174283  0.75125192  0.93289081  1
  O  O456  1  0.47725626  0.25055036  0.06525591  1
  O  O457  1  0.47765152  0.25007778  0.31809149  1
  O  O458  1  0.47806303  0.25220381  0.56742750  1
  O  O459  1  0.47779584  0.25012890  0.81932399  1
  O  O460  1  0.47797207  0.58199781  0.06716688  1
  O  O461  1  0.47826595  0.58320288  0.31857489  1
  O  O462  1  0.47814476  0.58324049  0.56930287  1
  O  O463  1  0.47733251  0.58503279  0.81778362  1
  O  O464  1  0.47784134  0.91689497  0.06517248  1
  O  O465  1  0.47879325  0.91677595  0.31805375  1
  O  O466  1  0.47845522  0.91681504  0.56895536  1
  O  O467  1  0.47790038  0.91519893  0.81745941  1
  O  O468  1  0.97717851  0.25089798  0.06552066  1
  O  O469  1  0.97763645  0.25152809  0.31660371  1
  O  O470  1  0.97866876  0.24994281  0.56847872  1
  O  O471  1  0.97786432  0.24814790  0.81731992  1
  O  O472  1  0.97760107  0.58436686  0.06665433  1
  O  O473  1  0.97719399  0.58399601  0.31500891  1
  O  O474  1  0.97798831  0.58377213  0.56826620  1
  O  O475  1  0.97735706  0.58334291  0.81597828  1
  O  O476  1  0.97821905  0.91748821  0.06617279  1
  O  O477  1  0.97853094  0.91468475  0.31632439  1
  O  O478  1  0.97845993  0.91867914  0.56695146  1
  O  O479  1  0.97852794  0.91506496  0.81682186  1
  O  O480  1  0.07275064  0.31389222  0.07281807  1
  O  O481  1  0.07305820  0.31438956  0.32340056  1
  O  O482  1  0.07358357  0.31415439  0.57582082  1
  O  O483  1  0.07306512  0.31200443  0.82554273  1
  O  O484  1  0.07239821  0.64795443  0.07423515  1
  O  O485  1  0.07270860  0.64697164  0.32253546  1
  O  O486  1  0.07348875  0.64689596  0.57548347  1
  O  O487  1  0.07308623  0.64602346  0.82317442  1
  O  O488  1  0.07321489  0.98061180  0.07395455  1
  O  O489  1  0.07370748  0.97912550  0.32350506  1
  O  O490  1  0.07347216  0.98186260  0.57378476  1
  O  O491  1  0.07411004  0.97851568  0.82483742  1
  O  O492  1  0.57274464  0.31361605  0.07289441  1
  O  O493  1  0.57309641  0.31379788  0.32448466  1
  O  O494  1  0.57338097  0.31517787  0.57430102  1
  O  O495  1  0.57324665  0.31355061  0.82671620  1
  O  O496  1  0.57360599  0.64541625  0.07428196  1
  O  O497  1  0.57391555  0.64631623  0.32524631  1
  O  O498  1  0.57348954  0.64719827  0.57587989  1
  O  O499  1  0.57254772  0.64785463  0.82524120  1
  O  O500  1  0.57337444  0.97992339  0.07249988  1
  O  O501  1  0.57417656  0.98036602  0.32450959  1
  O  O502  1  0.57387028  0.98019887  0.57626815  1
  O  O503  1  0.57302542  0.97942703  0.82537065  1
  O  O504  1  0.42684025  0.01970568  0.17333731  1
  O  O505  1  0.42567494  0.01983478  0.42460317  1
  O  O506  1  0.42533821  0.02052714  0.67554055  1
  O  O507  1  0.42757389  0.01939394  0.92656858  1
  O  O508  1  0.42558342  0.35303641  0.17365193  1
  O  O509  1  0.42626224  0.35199456  0.42625555  1
  O  O510  1  0.42557416  0.35313719  0.67605833  1
  O  O511  1  0.42696164  0.35365295  0.92683385  1
  O  O512  1  0.42623659  0.68664228  0.17368910  1
  O  O513  1  0.42558012  0.68655542  0.42549479  1
  O  O514  1  0.42799767  0.68643555  0.67775858  1
  O  O515  1  0.42604552  0.68797733  0.92497051  1
  O  O516  1  0.92625055  0.02015937  0.17373915  1
  O  O517  1  0.92750804  0.01839691  0.42606976  1
  O  O518  1  0.92695646  0.02124061  0.67627437  1
  O  O519  1  0.92868598  0.01886471  0.92564185  1
  O  O520  1  0.92705878  0.35285077  0.17644997  1
  O  O521  1  0.92636735  0.35365588  0.42459267  1
  O  O522  1  0.92591531  0.35434420  0.67600911  1
  O  O523  1  0.92719270  0.35180264  0.92535012  1
  O  O524  1  0.92732392  0.68669780  0.17652576  1
  O  O525  1  0.92663958  0.68654289  0.42467528  1
  O  O526  1  0.92783726  0.68709812  0.67662738  1
  O  O527  1  0.92745165  0.68424393  0.92586504  1
  O  O528  1  0.17701455  0.02066575  0.19801697  1
  O  O529  1  0.17717195  0.02037295  0.44859178  1
  O  O530  1  0.17575992  0.02046451  0.70035540  1
  O  O531  1  0.17789107  0.01968143  0.94912520  1
  O  O532  1  0.17595263  0.35475543  0.19902070  1
  O  O533  1  0.17664764  0.35248915  0.44870908  1
  O  O534  1  0.17689629  0.35407445  0.70065344  1
  O  O535  1  0.17853398  0.35310964  0.94835732  1
  O  O536  1  0.17706600  0.68676850  0.19775915  1
  O  O537  1  0.17701704  0.68471701  0.44883571  1
  O  O538  1  0.17883563  0.68592443  0.69803497  1
  O  O539  1  0.17598771  0.68659243  0.95007605  1
  O  O540  1  0.67673384  0.02165634  0.19952154  1
  O  O541  1  0.67730485  0.02101077  0.45060379  1
  O  O542  1  0.67693106  0.02156616  0.70030435  1
  O  O543  1  0.67897017  0.01940200  0.94788302  1
  O  O544  1  0.67601459  0.35276362  0.20078484  1
  O  O545  1  0.67848353  0.35272506  0.44896276  1
  O  O546  1  0.67620342  0.35325489  0.70164084  1
  O  O547  1  0.67908061  0.35185201  0.94825359  1
  O  O548  1  0.67609663  0.68598883  0.20016908  1
  O  O549  1  0.67608439  0.68681107  0.45184686  1
  O  O550  1  0.67850155  0.68656457  0.69895999  1
  O  O551  1  0.67711835  0.68487160  0.94856814  1
  O  O552  1  0.32244483  0.31260444  0.04946871  1
  O  O553  1  0.32073336  0.31421805  0.30053385  1
  O  O554  1  0.32322861  0.31348413  0.54956145  1
  O  O555  1  0.32167644  0.31420543  0.80282502  1
  O  O556  1  0.32225048  0.64644787  0.05052988  1
  O  O557  1  0.32256833  0.64832808  0.30062658  1
  O  O558  1  0.32176893  0.64638131  0.55273928  1
  O  O559  1  0.32234977  0.64594458  0.80037851  1
  O  O560  1  0.32236706  0.98059406  0.05120049  1
  O  O561  1  0.32335807  0.98045299  0.29838748  1
  O  O562  1  0.32284001  0.97913486  0.54975460  1
  O  O563  1  0.32332200  0.98069737  0.80098982  1
  O  O564  1  0.82279147  0.31189339  0.05028106  1
  O  O565  1  0.82147205  0.31347393  0.30223785  1
  O  O566  1  0.82316362  0.31267486  0.55047209  1
  O  O567  1  0.82198169  0.31367443  0.80215378  1
  O  O568  1  0.82392921  0.64559084  0.04970829  1
  O  O569  1  0.82292897  0.64550059  0.30094516  1
  O  O570  1  0.82396519  0.64717534  0.55101280  1
  O  O571  1  0.82266492  0.64706200  0.80192866  1
  O  O572  1  0.82426624  0.98013575  0.04908059  1
  O  O573  1  0.82421004  0.98077132  0.29959696  1
  O  O574  1  0.82394257  0.97978411  0.55068965  1
  O  O575  1  0.82345075  0.98156487  0.80034659  1
  O  O576  1  0.42630947  0.14651466  0.17289598  1
  O  O577  1  0.42539721  0.14682643  0.42464679  1
  O  O578  1  0.42579341  0.14749500  0.67555659  1
  O  O579  1  0.42818229  0.14684965  0.92722241  1
  O  O580  1  0.42562320  0.47970790  0.17461707  1
  O  O581  1  0.42633041  0.47928012  0.42593623  1
  O  O582  1  0.42544740  0.47988752  0.67502491  1
  O  O583  1  0.42768961  0.48120057  0.92708923  1
  O  O584  1  0.42627714  0.81366293  0.17418099  1
  O  O585  1  0.42570882  0.81350643  0.42512713  1
  O  O586  1  0.42813595  0.81390311  0.67760246  1
  O  O587  1  0.42676780  0.81487183  0.92580781  1
  O  O588  1  0.92648472  0.14683610  0.17380288  1
  O  O589  1  0.92709202  0.14568092  0.42535868  1
  O  O590  1  0.92745264  0.14823430  0.67628997  1
  O  O591  1  0.92881675  0.14631881  0.92714544  1
  O  O592  1  0.92847776  0.48027543  0.17575870  1
  O  O593  1  0.92658734  0.48034359  0.42392105  1
  O  O594  1  0.92665583  0.48150101  0.67711707  1
  O  O595  1  0.92717009  0.47882673  0.92588065  1
  O  O596  1  0.92813266  0.81413955  0.17571094  1
  O  O597  1  0.92622080  0.81319897  0.42470844  1
  O  O598  1  0.92960583  0.81456379  0.67723998  1
  O  O599  1  0.92700574  0.81111867  0.92437055  1
  O  O600  1  0.07165199  0.18659323  0.07324411  1
  O  O601  1  0.07258624  0.18722782  0.32376949  1
  O  O602  1  0.07460711  0.18727996  0.57503958  1
  O  O603  1  0.07294209  0.18502267  0.82530497  1
  O  O604  1  0.07289658  0.52099558  0.07512739  1
  O  O605  1  0.07158693  0.51954183  0.32187993  1
  O  O606  1  0.07325251  0.52020796  0.57542178  1
  O  O607  1  0.07170768  0.51870698  0.82378624  1
  O  O608  1  0.07343819  0.85351626  0.07421570  1
  O  O609  1  0.07384126  0.85205030  0.32360005  1
  O  O610  1  0.07374948  0.85469091  0.57428756  1
  O  O611  1  0.07318873  0.85141994  0.82408428  1
  O  O612  1  0.57191994  0.18613764  0.07267429  1
  O  O613  1  0.57310906  0.18702838  0.32518574  1
  O  O614  1  0.57317933  0.18790871  0.57469966  1
  O  O615  1  0.57320356  0.18678925  0.82625428  1
  O  O616  1  0.57308309  0.51831491  0.07369195  1
  O  O617  1  0.57343258  0.51925758  0.32546198  1
  O  O618  1  0.57376124  0.52034890  0.57710334  1
  O  O619  1  0.57258552  0.52075411  0.82518738  1
  O  O620  1  0.57253135  0.85248679  0.07244529  1
  O  O621  1  0.57430096  0.85340321  0.32473105  1
  O  O622  1  0.57395201  0.85323871  0.57568878  1
  O  O623  1  0.57330321  0.85247590  0.82462197  1
  O  O624  1  0.32232117  0.18568915  0.05010997  1
  O  O625  1  0.32166724  0.18669182  0.30042635  1
  O  O626  1  0.32315091  0.18688621  0.54921333  1
  O  O627  1  0.32289038  0.18672741  0.80220396  1
  O  O628  1  0.32085543  0.51914354  0.05228716  1
  O  O629  1  0.32290218  0.52146052  0.29992737  1
  O  O630  1  0.32207576  0.51907436  0.55117520  1
  O  O631  1  0.32318528  0.51910812  0.80123942  1
  O  O632  1  0.32087941  0.85318950  0.05085443  1
  O  O633  1  0.32364592  0.85367584  0.29808993  1
  O  O634  1  0.32313986  0.85189019  0.55072966  1
  O  O635  1  0.32242069  0.85368338  0.80087073  1
  O  O636  1  0.82263921  0.18499853  0.05068746  1
  O  O637  1  0.82264386  0.18626213  0.30192774  1
  O  O638  1  0.82354402  0.18571134  0.55111835  1
  O  O639  1  0.82332504  0.18646144  0.80213700  1
  O  O640  1  0.82398154  0.51891503  0.04947702  1
  O  O641  1  0.82344702  0.51823520  0.30155209  1
  O  O642  1  0.82332873  0.52014302  0.55163971  1
  O  O643  1  0.82224408  0.51972977  0.80130016  1
  O  O644  1  0.82377903  0.85320712  0.04844117  1
  O  O645  1  0.82404014  0.85374449  0.29968250  1
  O  O646  1  0.82399750  0.85259013  0.55148224  1
  O  O647  1  0.82401063  0.85445305  0.79980708  1
  O  O648  1  0.17711589  0.14793528  0.19728802  1
  O  O649  1  0.17600306  0.14760649  0.44844089  1
  O  O650  1  0.17673612  0.14716412  0.70106863  1
  O  O651  1  0.17827652  0.14688862  0.94880508  1
  O  O652  1  0.17735017  0.48177554  0.19892758  1
  O  O653  1  0.17606278  0.47949991  0.44931602  1
  O  O654  1  0.17658081  0.48098339  0.69965906  1
  O  O655  1  0.17687531  0.48048222  0.94855807  1
  O  O656  1  0.17848734  0.81410053  0.19792599  1
  O  O657  1  0.17670617  0.81162025  0.44914898  1
  O  O658  1  0.17780348  0.81347434  0.69825515  1
  O  O659  1  0.17599590  0.81328188  0.95035594  1
  O  O660  1  0.67686923  0.14866189  0.19836981  1
  O  O661  1  0.67660543  0.14807752  0.44936395  1
  O  O662  1  0.67704082  0.14850645  0.70034783  1
  O  O663  1  0.67761769  0.14664692  0.94821844  1
  O  O664  1  0.67659014  0.47933027  0.20039325  1
  O  O665  1  0.67771175  0.48029923  0.44967210  1
  O  O666  1  0.67633117  0.47997721  0.70174055  1
  O  O667  1  0.67740137  0.47930582  0.94870724  1
  O  O668  1  0.67609767  0.81306605  0.19956502  1
  O  O669  1  0.67675587  0.81350333  0.45135327  1
  O  O670  1  0.67968446  0.81407289  0.69969257  1
  O  O671  1  0.67694487  0.81197368  0.94887458  1
