# generated using pymatgen
data_Na2MnFe(PO4)2
_symmetry_space_group_name_H-M   'P 1'
_cell_length_a   22.34627501
_cell_length_b   20.09724444
_cell_length_c   19.44672555
_cell_angle_alpha   90.09538154
_cell_angle_beta   89.96848345
_cell_angle_gamma   90.04106577
_symmetry_Int_Tables_number   1
_chemical_formula_structural   Na2MnFe(PO4)2
_chemical_formula_sum   'Na96 Mn48 Fe48 P96 O384'
_cell_volume   8733.48060895
_cell_formula_units_Z   48
loop_
 _symmetry_equiv_pos_site_id
 _symmetry_equiv_pos_as_xyz
  1  'x, y, z'
loop_
 _atom_site_type_symbol
 _atom_site_label
 _atom_site_symmetry_multiplicity
 _atom_site_fract_x
 _atom_site_fract_y
 _atom_site_fract_z
 _atom_site_occupancy
  Na  Na0  1  0.14056262  0.25004129  0.24197962  1
  Na  Na1  1  0.14071489  0.24873112  0.49314971  1
  Na  Na2  1  0.14050865  0.24871883  0.74478945  1
  Na  Na3  1  0.14033097  0.24920600  0.99520576  1
  Na  Na4  1  0.14047628  0.58237256  0.24402109  1
  Na  Na5  1  0.14023122  0.58215239  0.49340299  1
  Na  Na6  1  0.14032798  0.58245382  0.74497550  1
  Na  Na7  1  0.14050208  0.58174608  0.99436881  1
  Na  Na8  1  0.14050363  0.91726072  0.24431640  1
  Na  Na9  1  0.13990177  0.91554730  0.49326655  1
  Na  Na10  1  0.14033636  0.91489486  0.74412650  1
  Na  Na11  1  0.14058986  0.91678671  0.99515485  1
  Na  Na12  1  0.64021727  0.25214937  0.24321065  1
  Na  Na13  1  0.64040320  0.25059619  0.49273924  1
  Na  Na14  1  0.64082110  0.24967840  0.74334512  1
  Na  Na15  1  0.64085078  0.25219468  0.99442084  1
  Na  Na16  1  0.64029744  0.58289541  0.24342204  1
  Na  Na17  1  0.64043813  0.58375349  0.49177351  1
  Na  Na18  1  0.64085972  0.58444345  0.74309632  1
  Na  Na19  1  0.64058490  0.58450235  0.99371702  1
  Na  Na20  1  0.64064126  0.91528692  0.24458036  1
  Na  Na21  1  0.63997849  0.91579302  0.49384816  1
  Na  Na22  1  0.64025857  0.91551416  0.74163983  1
  Na  Na23  1  0.64059687  0.91689784  0.99228361  1
  Na  Na24  1  0.35954857  0.08418002  0.00696434  1
  Na  Na25  1  0.35993467  0.08483548  0.25683005  1
  Na  Na26  1  0.36003970  0.08285136  0.50635975  1
  Na  Na27  1  0.35967663  0.08208154  0.75584357  1
  Na  Na28  1  0.35977301  0.41595298  0.00760582  1
  Na  Na29  1  0.36022832  0.41765425  0.25661108  1
  Na  Na30  1  0.35991555  0.41721158  0.50487349  1
  Na  Na31  1  0.35983789  0.41659507  0.75550971  1
  Na  Na32  1  0.35976438  0.75064678  0.00595973  1
  Na  Na33  1  0.35989224  0.75055136  0.25714914  1
  Na  Na34  1  0.36006425  0.75019958  0.50660768  1
  Na  Na35  1  0.35972887  0.74968694  0.75485891  1
  Na  Na36  1  0.85927343  0.08532302  0.00622560  1
  Na  Na37  1  0.85934935  0.08377404  0.25636837  1
  Na  Na38  1  0.85929959  0.08270935  0.50647153  1
  Na  Na39  1  0.85913273  0.08246767  0.75647933  1
  Na  Na40  1  0.85932877  0.41873611  0.00761863  1
  Na  Na41  1  0.86002453  0.41810767  0.25728483  1
  Na  Na42  1  0.85940609  0.41812433  0.50520119  1
  Na  Na43  1  0.85882835  0.41761413  0.75646343  1
  Na  Na44  1  0.85894060  0.74978633  0.00607060  1
  Na  Na45  1  0.85924152  0.74911404  0.25693444  1
  Na  Na46  1  0.85885821  0.74984354  0.50658613  1
  Na  Na47  1  0.85872350  0.74903224  0.75589112  1
  Na  Na48  1  0.10978329  0.08276824  0.11917666  1
  Na  Na49  1  0.10958535  0.08229844  0.36782168  1
  Na  Na50  1  0.10946817  0.08206781  0.61884884  1
  Na  Na51  1  0.10956893  0.08344745  0.87016476  1
  Na  Na52  1  0.11030421  0.41542404  0.11869242  1
  Na  Na53  1  0.10950401  0.41564815  0.36747822  1
  Na  Na54  1  0.10933450  0.41578377  0.61918386  1
  Na  Na55  1  0.10980851  0.41544186  0.87017668  1
  Na  Na56  1  0.10930103  0.74926395  0.11958296  1
  Na  Na57  1  0.10931160  0.74889555  0.36945608  1
  Na  Na58  1  0.10952503  0.74813639  0.61858823  1
  Na  Na59  1  0.10976380  0.75031137  0.86987222  1
  Na  Na60  1  0.60967025  0.08444730  0.11917738  1
  Na  Na61  1  0.60930683  0.08427672  0.36962840  1
  Na  Na62  1  0.60924918  0.08217247  0.61828984  1
  Na  Na63  1  0.60972925  0.08307485  0.86774879  1
  Na  Na64  1  0.61061736  0.41741271  0.11927523  1
  Na  Na65  1  0.60977095  0.41767215  0.36702564  1
  Na  Na66  1  0.60996675  0.41758342  0.61694845  1
  Na  Na67  1  0.61017909  0.41836832  0.86945409  1
  Na  Na68  1  0.61001651  0.74831242  0.11868659  1
  Na  Na69  1  0.61026923  0.74939770  0.36874502  1
  Na  Na70  1  0.60993705  0.75070053  0.61656047  1
  Na  Na71  1  0.61012410  0.75110799  0.86680406  1
  Na  Na72  1  0.39059577  0.25120198  0.13306111  1
  Na  Na73  1  0.39052581  0.25050838  0.38063110  1
  Na  Na74  1  0.39078406  0.24890502  0.63045364  1
  Na  Na75  1  0.39050399  0.25095748  0.88188550  1
  Na  Na76  1  0.39064757  0.58217979  0.13187511  1
  Na  Na77  1  0.39071138  0.58453025  0.38121157  1
  Na  Na78  1  0.39045540  0.58454208  0.62959682  1
  Na  Na79  1  0.39070710  0.58356486  0.88088874  1
  Na  Na80  1  0.39082611  0.91728643  0.13180521  1
  Na  Na81  1  0.39098297  0.91733543  0.38242589  1
  Na  Na82  1  0.39000304  0.91681950  0.63089262  1
  Na  Na83  1  0.39013354  0.91651298  0.88039767  1
  Na  Na84  1  0.89042801  0.25121689  0.13194686  1
  Na  Na85  1  0.89033357  0.25131196  0.37997187  1
  Na  Na86  1  0.89044692  0.25000076  0.63078645  1
  Na  Na87  1  0.89012409  0.25021160  0.88161901  1
  Na  Na88  1  0.88993570  0.58277911  0.13236557  1
  Na  Na89  1  0.88968556  0.58320364  0.38216084  1
  Na  Na90  1  0.88924201  0.58263971  0.63092297  1
  Na  Na91  1  0.88935404  0.58406356  0.88254563  1
  Na  Na92  1  0.89023920  0.91631136  0.13088807  1
  Na  Na93  1  0.88979573  0.91554740  0.38161321  1
  Na  Na94  1  0.88961005  0.91641277  0.63181781  1
  Na  Na95  1  0.88983020  0.91694551  0.88099402  1
  Mn  Mn96  1  0.74951467  0.16767570  0.37534140  1
  Mn  Mn97  1  -0.00041473  0.66565796  0.49973518  1
  Mn  Mn98  1  0.50079484  0.83275444  0.25068188  1
  Mn  Mn99  1  -0.00090776  0.33254882  0.75025314  1
  Mn  Mn100  1  0.50035833  0.16728004  -0.00005749  1
  Mn  Mn101  1  0.24976604  0.66659443  0.12511842  1
  Mn  Mn102  1  0.00060274  0.00079325  0.75097734  1
  Mn  Mn103  1  -0.00036204  0.00014122  0.00067703  1
  Mn  Mn104  1  -0.00113027  -0.00119140  0.49928720  1
  Mn  Mn105  1  0.24969884  0.16657022  0.37452902  1
  Mn  Mn106  1  0.24934837  -0.00105311  0.87589085  1
  Mn  Mn107  1  -0.00059340  0.66614140  0.25048075  1
  Mn  Mn108  1  0.74956505  0.16861251  0.12565224  1
  Mn  Mn109  1  0.75052552  0.16621375  0.62420616  1
  Mn  Mn110  1  0.74991689  0.83208461  0.12408292  1
  Mn  Mn111  1  0.75020156  0.33460721  0.62469136  1
  Mn  Mn112  1  0.74971951  -0.00006156  0.87453217  1
  Mn  Mn113  1  0.24995029  0.16670593  0.87601351  1
  Mn  Mn114  1  0.00077126  0.33354296  0.49981995  1
  Mn  Mn115  1  0.25075086  0.49862901  0.87480742  1
  Mn  Mn116  1  -0.00034246  0.83312880  0.75030054  1
  Mn  Mn117  1  0.50007735  0.50077840  0.74878098  1
  Mn  Mn118  1  0.49953253  0.66601094  -0.00092158  1
  Mn  Mn119  1  0.25016282  0.33255371  0.62488499  1
  Mn  Mn120  1  -0.00051576  -0.00099062  0.24974059  1
  Mn  Mn121  1  0.74987078  0.00019912  0.12451292  1
  Mn  Mn122  1  0.50003160  0.33382749  0.74928916  1
  Mn  Mn123  1  0.50102610  0.66786964  0.74913346  1
  Mn  Mn124  1  -0.00023140  0.33293459  0.00043427  1
  Mn  Mn125  1  0.00006897  0.16647880  0.49930158  1
  Mn  Mn126  1  0.50063166  0.33449925  0.00077374  1
  Mn  Mn127  1  0.74995731  0.33464256  0.87452348  1
  Mn  Mn128  1  -0.00004283  0.66613038  0.75062768  1
  Mn  Mn129  1  0.25007649  0.49994955  0.37500586  1
  Mn  Mn130  1  0.24992617  0.83447210  0.12666992  1
  Mn  Mn131  1  0.50096244  0.00099748  0.25129604  1
  Mn  Mn132  1  0.50051129  0.33381345  0.49913709  1
  Mn  Mn133  1  0.50071162  0.83332352  -0.00006432  1
  Mn  Mn134  1  0.24919245  0.49982513  0.62495117  1
  Mn  Mn135  1  0.25026502  0.83368294  0.37550860  1
  Mn  Mn136  1  0.00000479  0.66647463  0.00134583  1
  Mn  Mn137  1  0.50035538  0.16591852  0.75043692  1
  Mn  Mn138  1  0.25065946  0.16529938  0.62446945  1
  Mn  Mn139  1  0.24939792  0.83241430  0.62424559  1
  Mn  Mn140  1  0.50020834  0.00009399  0.00001636  1
  Mn  Mn141  1  -0.00025739  0.49965610  0.75073013  1
  Mn  Mn142  1  0.25044807  0.66658908  0.87540009  1
  Mn  Mn143  1  0.74949763  -0.00103387  0.37538570  1
  Fe  Fe144  1  0.75060396  0.33523377  0.12449856  1
  Fe  Fe145  1  0.74994249  0.50124232  0.87552440  1
  Fe  Fe146  1  0.74976775  0.66623650  0.12528290  1
  Fe  Fe147  1  0.74961462  0.66679434  0.87440511  1
  Fe  Fe148  1  0.25036975  0.33246902  0.87586164  1
  Fe  Fe149  1  0.25099411  0.00059188  0.12508010  1
  Fe  Fe150  1  0.74965945  0.66647182  0.62483249  1
  Fe  Fe151  1  0.74981203  0.16728172  0.87492239  1
  Fe  Fe152  1  0.49961777  0.83403441  0.74854031  1
  Fe  Fe153  1  0.00038911  0.49957387  0.25035122  1
  Fe  Fe154  1  0.25046338  0.33343401  0.12520344  1
  Fe  Fe155  1  0.25023959  0.00039717  0.37490143  1
  Fe  Fe156  1  -0.00033192  0.16660792  0.00059580  1
  Fe  Fe157  1  0.74981868  0.83248475  0.62444303  1
  Fe  Fe158  1  0.49967595  -0.00036144  0.74873420  1
  Fe  Fe159  1  0.74897055  0.50094403  0.62456350  1
  Fe  Fe160  1  -0.00037816  0.49942053  0.50004743  1
  Fe  Fe161  1  0.50028426  0.66705247  0.49912662  1
  Fe  Fe162  1  -0.00059250  0.16627332  0.24970683  1
  Fe  Fe163  1  0.50042193  0.33416116  0.25055661  1
  Fe  Fe164  1  0.75046446  0.50115737  0.12568302  1
  Fe  Fe165  1  0.25008652  0.33338117  0.37418689  1
  Fe  Fe166  1  0.75003387  0.83292549  0.87378766  1
  Fe  Fe167  1  0.74991918  0.66619465  0.37535116  1
  Fe  Fe168  1  0.00005066  0.83326008  0.00042897  1
  Fe  Fe169  1  0.75008366  0.33484910  0.37454818  1
  Fe  Fe170  1  0.50023853  0.16723269  0.25046589  1
  Fe  Fe171  1  0.00009467  0.33320388  0.24976272  1
  Fe  Fe172  1  -0.00060168  0.83247293  0.50044103  1
  Fe  Fe173  1  0.25029888  0.16703501  0.12570146  1
  Fe  Fe174  1  0.49990733  0.00041716  0.50041578  1
  Fe  Fe175  1  0.24996584  0.66619886  0.62528124  1
  Fe  Fe176  1  0.74966865  0.50067472  0.37463388  1
  Fe  Fe177  1  0.49996335  0.83353686  0.49971040  1
  Fe  Fe178  1  0.25010366  0.66655290  0.37506179  1
  Fe  Fe179  1  0.50019712  0.49981659  0.00072315  1
  Fe  Fe180  1  0.74943361  -0.00089472  0.62522814  1
  Fe  Fe181  1  0.49980695  0.66639668  0.24995822  1
  Fe  Fe182  1  0.50047282  0.16709928  0.50004008  1
  Fe  Fe183  1  -0.00029541  0.83265258  0.25030701  1
  Fe  Fe184  1  -0.00005693  0.49947589  0.00106281  1
  Fe  Fe185  1  0.24954013  -0.00099189  0.62541943  1
  Fe  Fe186  1  0.49990319  0.50070731  0.49842417  1
  Fe  Fe187  1  -0.00015403  0.16651455  0.75002931  1
  Fe  Fe188  1  0.25058089  0.49971707  0.12513451  1
  Fe  Fe189  1  0.75036354  0.83253343  0.37513358  1
  Fe  Fe190  1  0.25005921  0.83293566  0.87521364  1
  Fe  Fe191  1  0.50048036  0.50072301  0.24988008  1
  P  P192  1  0.04163860  0.24847485  0.10350072  1
  P  P193  1  0.04158708  0.24955908  0.35079946  1
  P  P194  1  0.04301977  0.24936660  0.60318529  1
  P  P195  1  0.04186293  0.24828065  0.85314982  1
  P  P196  1  0.04219224  0.58113015  0.10367886  1
  P  P197  1  0.04189352  0.58159629  0.35289128  1
  P  P198  1  0.04219687  0.58148513  0.60238159  1
  P  P199  1  0.04261043  0.58288543  0.85465714  1
  P  P200  1  0.04202039  0.91498638  0.10325827  1
  P  P201  1  0.04178055  0.91441911  0.35280799  1
  P  P202  1  0.04186638  0.91515055  0.60229977  1
  P  P203  1  0.04270416  0.91649376  0.85413426  1
  P  P204  1  0.54284712  0.25073440  0.10444727  1
  P  P205  1  0.54158327  0.25025904  0.35200013  1
  P  P206  1  0.54284071  0.24911792  0.60204897  1
  P  P207  1  0.54323425  0.25083936  0.85297712  1
  P  P208  1  0.54204851  0.58229096  0.10302967  1
  P  P209  1  0.54143914  0.58388070  0.35178856  1
  P  P210  1  0.54160603  0.58371619  0.60013827  1
  P  P211  1  0.54305118  0.58369325  0.85260419  1
  P  P212  1  0.54361302  0.91682189  0.10338157  1
  P  P213  1  0.54288302  0.91669011  0.35462948  1
  P  P214  1  0.54074057  0.91660699  0.60171323  1
  P  P215  1  0.54167163  0.91699662  0.85037919  1
  P  P216  1  0.45803436  0.08476996  0.14832250  1
  P  P217  1  0.45896561  0.08428934  0.39854683  1
  P  P218  1  0.45792630  0.08217667  0.64650312  1
  P  P219  1  0.45718243  0.08299568  0.89653208  1
  P  P220  1  0.45927208  0.41742663  0.14875084  1
  P  P221  1  0.45841578  0.41835106  0.39588961  1
  P  P222  1  0.45737764  0.41724363  0.64523888  1
  P  P223  1  0.45780052  0.41834775  0.89785048  1
  P  P224  1  0.45784986  0.74846556  0.14785320  1
  P  P225  1  0.45889731  0.75007284  0.39804406  1
  P  P226  1  0.45838655  0.75156434  0.64581473  1
  P  P227  1  0.45754901  0.75097785  0.89579720  1
  P  P228  1  0.95727148  0.08434177  0.14730104  1
  P  P229  1  0.95683618  0.08321360  0.39590837  1
  P  P230  1  0.95735692  0.08402389  0.64768187  1
  P  P231  1  0.95751963  0.08496437  0.89774995  1
  P  P232  1  0.95895701  0.41691598  0.14847928  1
  P  P233  1  0.95817006  0.41758390  0.39662489  1
  P  P234  1  0.95671048  0.41664326  0.64669256  1
  P  P235  1  0.95721263  0.41759929  0.89848186  1
  P  P236  1  0.95760929  0.75084902  0.14770202  1
  P  P237  1  0.95740517  0.75077178  0.39756483  1
  P  P238  1  0.95692724  0.74934688  0.64672592  1
  P  P239  1  0.95758637  0.75087071  0.89836701  1
  P  P240  1  0.20906560  0.08312838  0.22697296  1
  P  P241  1  0.20759971  0.08159216  0.47746722  1
  P  P242  1  0.20756727  0.08145349  0.72765270  1
  P  P243  1  0.20744180  0.08324703  0.97975544  1
  P  P244  1  0.20914439  0.41637496  0.22679287  1
  P  P245  1  0.20742557  0.41507628  0.47678862  1
  P  P246  1  0.20700942  0.41550694  0.72866642  1
  P  P247  1  0.20854578  0.41466728  0.97866584  1
  P  P248  1  0.20727075  0.74977180  0.22926562  1
  P  P249  1  0.20796424  0.74817563  0.47768159  1
  P  P250  1  0.20739920  0.74839933  0.72772283  1
  P  P251  1  0.20787529  0.75117438  0.97807771  1
  P  P252  1  0.70712537  0.08365224  0.22828485  1
  P  P253  1  0.70726152  0.08278688  0.47864800  1
  P  P254  1  0.70765538  0.08203601  0.72731409  1
  P  P255  1  0.70760898  0.08536229  0.97717088  1
  P  P256  1  0.70949875  0.41761492  0.22714814  1
  P  P257  1  0.70825596  0.41791570  0.47622662  1
  P  P258  1  0.70759128  0.41901347  0.72741269  1
  P  P259  1  0.70833691  0.41911536  0.97821931  1
  P  P260  1  0.70797839  0.74814904  0.22805450  1
  P  P261  1  0.70887159  0.74959965  0.47707932  1
  P  P262  1  0.70830366  0.74960617  0.72630076  1
  P  P263  1  0.70827640  0.75012436  0.97574348  1
  P  P264  1  0.29179039  0.25017751  0.02389685  1
  P  P265  1  0.29198272  0.25143148  0.27158893  1
  P  P266  1  0.29307665  0.24968747  0.52088568  1
  P  P267  1  0.29268628  0.25035931  0.77297200  1
  P  P268  1  0.29246565  0.58195021  0.02287874  1
  P  P269  1  0.29220606  0.58423296  0.27241924  1
  P  P270  1  0.29178127  0.58470461  0.52205687  1
  P  P271  1  0.29303946  0.58320523  0.77150159  1
  P  P272  1  0.29271403  0.91750492  0.02292895  1
  P  P273  1  0.29298441  0.91872150  0.27285094  1
  P  P274  1  0.29171531  0.91789805  0.52220477  1
  P  P275  1  0.29172540  0.91492236  0.77237542  1
  P  P276  1  0.79239603  0.25247720  0.02234224  1
  P  P277  1  0.79160335  0.25268336  0.27212009  1
  P  P278  1  0.79264796  0.25126747  0.52110808  1
  P  P279  1  0.79217401  0.24913132  0.77246328  1
  P  P280  1  0.79124736  0.58402766  0.02313900  1
  P  P281  1  0.79132154  0.58356928  0.27321597  1
  P  P282  1  0.79076272  0.58376984  0.52258302  1
  P  P283  1  0.79108704  0.58357132  0.77282634  1
  P  P284  1  0.79247982  0.91628585  0.02089207  1
  P  P285  1  0.79208149  0.91469207  0.27256372  1
  P  P286  1  0.79100285  0.91600711  0.52323263  1
  P  P287  1  0.79172753  0.91490909  0.77135370  1
  O  O288  1  0.03614942  0.24886995  0.18335190  1
  O  O289  1  0.03720405  0.25010689  0.43083624  1
  O  O290  1  0.03767765  0.24905372  0.68313198  1
  O  O291  1  0.03646043  0.24834717  0.93312217  1
  O  O292  1  0.03668931  0.58117517  0.18363446  1
  O  O293  1  0.03671675  0.58151729  0.43283631  1
  O  O294  1  0.03722291  0.58217241  0.68238686  1
  O  O295  1  0.03744343  0.58254726  0.93464780  1
  O  O296  1  0.03650917  0.91490872  0.18321629  1
  O  O297  1  0.03636772  0.91444350  0.43276532  1
  O  O298  1  0.03713520  0.91595410  0.68231337  1
  O  O299  1  0.03742553  0.91633455  0.93408926  1
  O  O300  1  0.53744781  0.25070850  0.18437796  1
  O  O301  1  0.53669368  0.25006126  0.43199660  1
  O  O302  1  0.53769764  0.24950330  0.68201479  1
  O  O303  1  0.53820134  0.25110413  0.93301206  1
  O  O304  1  0.53673211  0.58275225  0.18293999  1
  O  O305  1  0.53628197  0.58386836  0.43167323  1
  O  O306  1  0.53717978  0.58406093  0.68012576  1
  O  O307  1  0.53786157  0.58334030  0.93252362  1
  O  O308  1  0.53878440  0.91687952  0.18339630  1
  O  O309  1  0.53716873  0.91657671  0.43449733  1
  O  O310  1  0.53551343  0.91666926  0.68163225  1
  O  O311  1  0.53737679  0.91679148  0.93047651  1
  O  O312  1  0.46300568  0.08431427  0.06833506  1
  O  O313  1  0.46424697  0.08458894  0.31860479  1
  O  O314  1  0.46355507  0.08272633  0.56663340  1
  O  O315  1  0.46206803  0.08243884  0.81652569  1
  O  O316  1  0.46394099  0.41743118  0.06876429  1
  O  O317  1  0.46422505  0.41841776  0.31602977  1
  O  O318  1  0.46260642  0.41743492  0.56524075  1
  O  O319  1  0.46254868  0.41796064  0.81782990  1
  O  O320  1  0.46274282  0.74864450  0.06784156  1
  O  O321  1  0.46372602  0.74926722  0.31809584  1
  O  O322  1  0.46369128  0.75132414  0.56590737  1
  O  O323  1  0.46282033  0.75157601  0.81580045  1
  O  O324  1  0.96269932  0.08442159  0.06734527  1
  O  O325  1  0.96207077  0.08324174  0.31592954  1
  O  O326  1  0.96218849  0.08323361  0.56764454  1
  O  O327  1  0.96301750  0.08504479  0.81778341  1
  O  O328  1  0.96349217  0.41700276  0.06847722  1
  O  O329  1  0.96368841  0.41740797  0.31672497  1
  O  O330  1  0.96209842  0.41697781  0.56671392  1
  O  O331  1  0.96209027  0.41697942  0.81850048  1
  O  O332  1  0.96313512  0.75078654  0.06780067  1
  O  O333  1  0.96264009  0.75083192  0.31760407  1
  O  O334  1  0.96208283  0.74946798  0.56673154  1
  O  O335  1  0.96267375  0.75012503  0.81837193  1
  O  O336  1  0.21309284  0.08338453  0.05961021  1
  O  O337  1  0.21369255  0.08308017  0.30699067  1
  O  O338  1  0.21288596  0.08155661  0.55741531  1
  O  O339  1  0.21251244  0.08196946  0.80764373  1
  O  O340  1  0.21419781  0.41527270  0.05856638  1
  O  O341  1  0.21382119  0.41628385  0.30678147  1
  O  O342  1  0.21222939  0.41552072  0.55674332  1
  O  O343  1  0.21226619  0.41501578  0.80864799  1
  O  O344  1  0.21297004  0.75115502  0.05806051  1
  O  O345  1  0.21274016  0.74920586  0.30918948  1
  O  O346  1  0.21298435  0.74795519  0.55765780  1
  O  O347  1  0.21293636  0.74938244  0.80763039  1
  O  O348  1  0.71287337  0.08516182  0.05714566  1
  O  O349  1  0.71228907  0.08354184  0.30826981  1
  O  O350  1  0.71278830  0.08232739  0.55856472  1
  O  O351  1  0.71277437  0.08269963  0.80728314  1
  O  O352  1  0.71397988  0.41864063  0.05808373  1
  O  O353  1  0.71409857  0.41761016  0.30705918  1
  O  O354  1  0.71288354  0.41869988  0.55619149  1
  O  O355  1  0.71301471  0.41914462  0.80734195  1
  O  O356  1  0.71290779  0.74971430  0.05566698  1
  O  O357  1  0.71350287  0.74839310  0.30787891  1
  O  O358  1  0.71395651  0.74957598  0.55693689  1
  O  O359  1  0.71308397  0.75024632  0.80616231  1
  O  O360  1  0.28664839  0.25115987  0.19170205  1
  O  O361  1  0.28768115  0.25003106  0.44091683  1
  O  O362  1  0.28762346  0.24956850  0.69297222  1
  O  O363  1  0.28698043  0.25025193  0.94389192  1
  O  O364  1  0.28712153  0.58335956  0.19248871  1
  O  O365  1  0.28630935  0.58508106  0.44209361  1
  O  O366  1  0.28754208  0.58346701  0.69155658  1
  O  O367  1  0.28763772  0.58191064  0.94290161  1
  O  O368  1  0.28788696  0.91878467  0.19289318  1
  O  O369  1  0.28669434  0.91822083  0.44226503  1
  O  O370  1  0.28639562  0.91528261  0.69241782  1
  O  O371  1  0.28701115  0.91638735  0.94303046  1
  O  O372  1  0.78618310  0.25299273  0.19217994  1
  O  O373  1  0.78715746  0.25183112  0.44117032  1
  O  O374  1  0.78713452  0.24929810  0.69250106  1
  O  O375  1  0.78704190  0.25161189  0.94241115  1
  O  O376  1  0.78679934  0.58317501  0.19335441  1
  O  O377  1  0.78548375  0.58379995  0.44272945  1
  O  O378  1  0.78586300  0.58367629  0.69296148  1
  O  O379  1  0.78657213  0.58357548  0.94327737  1
  O  O380  1  0.78698130  0.91483560  0.19260402  1
  O  O381  1  0.78644909  0.91545088  0.44323034  1
  O  O382  1  0.78626930  0.91521544  0.69146520  1
  O  O383  1  0.78714546  0.91599039  0.94092853  1
  O  O384  1  0.22762843  0.25064730  0.05977990  1
  O  O385  1  0.22780594  0.25149542  0.30768953  1
  O  O386  1  0.22877838  0.24898364  0.55630489  1
  O  O387  1  0.22833962  0.25091871  0.80860949  1
  O  O388  1  0.22807549  0.58177101  0.05818044  1
  O  O389  1  0.22792570  0.58433071  0.30806928  1
  O  O390  1  0.22761582  0.58476935  0.55812736  1
  O  O391  1  0.22883861  0.58272209  0.80718503  1
  O  O392  1  0.22852363  0.91861474  0.05904295  1
  O  O393  1  0.22857338  0.91842347  0.30827640  1
  O  O394  1  0.22745287  0.91750820  0.55793629  1
  O  O395  1  0.22754550  0.91439599  0.80838189  1
  O  O396  1  0.72816656  0.25322980  0.05823173  1
  O  O397  1  0.72746325  0.25288849  0.30817607  1
  O  O398  1  0.72841399  0.25076360  0.55664635  1
  O  O399  1  0.72788004  0.24944070  0.80806753  1
  O  O400  1  0.72714434  0.58428480  0.05929908  1
  O  O401  1  0.72713667  0.58435417  0.30921055  1
  O  O402  1  0.72672466  0.58396413  0.55913549  1
  O  O403  1  0.72705641  0.58322157  0.80927414  1
  O  O404  1  0.72816858  0.91624332  0.05632915  1
  O  O405  1  0.72781191  0.91439936  0.30818340  1
  O  O406  1  0.72682187  0.91672679  0.55909032  1
  O  O407  1  0.72760676  0.91492745  0.80754851  1
  O  O408  1  0.27325995  0.08288574  0.19118335  1
  O  O409  1  0.27192237  0.08206543  0.44176329  1
  O  O410  1  0.27195280  0.08089658  0.69214420  1
  O  O411  1  0.27151536  0.08300964  0.94365048  1
  O  O412  1  0.27338267  0.41617135  0.19109715  1
  O  O413  1  0.27188147  0.41491118  0.44151231  1
  O  O414  1  0.27133334  0.41633572  0.69325525  1
  O  O415  1  0.27263794  0.41425766  0.94230538  1
  O  O416  1  0.27157170  0.75004434  0.19385899  1
  O  O417  1  0.27228367  0.74874638  0.44208720  1
  O  O418  1  0.27159781  0.74815914  0.69161558  1
  O  O419  1  0.27216482  0.75145698  0.94242840  1
  O  O420  1  0.77147893  0.08403771  0.19304039  1
  O  O421  1  0.77146532  0.08310402  0.44301597  1
  O  O422  1  0.77194657  0.08128681  0.69161898  1
  O  O423  1  0.77186057  0.08505846  0.94142030  1
  O  O424  1  0.77358213  0.41722427  0.19100960  1
  O  O425  1  0.77249965  0.41722334  0.44051912  1
  O  O426  1  0.77180632  0.41949423  0.69148373  1
  O  O427  1  0.77233683  0.41911554  0.94172379  1
  O  O428  1  0.77206097  0.74788207  0.19164898  1
  O  O429  1  0.77284127  0.74894533  0.44052114  1
  O  O430  1  0.77240308  0.74873015  0.69018338  1
  O  O431  1  0.77249564  0.75061380  0.93987833  1
  O  O432  1  0.02148389  0.08403493  0.18311980  1
  O  O433  1  0.02118972  0.08249046  0.43110100  1
  O  O434  1  0.02180824  0.08486277  0.68294826  1
  O  O435  1  0.02170177  0.08476228  0.93368119  1
  O  O436  1  0.02317413  0.41710046  0.18407865  1
  O  O437  1  0.02227980  0.41838552  0.43286264  1
  O  O438  1  0.02099872  0.41604190  0.68210640  1
  O  O439  1  0.02161410  0.41780334  0.93380724  1
  O  O440  1  0.02177379  0.75055173  0.18363292  1
  O  O441  1  0.02161945  0.75062674  0.43333412  1
  O  O442  1  0.02132715  0.74931489  0.68188449  1
  O  O443  1  0.02189247  0.75094094  0.93389396  1
  O  O444  1  0.52241310  0.08549931  0.18369559  1
  O  O445  1  0.52296477  0.08457405  0.43477503  1
  O  O446  1  0.52198186  0.08155408  0.68284497  1
  O  O447  1  0.52170129  0.08338905  0.93142737  1
  O  O448  1  0.52343326  0.41795376  0.18451176  1
  O  O449  1  0.52244852  0.41867880  0.43222106  1
  O  O450  1  0.52176710  0.41713799  0.68043438  1
  O  O451  1  0.52228528  0.41870501  0.93301569  1
  O  O452  1  0.52225237  0.74822815  0.18310817  1
  O  O453  1  0.52303807  0.75097254  0.43388254  1
  O  O454  1  0.52254949  0.75230419  0.68182844  1
  O  O455  1  0.52188043  0.74996996  0.93115006  1
  O  O456  1  0.47863203  0.25072938  0.06868871  1
  O  O457  1  0.47751071  0.24988066  0.31596598  1
  O  O458  1  0.47853614  0.24916486  0.56653004  1
  O  O459  1  0.47874532  0.25044510  0.81810611  1
  O  O460  1  0.47788056  0.58171968  0.06694517  1
  O  O461  1  0.47739001  0.58343098  0.31550806  1
  O  O462  1  0.47729811  0.58305316  0.56477016  1
  O  O463  1  0.47873750  0.58438516  0.81726056  1
  O  O464  1  0.47903674  0.91661877  0.06870069  1
  O  O465  1  0.47880711  0.91674108  0.31859733  1
  O  O466  1  0.47681303  0.91607829  0.56531187  1
  O  O467  1  0.47728890  0.91725005  0.81504999  1
  O  O468  1  0.97759197  0.24851366  0.06720124  1
  O  O469  1  0.97725608  0.24922145  0.31551179  1
  O  O470  1  0.97868730  0.24995539  0.56786294  1
  O  O471  1  0.97761965  0.24788616  0.81724880  1
  O  O472  1  0.97796028  0.58147215  0.06787349  1
  O  O473  1  0.97760221  0.58137746  0.31732242  1
  O  O474  1  0.97777698  0.58125388  0.56704776  1
  O  O475  1  0.97819649  0.58314012  0.81946836  1
  O  O476  1  0.97786828  0.91503550  0.06728047  1
  O  O477  1  0.97752061  0.91469530  0.31710320  1
  O  O478  1  0.97736862  0.91458209  0.56716396  1
  O  O479  1  0.97841148  0.91702525  0.81871280  1
  O  O480  1  0.07286753  0.31202976  0.07542572  1
  O  O481  1  0.07182602  0.31348653  0.32222660  1
  O  O482  1  0.07432426  0.31276718  0.57502371  1
  O  O483  1  0.07243647  0.31237984  0.82564754  1
  O  O484  1  0.07351809  0.64484468  0.07635045  1
  O  O485  1  0.07253561  0.64560351  0.32522488  1
  O  O486  1  0.07321502  0.64497238  0.57418561  1
  O  O487  1  0.07357572  0.64653371  0.82662165  1
  O  O488  1  0.07304219  0.97885998  0.07591777  1
  O  O489  1  0.07303098  0.97804258  0.32502213  1
  O  O490  1  0.07256217  0.97874791  0.57387841  1
  O  O491  1  0.07397586  0.97999623  0.82616503  1
  O  O492  1  0.57404161  0.31420893  0.07621054  1
  O  O493  1  0.57171776  0.31455361  0.32401373  1
  O  O494  1  0.57407107  0.31258247  0.57404939  1
  O  O495  1  0.57404948  0.31435020  0.82466771  1
  O  O496  1  0.57300446  0.64582905  0.07467371  1
  O  O497  1  0.57190243  0.64774552  0.32336592  1
  O  O498  1  0.57172580  0.64781813  0.57181357  1
  O  O499  1  0.57434898  0.64711688  0.82445963  1
  O  O500  1  0.57437317  0.98032504  0.07492557  1
  O  O501  1  0.57424766  0.98011363  0.32668163  1
  O  O502  1  0.57115298  0.98057132  0.57336620  1
  O  O503  1  0.57248583  0.98059973  0.82217271  1
  O  O504  1  0.42746663  0.02099641  0.17644108  1
  O  O505  1  0.42865975  0.02013161  0.42654876  1
  O  O506  1  0.42674719  0.01877970  0.67482898  1
  O  O507  1  0.42623443  0.01971737  0.92531638  1
  O  O508  1  0.42920158  0.35331566  0.17721704  1
  O  O509  1  0.42729845  0.35463613  0.42344732  1
  O  O510  1  0.42646703  0.35362118  0.67342788  1
  O  O511  1  0.42701967  0.35469124  0.92604666  1
  O  O512  1  0.42701537  0.68499167  0.17631652  1
  O  O513  1  0.42866557  0.68623292  0.42689547  1
  O  O514  1  0.42771530  0.68772007  0.67388892  1
  O  O515  1  0.42592300  0.68763775  0.92352419  1
  O  O516  1  0.92598519  0.02060261  0.17464918  1
  O  O517  1  0.92538989  0.01986949  0.42403946  1
  O  O518  1  0.92687337  0.02026367  0.67606149  1
  O  O519  1  0.92635628  0.02116932  0.92516672  1
  O  O520  1  0.92876620  0.35280506  0.17678842  1
  O  O521  1  0.92751041  0.35368957  0.42451237  1
  O  O522  1  0.92542851  0.35317990  0.67467651  1
  O  O523  1  0.92632668  0.35392389  0.92640268  1
  O  O524  1  0.92651024  0.68704433  0.17530979  1
  O  O525  1  0.92633830  0.68690390  0.42494253  1
  O  O526  1  0.92607987  0.68570992  0.67495416  1
  O  O527  1  0.92639599  0.68745968  0.92653127  1
  O  O528  1  0.17767533  0.01987684  0.19865546  1
  O  O529  1  0.17685924  0.01819263  0.44856448  1
  O  O530  1  0.17667010  0.01782309  0.69944607  1
  O  O531  1  0.17586525  0.02000170  0.95147272  1
  O  O532  1  0.17769712  0.35317873  0.19835535  1
  O  O533  1  0.17673164  0.35154210  0.44817307  1
  O  O534  1  0.17609185  0.35212442  0.69998203  1
  O  O535  1  0.17750772  0.35110396  0.95030929  1
  O  O536  1  0.17589093  0.68666930  0.20052442  1
  O  O537  1  0.17725634  0.68479710  0.44864990  1
  O  O538  1  0.17669031  0.68457415  0.69970020  1
  O  O539  1  0.17705313  0.68715357  0.95069132  1
  O  O540  1  0.67642402  0.01991052  0.20011282  1
  O  O541  1  0.67597604  0.01950486  0.45034117  1
  O  O542  1  0.67675209  0.01836609  0.69904524  1
  O  O543  1  0.67617203  0.02184282  0.94945225  1
  O  O544  1  0.67803296  0.35445932  0.19844984  1
  O  O545  1  0.67708141  0.35429733  0.44825768  1
  O  O546  1  0.67707857  0.35484017  0.69969732  1
  O  O547  1  0.67688075  0.35573894  0.94985667  1
  O  O548  1  0.67706605  0.68470670  0.19915163  1
  O  O549  1  0.67732960  0.68633779  0.44868471  1
  O  O550  1  0.67671122  0.68630924  0.69803202  1
  O  O551  1  0.67795932  0.68623380  0.94699057  1
  O  O552  1  0.32348536  0.31330470  0.05219809  1
  O  O553  1  0.32285524  0.31492945  0.30028421  1
  O  O554  1  0.32412447  0.31309618  0.54930809  1
  O  O555  1  0.32353400  0.31398325  0.80113287  1
  O  O556  1  0.32344765  0.64577799  0.05043137  1
  O  O557  1  0.32281518  0.64801452  0.30076362  1
  O  O558  1  0.32299454  0.64784146  0.55089328  1
  O  O559  1  0.32411601  0.64664613  0.79990335  1
  O  O560  1  0.32398201  0.98110353  0.05070441  1
  O  O561  1  0.32380924  0.98206929  0.30172566  1
  O  O562  1  0.32243602  0.98115717  0.55145464  1
  O  O563  1  0.32280651  0.97848974  0.80045363  1
  O  O564  1  0.82342514  0.31611257  0.05044108  1
  O  O565  1  0.82284388  0.31588112  0.30080028  1
  O  O566  1  0.82366198  0.31463168  0.54979187  1
  O  O567  1  0.82347428  0.31279647  0.80004468  1
  O  O568  1  0.82225301  0.64761789  0.05163917  1
  O  O569  1  0.82290455  0.64670288  0.30175593  1
  O  O570  1  0.82201495  0.64719040  0.55102206  1
  O  O571  1  0.82149620  0.64749403  0.80164774  1
  O  O572  1  0.82332514  0.98009894  0.04891259  1
  O  O573  1  0.82306921  0.97846304  0.30029456  1
  O  O574  1  0.82220422  0.97957316  0.55133382  1
  O  O575  1  0.82313083  0.97833894  0.79959968  1
  O  O576  1  0.42702645  0.14821849  0.17664408  1
  O  O577  1  0.42751782  0.14759128  0.42670144  1
  O  O578  1  0.42697662  0.14579137  0.67482804  1
  O  O579  1  0.42629367  0.14666044  0.92479378  1
  O  O580  1  0.42767254  0.48055791  0.17698878  1
  O  O581  1  0.42720123  0.48162465  0.42460816  1
  O  O582  1  0.42622995  0.48056673  0.67366733  1
  O  O583  1  0.42719349  0.48185667  0.92660801  1
  O  O584  1  0.42705011  0.81220986  0.17590735  1
  O  O585  1  0.42742433  0.81351606  0.42584262  1
  O  O586  1  0.42695564  0.81467119  0.67461327  1
  O  O587  1  0.42695498  0.81439661  0.92483708  1
  O  O588  1  0.92647681  0.14774729  0.17604404  1
  O  O589  1  0.92604036  0.14675937  0.42426104  1
  O  O590  1  0.92637505  0.14753602  0.67577731  1
  O  O591  1  0.92662070  0.14823792  0.92662572  1
  O  O592  1  0.92763146  0.48014166  0.17701881  1
  O  O593  1  0.92671402  0.48069103  0.42538772  1
  O  O594  1  0.92572470  0.47999572  0.67528944  1
  O  O595  1  0.92655787  0.48117985  0.92692805  1
  O  O596  1  0.92671108  0.81418346  0.17636678  1
  O  O597  1  0.92655468  0.81400420  0.42660416  1
  O  O598  1  0.92573698  0.81262352  0.67517415  1
  O  O599  1  0.92706478  0.81472181  0.92627082  1
  O  O600  1  0.07259799  0.18503886  0.07495112  1
  O  O601  1  0.07258956  0.18591294  0.32286780  1
  O  O602  1  0.07389504  0.18597754  0.57441509  1
  O  O603  1  0.07311122  0.18518320  0.82438077  1
  O  O604  1  0.07290097  0.51773253  0.07485737  1
  O  O605  1  0.07324209  0.51860006  0.32397622  1
  O  O606  1  0.07284682  0.51784105  0.57411034  1
  O  O607  1  0.07377663  0.51964092  0.82604814  1
  O  O608  1  0.07299468  0.85166301  0.07461535  1
  O  O609  1  0.07259658  0.85100225  0.32415921  1
  O  O610  1  0.07259872  0.85142812  0.57420338  1
  O  O611  1  0.07361368  0.85310537  0.82553853  1
  O  O612  1  0.57409236  0.18748925  0.07575217  1
  O  O613  1  0.57303582  0.18707212  0.32371912  1
  O  O614  1  0.57343859  0.18538814  0.57385132  1
  O  O615  1  0.57427888  0.18728868  0.82498998  1
  O  O616  1  0.57301118  0.51883707  0.07441650  1
  O  O617  1  0.57290549  0.52059639  0.32337696  1
  O  O618  1  0.57275372  0.52035282  0.57175126  1
  O  O619  1  0.57386873  0.52032623  0.82385075  1
  O  O620  1  0.57448204  0.85324767  0.07504404  1
  O  O621  1  0.57411499  0.85331905  0.32617114  1
  O  O622  1  0.57242708  0.85341911  0.57343307  1
  O  O623  1  0.57210188  0.85321407  0.82173036  1
  O  O624  1  0.32178307  0.18604458  0.05225743  1
  O  O625  1  0.32313791  0.18792558  0.29954646  1
  O  O626  1  0.32430502  0.18626222  0.54889114  1
  O  O627  1  0.32341686  0.18667731  0.80100548  1
  O  O628  1  0.32307032  0.51846587  0.05156698  1
  O  O629  1  0.32343962  0.52095503  0.30077101  1
  O  O630  1  0.32252005  0.52061440  0.54911346  1
  O  O631  1  0.32439479  0.51981287  0.79936984  1
  O  O632  1  0.32353762  0.85404327  0.05137476  1
  O  O633  1  0.32394250  0.85499754  0.30066215  1
  O  O634  1  0.32275648  0.85403160  0.54940493  1
  O  O635  1  0.32249333  0.85135006  0.80067602  1
  O  O636  1  0.82329098  0.18905933  0.05078204  1
  O  O637  1  0.82239116  0.18870186  0.29938410  1
  O  O638  1  0.82400471  0.18774159  0.54864082  1
  O  O639  1  0.82245277  0.18545057  0.80100794  1
  O  O640  1  0.82186876  0.52056528  0.05238621  1
  O  O641  1  0.82137984  0.51969516  0.30227980  1
  O  O642  1  0.82145070  0.52009144  0.55091588  1
  O  O643  1  0.82250089  0.52045948  0.80140036  1
  O  O644  1  0.82382453  0.85319476  0.04930795  1
  O  O645  1  0.82277435  0.85122073  0.30112366  1
  O  O646  1  0.82124088  0.85215600  0.55182262  1
  O  O647  1  0.82259589  0.85142553  0.79979550  1
  O  O648  1  0.17897917  0.14731825  0.19886614  1
  O  O649  1  0.17633688  0.14509939  0.44956434  1
  O  O650  1  0.17697834  0.14515862  0.69955912  1
  O  O651  1  0.17639350  0.14667296  0.95138512  1
  O  O652  1  0.17901886  0.48045327  0.19849683  1
  O  O653  1  0.17666408  0.47875428  0.44880924  1
  O  O654  1  0.17573537  0.47899562  0.70078486  1
  O  O655  1  0.17739371  0.47812225  0.95057087  1
  O  O656  1  0.17630643  0.81351091  0.20171520  1
  O  O657  1  0.17679373  0.81193013  0.45034937  1
  O  O658  1  0.17607005  0.81159529  0.69931477  1
  O  O659  1  0.17709419  0.81455115  0.94959760  1
  O  O660  1  0.67591066  0.14709996  0.20058218  1
  O  O661  1  0.67619620  0.14644078  0.45098711  1
  O  O662  1  0.67675592  0.14555197  0.69916681  1
  O  O663  1  0.67730101  0.14918803  0.94897646  1
  O  O664  1  0.67920739  0.48158795  0.19864707  1
  O  O665  1  0.67794752  0.48152597  0.44711020  1
  O  O666  1  0.67621437  0.48191064  0.69854048  1
  O  O667  1  0.67747165  0.48261031  0.94990445  1
  O  O668  1  0.67676573  0.81155005  0.19984847  1
  O  O669  1  0.67862960  0.81356797  0.44869377  1
  O  O670  1  0.67814150  0.81333912  0.69703233  1
  O  O671  1  0.67720935  0.81356699  0.94744211  1
