# generated using pymatgen
data_Na2MnFe(PO4)2
_symmetry_space_group_name_H-M   'P 1'
_cell_length_a   22.34598720
_cell_length_b   20.09707242
_cell_length_c   19.44679316
_cell_angle_alpha   90.01387023
_cell_angle_beta   89.99949200
_cell_angle_gamma   89.98518800
_symmetry_Int_Tables_number   1
_chemical_formula_structural   Na2MnFe(PO4)2
_chemical_formula_sum   'Na96 Mn48 Fe48 P96 O384'
_cell_volume   8733.33884843
_cell_formula_units_Z   48
loop_
 _symmetry_equiv_pos_site_id
 _symmetry_equiv_pos_as_xyz
  1  'x, y, z'
loop_
 _atom_site_type_symbol
 _atom_site_label
 _atom_site_symmetry_multiplicity
 _atom_site_fract_x
 _atom_site_fract_y
 _atom_site_fract_z
 _atom_site_occupancy
  Na  Na0  1  0.14086236  0.24981675  0.24477583  1
  Na  Na1  1  0.14035887  0.24985369  0.49375315  1
  Na  Na2  1  0.14096239  0.25067749  0.74305407  1
  Na  Na3  1  0.14090049  0.24984766  0.99366511  1
  Na  Na4  1  0.13990573  0.58275697  0.24196964  1
  Na  Na5  1  0.14081788  0.58226539  0.49437544  1
  Na  Na6  1  0.14046261  0.58309038  0.74328668  1
  Na  Na7  1  0.14003873  0.58390531  0.99305483  1
  Na  Na8  1  0.14071152  0.91554805  0.24354553  1
  Na  Na9  1  0.14030607  0.91658875  0.49417903  1
  Na  Na10  1  0.13987185  0.91655695  0.74282222  1
  Na  Na11  1  0.14097482  0.91591821  0.99278269  1
  Na  Na12  1  0.64020961  0.25059656  0.24571656  1
  Na  Na13  1  0.64034369  0.24954590  0.49471132  1
  Na  Na14  1  0.64088164  0.24987705  0.74321422  1
  Na  Na15  1  0.64032580  0.25061698  0.99443313  1
  Na  Na16  1  0.63996918  0.58474065  0.24384749  1
  Na  Na17  1  0.64014766  0.58158148  0.49398243  1
  Na  Na18  1  0.63956478  0.58222754  0.74248828  1
  Na  Na19  1  0.64015978  0.58394991  0.99462037  1
  Na  Na20  1  0.64029560  0.91748716  0.24437134  1
  Na  Na21  1  0.63956014  0.91621306  0.49342395  1
  Na  Na22  1  0.63971759  0.91736315  0.74280543  1
  Na  Na23  1  0.64030149  0.91744478  0.99366153  1
  Na  Na24  1  0.36008290  0.08185774  0.00567277  1
  Na  Na25  1  0.35957376  0.08283450  0.25674732  1
  Na  Na26  1  0.35959916  0.08318032  0.50779877  1
  Na  Na27  1  0.35986350  0.08282370  0.75660364  1
  Na  Na28  1  0.35942576  0.41788123  0.00590396  1
  Na  Na29  1  0.35906583  0.41616624  0.25727897  1
  Na  Na30  1  0.35946328  0.41621183  0.50838064  1
  Na  Na31  1  0.35963542  0.41789309  0.75550837  1
  Na  Na32  1  0.35901899  0.74973647  0.00510208  1
  Na  Na33  1  0.35954767  0.74886365  0.25576265  1
  Na  Na34  1  0.35950596  0.74955770  0.50799024  1
  Na  Na35  1  0.35930167  0.74999323  0.75705182  1
  Na  Na36  1  0.85973833  0.08508954  0.00599414  1
  Na  Na37  1  0.85966685  0.08431270  0.25642128  1
  Na  Na38  1  0.86004527  0.08329938  0.50696053  1
  Na  Na39  1  0.86039975  0.08380630  0.75570213  1
  Na  Na40  1  0.85951038  0.41832414  0.00660587  1
  Na  Na41  1  0.85986987  0.41803723  0.25598042  1
  Na  Na42  1  0.85953510  0.41511279  0.50657415  1
  Na  Na43  1  0.85993286  0.41636827  0.75549205  1
  Na  Na44  1  0.85972900  0.75004800  0.00649994  1
  Na  Na45  1  0.85991185  0.75104417  0.25560154  1
  Na  Na46  1  0.85954049  0.74855567  0.50458129  1
  Na  Na47  1  0.85956892  0.75010479  0.75578843  1
  Na  Na48  1  0.11014436  0.08259882  0.11901602  1
  Na  Na49  1  0.10996337  0.08287749  0.36959723  1
  Na  Na50  1  0.10973471  0.08403892  0.61785609  1
  Na  Na51  1  0.10963966  0.08257952  0.86851977  1
  Na  Na52  1  0.10980942  0.41803494  0.11824668  1
  Na  Na53  1  0.11024986  0.41611987  0.36898031  1
  Na  Na54  1  0.11026994  0.41636554  0.61784581  1
  Na  Na55  1  0.11006972  0.41759300  0.86884263  1
  Na  Na56  1  0.10983370  0.74870669  0.11765257  1
  Na  Na57  1  0.10974220  0.74871663  0.36804182  1
  Na  Na58  1  0.11013482  0.75113486  0.61882719  1
  Na  Na59  1  0.10977561  0.74916226  0.86739181  1
  Na  Na60  1  0.60939271  0.08290525  0.11948688  1
  Na  Na61  1  0.60945073  0.08295154  0.37031769  1
  Na  Na62  1  0.60958129  0.08339805  0.61900405  1
  Na  Na63  1  0.60956150  0.08241413  0.86819695  1
  Na  Na64  1  0.60940840  0.41644536  0.11984880  1
  Na  Na65  1  0.60952477  0.41716884  0.37010347  1
  Na  Na66  1  0.60993864  0.41694912  0.61779735  1
  Na  Na67  1  0.60929232  0.41637257  0.86803539  1
  Na  Na68  1  0.61002250  0.75048235  0.11871281  1
  Na  Na69  1  0.60908211  0.75113822  0.36829370  1
  Na  Na70  1  0.60862714  0.75019673  0.61858759  1
  Na  Na71  1  0.60901834  0.74971981  0.86817230  1
  Na  Na72  1  0.39043901  0.24882426  0.13227130  1
  Na  Na73  1  0.38969841  0.25024731  0.38364848  1
  Na  Na74  1  0.39014427  0.25045110  0.63193617  1
  Na  Na75  1  0.39094062  0.24859580  0.88019356  1
  Na  Na76  1  0.38920543  0.58341930  0.13157976  1
  Na  Na77  1  0.39027297  0.58412945  0.38181943  1
  Na  Na78  1  0.39019007  0.58391418  0.63315954  1
  Na  Na79  1  0.38923273  0.58309748  0.88063174  1
  Na  Na80  1  0.38995067  0.91659734  0.13037337  1
  Na  Na81  1  0.39057310  0.91677611  0.38128997  1
  Na  Na82  1  0.39055924  0.91643190  0.63219934  1
  Na  Na83  1  0.38968153  0.91625098  0.88034359  1
  Na  Na84  1  0.89065517  0.25122289  0.13074642  1
  Na  Na85  1  0.89077141  0.24973148  0.38254192  1
  Na  Na86  1  0.89013431  0.24990911  0.63167257  1
  Na  Na87  1  0.89052644  0.25061690  0.88109821  1
  Na  Na88  1  0.89071378  0.58467980  0.13172428  1
  Na  Na89  1  0.89026931  0.58305972  0.38013002  1
  Na  Na90  1  0.89028166  0.58342505  0.63081799  1
  Na  Na91  1  0.89055704  0.58298912  0.88079588  1
  Na  Na92  1  0.89048671  0.91598848  0.13136186  1
  Na  Na93  1  0.89084711  0.91692328  0.38061281  1
  Na  Na94  1  0.89092358  0.91759544  0.63059206  1
  Na  Na95  1  0.89089556  0.91675098  0.88080634  1
  Mn  Mn96  1  0.74961568  0.33302951  0.87493614  1
  Mn  Mn97  1  0.25082512  0.00004926  0.37546920  1
  Mn  Mn98  1  0.74946227  0.50003572  0.87515031  1
  Mn  Mn99  1  0.25088538  0.49904467  0.37537532  1
  Mn  Mn100  1  0.49938633  0.83368703  -0.00047588  1
  Mn  Mn101  1  0.74978917  0.16861916  0.12637031  1
  Mn  Mn102  1  0.74931055  0.50080845  0.12579042  1
  Mn  Mn103  1  0.49952523  0.33240184  -0.00022006  1
  Mn  Mn104  1  0.25079888  0.16621789  0.87469229  1
  Mn  Mn105  1  0.49935072  0.33342146  0.25112960  1
  Mn  Mn106  1  0.49903339  0.50081152  0.25051293  1
  Mn  Mn107  1  0.00051383  0.00029666  0.00032358  1
  Mn  Mn108  1  0.49957844  0.66634705  -0.00094617  1
  Mn  Mn109  1  0.75077481  0.00141977  0.87463253  1
  Mn  Mn110  1  0.00033602  0.66674633  0.49951048  1
  Mn  Mn111  1  0.24991240  0.83234356  0.37481231  1
  Mn  Mn112  1  0.75037779  0.00031366  0.62486571  1
  Mn  Mn113  1  0.75047292  0.16702257  0.37511961  1
  Mn  Mn114  1  0.25088793  0.33432816  0.87428121  1
  Mn  Mn115  1  0.00010964  0.16651745  0.25060659  1
  Mn  Mn116  1  0.00101414  0.16678072  0.74958927  1
  Mn  Mn117  1  0.50010976  0.33336398  0.75014718  1
  Mn  Mn118  1  0.00056269  0.83251440  -0.00008562  1
  Mn  Mn119  1  0.00079164  0.33378395  0.24988422  1
  Mn  Mn120  1  0.49938963  0.16629275  0.50079514  1
  Mn  Mn121  1  0.74988921  0.49976366  0.37448550  1
  Mn  Mn122  1  0.74956612  0.66674757  0.87470995  1
  Mn  Mn123  1  0.49971514  0.66736712  0.50065774  1
  Mn  Mn124  1  0.25054296  0.16559945  0.12443186  1
  Mn  Mn125  1  -0.00036219  0.83407485  0.49919759  1
  Mn  Mn126  1  0.24980938  0.66551650  0.37569753  1
  Mn  Mn127  1  0.75006088  0.83329252  0.37464803  1
  Mn  Mn128  1  0.24988304  -0.00009179  0.62522422  1
  Mn  Mn129  1  0.25006098  0.83270441  0.12414593  1
  Mn  Mn130  1  0.50039355  0.16480037  0.00082574  1
  Mn  Mn131  1  0.49997452  0.50003489  0.00003801  1
  Mn  Mn132  1  0.25077776  0.33375470  0.12484365  1
  Mn  Mn133  1  0.50000519  0.16543476  0.25152210  1
  Mn  Mn134  1  0.75002746  0.83263610  0.62392237  1
  Mn  Mn135  1  -0.00024466  -0.00073340  0.24955114  1
  Mn  Mn136  1  0.74933296  0.66515186  0.62494205  1
  Mn  Mn137  1  0.00104818  0.33457090  0.75090532  1
  Mn  Mn138  1  0.00042041  0.33378380  0.00002411  1
  Mn  Mn139  1  0.50003527  0.83401545  0.24974816  1
  Mn  Mn140  1  0.00063953  0.49970001  0.49965587  1
  Mn  Mn141  1  0.74929363  0.83384091  0.87505211  1
  Mn  Mn142  1  0.00010078  0.66674557  0.74956503  1
  Mn  Mn143  1  0.74956545  0.00064068  0.12474472  1
  Fe  Fe144  1  0.25016492  0.16651893  0.37562757  1
  Fe  Fe145  1  0.00076602  -0.00006931  0.50001450  1
  Fe  Fe146  1  0.75024992  0.00019336  0.37504331  1
  Fe  Fe147  1  0.24950437  0.66642884  0.12377069  1
  Fe  Fe148  1  0.50004244  -0.00094834  -0.00094321  1
  Fe  Fe149  1  0.75091006  0.49888157  0.62405264  1
  Fe  Fe150  1  -0.00044516  0.66652528  -0.00050236  1
  Fe  Fe151  1  -0.00009071  0.50017970  0.24936104  1
  Fe  Fe152  1  -0.00012539  0.00027860  0.74965748  1
  Fe  Fe153  1  0.24935040  0.50074425  0.87478864  1
  Fe  Fe154  1  0.24917520  -0.00018860  0.87441071  1
  Fe  Fe155  1  0.49965586  0.83352088  0.74976779  1
  Fe  Fe156  1  -0.00028128  0.16650889  0.50061750  1
  Fe  Fe157  1  0.50007159  0.33396186  0.50134160  1
  Fe  Fe158  1  0.75011139  0.33250909  0.62530549  1
  Fe  Fe159  1  0.24971319  0.66645799  0.62595292  1
  Fe  Fe160  1  -0.00004646  0.50062527  -0.00030512  1
  Fe  Fe161  1  0.49950907  0.49999208  0.74957828  1
  Fe  Fe162  1  0.00022972  0.50016132  0.74979924  1
  Fe  Fe163  1  0.74949323  0.66681398  0.37422839  1
  Fe  Fe164  1  0.25007201  0.33318596  0.62502214  1
  Fe  Fe165  1  0.24979264  0.50020688  0.12495127  1
  Fe  Fe166  1  0.50019261  0.16602489  0.75001657  1
  Fe  Fe167  1  0.49960396  -0.00021760  0.50079203  1
  Fe  Fe168  1  0.24940559  0.83325456  0.87471211  1
  Fe  Fe169  1  0.25001069  0.83300306  0.62550843  1
  Fe  Fe170  1  0.49992043  0.66742315  0.25057813  1
  Fe  Fe171  1  0.24988688  0.16693931  0.62530480  1
  Fe  Fe172  1  0.75060996  0.33327491  0.37585084  1
  Fe  Fe173  1  0.00022303  0.66629754  0.24920921  1
  Fe  Fe174  1  -0.00039246  0.33352398  0.49972719  1
  Fe  Fe175  1  0.75029954  0.83410560  0.12524565  1
  Fe  Fe176  1  -0.00030706  0.83351797  0.74936480  1
  Fe  Fe177  1  0.24970439  0.66656684  0.87451177  1
  Fe  Fe178  1  0.49930402  0.83382721  0.50021080  1
  Fe  Fe179  1  0.49969657  0.66665179  0.74937111  1
  Fe  Fe180  1  0.75041836  0.16757069  0.87525558  1
  Fe  Fe181  1  0.00032681  0.16673280  -0.00009531  1
  Fe  Fe182  1  0.25011933  -0.00052396  0.12499149  1
  Fe  Fe183  1  0.75008896  0.33422374  0.12520391  1
  Fe  Fe184  1  0.75002067  0.16650733  0.62481482  1
  Fe  Fe185  1  0.49986159  -0.00063065  0.74974979  1
  Fe  Fe186  1  0.25001311  0.33263868  0.37612830  1
  Fe  Fe187  1  0.00105764  0.83271018  0.24991626  1
  Fe  Fe188  1  0.49979336  0.50096412  0.50051684  1
  Fe  Fe189  1  0.49978957  -0.00032504  0.25058417  1
  Fe  Fe190  1  0.74999437  0.66778664  0.12477893  1
  Fe  Fe191  1  0.24996733  0.49991788  0.62539565  1
  P  P192  1  0.04289993  0.24898850  0.10237140  1
  P  P193  1  0.04253058  0.25005456  0.35437287  1
  P  P194  1  0.04116628  0.25065796  0.60145987  1
  P  P195  1  0.04348498  0.24996582  0.85356502  1
  P  P196  1  0.04104095  0.58382000  0.10169920  1
  P  P197  1  0.04184315  0.58285048  0.35081837  1
  P  P198  1  0.04290132  0.58333561  0.60328556  1
  P  P199  1  0.04207209  0.58203934  0.85269549  1
  P  P200  1  0.04337644  0.91584313  0.10327894  1
  P  P201  1  0.04275913  0.91561344  0.35249190  1
  P  P202  1  0.04218166  0.91797169  0.60305684  1
  P  P203  1  0.04138784  0.91637441  0.85105646  1
  P  P204  1  0.54272267  0.24936834  0.10382271  1
  P  P205  1  0.54195548  0.25025356  0.35492626  1
  P  P206  1  0.54164018  0.25074243  0.60331503  1
  P  P207  1  0.54253049  0.24800485  0.85226627  1
  P  P208  1  0.54230263  0.58392843  0.10374234  1
  P  P209  1  0.54181780  0.58506794  0.35324584  1
  P  P210  1  0.54168833  0.58267048  0.60337268  1
  P  P211  1  0.54095876  0.58309382  0.85089696  1
  P  P212  1  0.54203187  0.91790245  0.10250875  1
  P  P213  1  0.54217716  0.91804331  0.35355512  1
  P  P214  1  0.54100473  0.91655192  0.60244055  1
  P  P215  1  0.54154504  0.91645760  0.85139435  1
  P  P216  1  0.45759744  0.08119677  0.14779274  1
  P  P217  1  0.45733139  0.08145287  0.39824199  1
  P  P218  1  0.45860757  0.08262894  0.64834647  1
  P  P219  1  0.45812379  0.08127051  0.89644277  1
  P  P220  1  0.45646061  0.41651173  0.14736476  1
  P  P221  1  0.45821299  0.41738392  0.39968417  1
  P  P222  1  0.45820604  0.41800419  0.64687428  1
  P  P223  1  0.45715262  0.41671944  0.89622658  1
  P  P224  1  0.45764163  0.74913513  0.14756860  1
  P  P225  1  0.45741859  0.75155271  0.39775479  1
  P  P226  1  0.45806001  0.75065213  0.64831663  1
  P  P227  1  0.45704012  0.75016786  0.89537028  1
  P  P228  1  0.95716989  0.08372438  0.14652614  1
  P  P229  1  0.95875697  0.08291471  0.39883906  1
  P  P230  1  0.95848393  0.08247872  0.64667672  1
  P  P231  1  0.95817737  0.08435394  0.89714117  1
  P  P232  1  0.95822479  0.41845576  0.14680843  1
  P  P233  1  0.95787235  0.41594888  0.39700765  1
  P  P234  1  0.95841077  0.41757246  0.64714941  1
  P  P235  1  0.95793326  0.41842052  0.89743756  1
  P  P236  1  0.95911978  0.74989451  0.14791742  1
  P  P237  1  0.95775998  0.74971775  0.39535877  1
  P  P238  1  0.95748831  0.75154888  0.64711001  1
  P  P239  1  0.95791375  0.74880996  0.89692963  1
  P  P240  1  0.20827378  0.08217138  0.22792771  1
  P  P241  1  0.20839263  0.08482663  0.47819333  1
  P  P242  1  0.20780165  0.08425701  0.72753412  1
  P  P243  1  0.20798623  0.08164608  0.97746366  1
  P  P244  1  0.20792562  0.41730787  0.22767539  1
  P  P245  1  0.20841487  0.41501299  0.47866224  1
  P  P246  1  0.20873471  0.41686584  0.72667573  1
  P  P247  1  0.20807375  0.41862943  0.97744249  1
  P  P248  1  0.20763512  0.74811111  0.22657336  1
  P  P249  1  0.20729232  0.74942137  0.47931068  1
  P  P250  1  0.20863708  0.74986972  0.72745868  1
  P  P251  1  0.20844948  0.74941813  0.97609908  1
  P  P252  1  0.70721345  0.08377944  0.22900303  1
  P  P253  1  0.70809310  0.08246640  0.47784581  1
  P  P254  1  0.70811801  0.08525259  0.72776260  1
  P  P255  1  0.70771116  0.08549119  0.97744242  1
  P  P256  1  0.70770630  0.41540556  0.22832681  1
  P  P257  1  0.70829848  0.41506095  0.47832413  1
  P  P258  1  0.70863248  0.41642619  0.72603209  1
  P  P259  1  0.70667982  0.41676063  0.97855711  1
  P  P260  1  0.70861899  0.75078150  0.22682302  1
  P  P261  1  0.70722391  0.74810925  0.47687268  1
  P  P262  1  0.70650732  0.74977870  0.72763449  1
  P  P263  1  0.70704339  0.75036451  0.97897634  1
  P  P264  1  0.29351099  0.24992185  0.02175405  1
  P  P265  1  0.29170524  0.24986700  0.27413796  1
  P  P266  1  0.29133487  0.24971016  0.52323577  1
  P  P267  1  0.29290643  0.25021158  0.77075210  1
  P  P268  1  0.29100304  0.58332322  0.02230766  1
  P  P269  1  0.29244025  0.58281551  0.27130889  1
  P  P270  1  0.29158456  0.58318758  0.52448256  1
  P  P271  1  0.29065135  0.58341887  0.77254857  1
  P  P272  1  0.29162893  0.91763956  0.02136668  1
  P  P273  1  0.29285410  0.91624531  0.27151309  1
  P  P274  1  0.29222926  0.91522787  0.52320836  1
  P  P275  1  0.29048988  0.91631019  0.77291252  1
  P  P276  1  0.79238307  0.25188289  0.02264176  1
  P  P277  1  0.79294904  0.25239141  0.27279624  1
  P  P278  1  0.79151300  0.24967916  0.52333177  1
  P  P279  1  0.79251954  0.24881338  0.77169213  1
  P  P280  1  0.79207586  0.58485844  0.02302757  1
  P  P281  1  0.79172118  0.58540993  0.27178886  1
  P  P282  1  0.79237423  0.58156778  0.52166176  1
  P  P283  1  0.79257159  0.58246295  0.77122192  1
  P  P284  1  0.79258901  0.91618709  0.02255888  1
  P  P285  1  0.79233826  0.91801531  0.27210266  1
  P  P286  1  0.79275648  0.91667393  0.52094592  1
  P  P287  1  0.79290734  0.91705037  0.77155131  1
  O  O288  1  0.03760579  0.24949146  0.18237057  1
  O  O289  1  0.03681129  0.25025973  0.43426854  1
  O  O290  1  0.03697416  0.25063475  0.68152031  1
  O  O291  1  0.03824847  0.24950365  0.93348601  1
  O  O292  1  0.03604008  0.58368717  0.18163317  1
  O  O293  1  0.03724178  0.58319177  0.43084174  1
  O  O294  1  0.03767328  0.58293858  0.68320966  1
  O  O295  1  0.03652673  0.58220503  0.93257474  1
  O  O296  1  0.03826787  0.91525771  0.18322408  1
  O  O297  1  0.03735994  0.91652807  0.43243960  1
  O  O298  1  0.03652058  0.91779818  0.68292602  1
  O  O299  1  0.03667504  0.91632299  0.93107376  1
  O  O300  1  0.53756926  0.24942620  0.18382999  1
  O  O301  1  0.53652768  0.25085809  0.43487478  1
  O  O302  1  0.53649540  0.24997266  0.68325695  1
  O  O303  1  0.53741286  0.24803867  0.93225361  1
  O  O304  1  0.53719193  0.58467480  0.18371961  1
  O  O305  1  0.53657658  0.58458642  0.43322476  1
  O  O306  1  0.53640922  0.58260992  0.68325925  1
  O  O307  1  0.53630120  0.58327705  0.93092928  1
  O  O308  1  0.53694799  0.91804963  0.18248597  1
  O  O309  1  0.53653383  0.91750320  0.43340974  1
  O  O310  1  0.53549014  0.91632520  0.68233970  1
  O  O311  1  0.53646165  0.91693180  0.93137130  1
  O  O312  1  0.46285290  0.08122116  0.06779841  1
  O  O313  1  0.46266588  0.08138562  0.31830762  1
  O  O314  1  0.46327633  0.08248634  0.56833177  1
  O  O315  1  0.46365905  0.08201167  0.81654721  1
  O  O316  1  0.46164818  0.41629666  0.06737656  1
  O  O317  1  0.46271010  0.41731054  0.31962889  1
  O  O318  1  0.46382613  0.41784034  0.56701639  1
  O  O319  1  0.46248748  0.41717560  0.81623134  1
  O  O320  1  0.46246592  0.74933573  0.06755409  1
  O  O321  1  0.46282938  0.75098654  0.31782252  1
  O  O322  1  0.46280204  0.75081607  0.56832380  1
  O  O323  1  0.46234126  0.75035865  0.81546942  1
  O  O324  1  0.96243997  0.08431371  0.06657543  1
  O  O325  1  0.96309776  0.08313085  0.31881685  1
  O  O326  1  0.96376887  0.08250404  0.56678668  1
  O  O327  1  0.96383124  0.08364220  0.81719477  1
  O  O328  1  0.96360330  0.41859675  0.06687663  1
  O  O329  1  0.96295442  0.41648258  0.31705406  1
  O  O330  1  0.96366675  0.41641460  0.56719618  1
  O  O331  1  0.96321674  0.41854733  0.81746405  1
  O  O332  1  0.96372306  0.74927655  0.06790038  1
  O  O333  1  0.96350609  0.74954057  0.31547810  1
  O  O334  1  0.96249291  0.75129403  0.56713711  1
  O  O335  1  0.96303100  0.74962663  0.81700768  1
  O  O336  1  0.21328224  0.08124202  0.05744112  1
  O  O337  1  0.21364080  0.08301348  0.30789145  1
  O  O338  1  0.21348056  0.08514163  0.55815125  1
  O  O339  1  0.21302085  0.08344361  0.80747570  1
  O  O340  1  0.21349039  0.41868084  0.05737120  1
  O  O341  1  0.21309977  0.41665279  0.30763206  1
  O  O342  1  0.21378894  0.41542637  0.55853542  1
  O  O343  1  0.21347979  0.41772963  0.80664171  1
  O  O344  1  0.21328532  0.74914899  0.05607050  1
  O  O345  1  0.21246043  0.74822949  0.30655411  1
  O  O346  1  0.21257864  0.74954437  0.55925261  1
  O  O347  1  0.21361475  0.75016988  0.80735998  1
  O  O348  1  0.71262212  0.08512808  0.05743815  1
  O  O349  1  0.71281597  0.08306865  0.30892301  1
  O  O350  1  0.71343863  0.08317431  0.55781023  1
  O  O351  1  0.71344351  0.08561475  0.80770320  1
  O  O352  1  0.71176766  0.41672207  0.05851855  1
  O  O353  1  0.71336371  0.41532786  0.30824474  1
  O  O354  1  0.71407881  0.41557326  0.55817225  1
  O  O355  1  0.71289021  0.41633215  0.80607881  1
  O  O356  1  0.71262919  0.75059668  0.05892785  1
  O  O357  1  0.71366074  0.75007587  0.30680335  1
  O  O358  1  0.71228111  0.74824914  0.55682498  1
  O  O359  1  0.71130818  0.74998944  0.80764567  1
  O  O360  1  0.28715043  0.24980016  0.19411942  1
  O  O361  1  0.28616405  0.24969896  0.44328898  1
  O  O362  1  0.28724654  0.25004402  0.69083879  1
  O  O363  1  0.28854184  0.24992156  0.94177795  1
  O  O364  1  0.28722515  0.58283818  0.19140886  1
  O  O365  1  0.28708925  0.58265900  0.44445056  1
  O  O366  1  0.28555749  0.58380796  0.69267540  1
  O  O367  1  0.28558710  0.58329317  0.94241295  1
  O  O368  1  0.28757244  0.91661854  0.19154926  1
  O  O369  1  0.28748538  0.91544782  0.44323258  1
  O  O370  1  0.28570003  0.91566000  0.69293342  1
  O  O371  1  0.28581056  0.91768050  0.94151554  1
  O  O372  1  0.78764257  0.25251628  0.19285599  1
  O  O373  1  0.78689132  0.25036816  0.44334569  1
  O  O374  1  0.78711452  0.24870761  0.69178933  1
  O  O375  1  0.78712720  0.25079984  0.94267081  1
  O  O376  1  0.78620107  0.58572487  0.19188876  1
  O  O377  1  0.78698616  0.58228185  0.44174439  1
  O  O378  1  0.78770834  0.58159115  0.69121208  1
  O  O379  1  0.78713042  0.58429697  0.94303031  1
  O  O380  1  0.78684770  0.91738733  0.19216296  1
  O  O381  1  0.78752264  0.91727364  0.44098252  1
  O  O382  1  0.78789206  0.91691816  0.69155327  1
  O  O383  1  0.78742648  0.91656736  0.94256827  1
  O  O384  1  0.22909999  0.24987346  0.05678749  1
  O  O385  1  0.22747994  0.25030291  0.30988301  1
  O  O386  1  0.22726487  0.24975844  0.55958981  1
  O  O387  1  0.22882754  0.25019336  0.80675504  1
  O  O388  1  0.22702207  0.58340446  0.05900531  1
  O  O389  1  0.22819162  0.58220939  0.30698801  1
  O  O390  1  0.22723992  0.58416709  0.55972331  1
  O  O391  1  0.22665730  0.58313036  0.80893796  1
  O  O392  1  0.22770097  0.91763843  0.05804725  1
  O  O393  1  0.22858875  0.91643145  0.30704064  1
  O  O394  1  0.22782937  0.91556174  0.55836196  1
  O  O395  1  0.22635766  0.91686458  0.80881448  1
  O  O396  1  0.72809775  0.25269427  0.05842094  1
  O  O397  1  0.72866524  0.25199352  0.30851817  1
  O  O398  1  0.72733879  0.24906855  0.55913721  1
  O  O399  1  0.72831490  0.24835581  0.80777565  1
  O  O400  1  0.72771128  0.58509746  0.05832486  1
  O  O401  1  0.72756998  0.58482422  0.30779500  1
  O  O402  1  0.72814003  0.58064832  0.55751427  1
  O  O403  1  0.72803227  0.58307607  0.80609754  1
  O  O404  1  0.72823275  0.91551145  0.05803345  1
  O  O405  1  0.72818414  0.91854645  0.30818005  1
  O  O406  1  0.72838144  0.91666448  0.55620777  1
  O  O407  1  0.72843981  0.91782461  0.80647998  1
  O  O408  1  0.27245157  0.08139140  0.19192959  1
  O  O409  1  0.27265806  0.08466923  0.44258930  1
  O  O410  1  0.27208491  0.08459063  0.69191205  1
  O  O411  1  0.27219501  0.08109399  0.94157961  1
  O  O412  1  0.27218991  0.41817125  0.19195717  1
  O  O413  1  0.27255138  0.41448177  0.44251373  1
  O  O414  1  0.27287486  0.41597502  0.69086281  1
  O  O415  1  0.27221757  0.41909163  0.94142027  1
  O  O416  1  0.27195472  0.74781031  0.19107771  1
  O  O417  1  0.27161015  0.74916656  0.44376264  1
  O  O418  1  0.27269675  0.74912413  0.69117147  1
  O  O419  1  0.27250746  0.74965860  0.94013865  1
  O  O420  1  0.77142339  0.08410450  0.19339535  1
  O  O421  1  0.77230215  0.08201700  0.44194429  1
  O  O422  1  0.77235921  0.08518484  0.69198999  1
  O  O423  1  0.77217714  0.08586414  0.94212849  1
  O  O424  1  0.77183122  0.41582700  0.19212692  1
  O  O425  1  0.77230674  0.41524194  0.44181387  1
  O  O426  1  0.77297538  0.41665025  0.69071714  1
  O  O427  1  0.77110836  0.41670807  0.94340411  1
  O  O428  1  0.77272625  0.75125985  0.19066327  1
  O  O429  1  0.77158997  0.74815615  0.44146758  1
  O  O430  1  0.77104888  0.74925226  0.69287878  1
  O  O431  1  0.77127624  0.75022696  0.94322651  1
  O  O432  1  0.02152978  0.08306628  0.18179759  1
  O  O433  1  0.02301611  0.08283364  0.43436850  1
  O  O434  1  0.02260746  0.08201120  0.68277516  1
  O  O435  1  0.02234002  0.08500764  0.93326039  1
  O  O436  1  0.02243566  0.41873304  0.18269070  1
  O  O437  1  0.02220007  0.41528289  0.43256250  1
  O  O438  1  0.02270429  0.41865341  0.68292100  1
  O  O439  1  0.02219282  0.41830353  0.93307512  1
  O  O440  1  0.02332788  0.75026248  0.18370248  1
  O  O441  1  0.02187867  0.75025002  0.43137228  1
  O  O442  1  0.02183220  0.75156854  0.68258413  1
  O  O443  1  0.02222566  0.74804115  0.93258866  1
  O  O444  1  0.52186080  0.08119385  0.18362438  1
  O  O445  1  0.52156190  0.08172378  0.43404748  1
  O  O446  1  0.52279070  0.08218257  0.68402098  1
  O  O447  1  0.52221483  0.08073491  0.93279947  1
  O  O448  1  0.52084789  0.41681355  0.18254434  1
  O  O449  1  0.52254185  0.41770458  0.43509687  1
  O  O450  1  0.52226482  0.41829066  0.68316256  1
  O  O451  1  0.52148494  0.41642792  0.93157398  1
  O  O452  1  0.52197509  0.74915086  0.18305990  1
  O  O453  1  0.52162938  0.75188850  0.43363428  1
  O  O454  1  0.52223745  0.75122737  0.68408236  1
  O  O455  1  0.52121454  0.75031649  0.93120645  1
  O  O456  1  0.47833950  0.24886031  0.06859859  1
  O  O457  1  0.47772541  0.24951861  0.31935104  1
  O  O458  1  0.47745789  0.25101804  0.56757649  1
  O  O459  1  0.47820499  0.24853322  0.81688184  1
  O  O460  1  0.47792785  0.58341440  0.06846580  1
  O  O461  1  0.47755829  0.58553706  0.31752471  1
  O  O462  1  0.47749832  0.58262385  0.56739727  1
  O  O463  1  0.47668140  0.58252351  0.81538002  1
  O  O464  1  0.47772534  0.91827934  0.06676193  1
  O  O465  1  0.47811002  0.91806303  0.31713850  1
  O  O466  1  0.47698462  0.91657023  0.56593062  1
  O  O467  1  0.47731461  0.91614386  0.81545259  1
  O  O468  1  0.97862117  0.24880617  0.06668957  1
  O  O469  1  0.97840185  0.25045740  0.31840737  1
  O  O470  1  0.97685309  0.25083695  0.56612962  1
  O  O471  1  0.97920221  0.25032087  0.81818636  1
  O  O472  1  0.97697367  0.58417151  0.06540397  1
  O  O473  1  0.97756343  0.58261802  0.31521649  1
  O  O474  1  0.97861131  0.58319569  0.56788697  1
  O  O475  1  0.97800148  0.58198919  0.81634974  1
  O  O476  1  0.97899128  0.91613336  0.06810671  1
  O  O477  1  0.97854703  0.91453857  0.31659230  1
  O  O478  1  0.97814349  0.91870645  0.56664122  1
  O  O479  1  0.97718520  0.91620106  0.81532294  1
  O  O480  1  0.07393171  0.31272705  0.07474882  1
  O  O481  1  0.07413116  0.31307198  0.32569588  1
  O  O482  1  0.07218812  0.31409716  0.57324590  1
  O  O483  1  0.07452279  0.31370412  0.82575641  1
  O  O484  1  0.07206957  0.64727263  0.07306558  1
  O  O485  1  0.07241607  0.64653411  0.32229781  1
  O  O486  1  0.07358393  0.64714991  0.57541267  1
  O  O487  1  0.07331558  0.64560719  0.82479988  1
  O  O488  1  0.07427326  0.97951228  0.07533190  1
  O  O489  1  0.07337984  0.97938956  0.32437701  1
  O  O490  1  0.07359715  0.98109902  0.57434599  1
  O  O491  1  0.07190748  0.98029650  0.82312004  1
  O  O492  1  0.57333860  0.31297814  0.07544663  1
  O  O493  1  0.57295367  0.31359080  0.32639762  1
  O  O494  1  0.57223507  0.31456397  0.57522133  1
  O  O495  1  0.57398983  0.31150621  0.82469727  1
  O  O496  1  0.57332902  0.64699973  0.07462284  1
  O  O497  1  0.57250102  0.64866559  0.32474433  1
  O  O498  1  0.57283109  0.64630222  0.57550005  1
  O  O499  1  0.57104000  0.64720058  0.82255778  1
  O  O500  1  0.57331588  0.98083500  0.07349052  1
  O  O501  1  0.57305742  0.98150349  0.32513880  1
  O  O502  1  0.57203113  0.98024872  0.57444869  1
  O  O503  1  0.57240935  0.97993464  0.82280867  1
  O  O504  1  0.42662694  0.01796223  0.17642385  1
  O  O505  1  0.42653908  0.01816289  0.42709702  1
  O  O506  1  0.42710953  0.01942033  0.67662030  1
  O  O507  1  0.42709880  0.01773885  0.92463036  1
  O  O508  1  0.42556318  0.35302595  0.17570223  1
  O  O509  1  0.42794979  0.35346571  0.42809767  1
  O  O510  1  0.42707522  0.35442690  0.67481874  1
  O  O511  1  0.42618182  0.35296721  0.92391621  1
  O  O512  1  0.42711428  0.68562903  0.17628110  1
  O  O513  1  0.42616263  0.68816717  0.42595927  1
  O  O514  1  0.42823825  0.68624016  0.67644958  1
  O  O515  1  0.42596220  0.68663167  0.92350712  1
  O  O516  1  0.92603242  0.02008681  0.17434335  1
  O  O517  1  0.92800012  0.01921850  0.42678252  1
  O  O518  1  0.92727850  0.01935959  0.67568340  1
  O  O519  1  0.92720153  0.02070045  0.92507214  1
  O  O520  1  0.92751374  0.35453081  0.17441701  1
  O  O521  1  0.92698808  0.35252700  0.42570873  1
  O  O522  1  0.92773368  0.35403470  0.67580447  1
  O  O523  1  0.92691468  0.35459354  0.92499659  1
  O  O524  1  0.92850987  0.68626573  0.17664957  1
  O  O525  1  0.92693267  0.68613185  0.42389160  1
  O  O526  1  0.92638121  0.68797458  0.67491504  1
  O  O527  1  0.92700810  0.68525292  0.92519338  1
  O  O528  1  0.17726536  0.01862596  0.19983866  1
  O  O529  1  0.17744765  0.02093582  0.45072096  1
  O  O530  1  0.17667970  0.02085256  0.69922409  1
  O  O531  1  0.17645379  0.01876724  0.94847449  1
  O  O532  1  0.17716848  0.35361560  0.19941113  1
  O  O533  1  0.17725426  0.35176997  0.44999425  1
  O  O534  1  0.17739874  0.35333455  0.69888379  1
  O  O535  1  0.17750770  0.35458638  0.94970385  1
  O  O536  1  0.17674099  0.68480144  0.19781735  1
  O  O537  1  0.17600337  0.68606378  0.45085010  1
  O  O538  1  0.17705722  0.68657010  0.69938177  1
  O  O539  1  0.17748404  0.68599468  0.94755080  1
  O  O540  1  0.67589024  0.02075903  0.20017712  1
  O  O541  1  0.67719454  0.01889433  0.44973917  1
  O  O542  1  0.67713517  0.02133925  0.70032258  1
  O  O543  1  0.67709963  0.02162532  0.94942921  1
  O  O544  1  0.67688320  0.35209709  0.19963934  1
  O  O545  1  0.67752023  0.35137828  0.45021025  1
  O  O546  1  0.67837438  0.35233410  0.69782416  1
  O  O547  1  0.67549410  0.35361023  0.94979182  1
  O  O548  1  0.67785710  0.68725777  0.19819684  1
  O  O549  1  0.67661666  0.68450516  0.44847096  1
  O  O550  1  0.67531831  0.68637792  0.69961615  1
  O  O551  1  0.67575317  0.68700443  0.95060329  1
  O  O552  1  0.32441282  0.31344434  0.04990106  1
  O  O553  1  0.32273556  0.31336997  0.30239689  1
  O  O554  1  0.32230180  0.31328557  0.55165054  1
  O  O555  1  0.32411321  0.31371820  0.79876850  1
  O  O556  1  0.32189879  0.64712174  0.05042597  1
  O  O557  1  0.32320418  0.64635688  0.30001379  1
  O  O558  1  0.32308562  0.64640548  0.55253660  1
  O  O559  1  0.32126546  0.64707874  0.80140876  1
  O  O560  1  0.32267040  0.98079472  0.05038862  1
  O  O561  1  0.32430491  0.97924184  0.30025200  1
  O  O562  1  0.32339626  0.97880918  0.55102999  1
  O  O563  1  0.32155303  0.98007143  0.80050171  1
  O  O564  1  0.82329638  0.31557947  0.05051917  1
  O  O565  1  0.82377322  0.31563600  0.30165608  1
  O  O566  1  0.82190087  0.31330845  0.55240431  1
  O  O567  1  0.82320043  0.31279283  0.79954353  1
  O  O568  1  0.82281450  0.64848388  0.05127796  1
  O  O569  1  0.82237962  0.64881431  0.30060061  1
  O  O570  1  0.82320862  0.64519985  0.54989424  1
  O  O571  1  0.82358352  0.64616941  0.79899820  1
  O  O572  1  0.82327862  0.98009538  0.05018973  1
  O  O573  1  0.82332475  0.98152931  0.30031900  1
  O  O574  1  0.82414703  0.97965510  0.54974169  1
  O  O575  1  0.82433448  0.98035504  0.79957212  1
  O  O576  1  0.42675025  0.14505482  0.17578239  1
  O  O577  1  0.42616358  0.14518285  0.42586064  1
  O  O578  1  0.42849644  0.14682481  0.67653610  1
  O  O579  1  0.42700958  0.14471157  0.92495009  1
  O  O580  1  0.42540710  0.48000259  0.17541954  1
  O  O581  1  0.42717723  0.48106738  0.42760659  1
  O  O582  1  0.42697283  0.48130498  0.67548019  1
  O  O583  1  0.42596945  0.47996579  0.92478890  1
  O  O584  1  0.42655741  0.81286054  0.17519074  1
  O  O585  1  0.42668265  0.81516618  0.42615733  1
  O  O586  1  0.42633360  0.81360043  0.67674199  1
  O  O587  1  0.42579200  0.81338647  0.92414844  1
  O  O588  1  0.92614413  0.14695605  0.17536654  1
  O  O589  1  0.92825230  0.14674888  0.42740713  1
  O  O590  1  0.92755952  0.14627153  0.67461219  1
  O  O591  1  0.92722098  0.14793120  0.92526639  1
  O  O592  1  0.92700586  0.48163413  0.17554426  1
  O  O593  1  0.92693555  0.47956509  0.42513242  1
  O  O594  1  0.92726570  0.48111752  0.67498962  1
  O  O595  1  0.92691357  0.48162504  0.92627288  1
  O  O596  1  0.92830300  0.81362663  0.17598996  1
  O  O597  1  0.92602048  0.81284827  0.42352013  1
  O  O598  1  0.92687457  0.81516953  0.67553332  1
  O  O599  1  0.92700843  0.81231536  0.92542630  1
  O  O600  1  0.07364372  0.18538568  0.07421813  1
  O  O601  1  0.07349457  0.18638830  0.32626093  1
  O  O602  1  0.07139950  0.18654304  0.57329739  1
  O  O603  1  0.07477879  0.18692769  0.82470063  1
  O  O604  1  0.07180224  0.52013044  0.07321027  1
  O  O605  1  0.07266782  0.51906152  0.32299308  1
  O  O606  1  0.07434075  0.52025676  0.57467438  1
  O  O607  1  0.07297816  0.51866619  0.82384008  1
  O  O608  1  0.07456475  0.85271787  0.07436691  1
  O  O609  1  0.07401447  0.85214866  0.32452951  1
  O  O610  1  0.07300037  0.85420709  0.57499974  1
  O  O611  1  0.07223811  0.85268674  0.82284768  1
  O  O612  1  0.57402532  0.18594978  0.07588081  1
  O  O613  1  0.57329942  0.18662846  0.32738725  1
  O  O614  1  0.57298067  0.18740262  0.57515524  1
  O  O615  1  0.57274227  0.18429113  0.82345567  1
  O  O616  1  0.57340826  0.52018113  0.07602827  1
  O  O617  1  0.57290836  0.52144938  0.32537685  1
  O  O618  1  0.57267432  0.51942193  0.57429027  1
  O  O619  1  0.57239804  0.51969479  0.82306659  1
  O  O620  1  0.57243413  0.85376721  0.07476483  1
  O  O621  1  0.57347504  0.85463572  0.32509876  1
  O  O622  1  0.57195949  0.85303215  0.57384255  1
  O  O623  1  0.57243472  0.85276287  0.82335789  1
  O  O624  1  0.32445910  0.18636707  0.04991895  1
  O  O625  1  0.32202827  0.18590697  0.30248518  1
  O  O626  1  0.32239062  0.18617321  0.55164586  1
  O  O627  1  0.32431067  0.18693091  0.79908713  1
  O  O628  1  0.32199210  0.51986928  0.05088987  1
  O  O629  1  0.32409767  0.51979699  0.30005788  1
  O  O630  1  0.32142368  0.51899582  0.55298133  1
  O  O631  1  0.32185626  0.51994276  0.80072630  1
  O  O632  1  0.32292460  0.85383558  0.04882214  1
  O  O633  1  0.32352951  0.85233271  0.29931210  1
  O  O634  1  0.32262545  0.85163977  0.55200123  1
  O  O635  1  0.32104139  0.85269433  0.80175903  1
  O  O636  1  0.82333318  0.18847355  0.05121915  1
  O  O637  1  0.82402164  0.18855380  0.30046687  1
  O  O638  1  0.82259130  0.18595625  0.55098466  1
  O  O639  1  0.82386758  0.18586270  0.80078781  1
  O  O640  1  0.82305028  0.52131216  0.05116039  1
  O  O641  1  0.82303416  0.52166952  0.29906378  1
  O  O642  1  0.82350805  0.51809377  0.54981306  1
  O  O643  1  0.82346937  0.51928808  0.80034575  1
  O  O644  1  0.82365855  0.85283166  0.05096525  1
  O  O645  1  0.82338452  0.85439674  0.30000340  1
  O  O646  1  0.82350934  0.85268962  0.54846403  1
  O  O647  1  0.82341290  0.85335537  0.79980736  1
  O  O648  1  0.17737283  0.14581313  0.19968770  1
  O  O649  1  0.17751125  0.14805280  0.44918045  1
  O  O650  1  0.17702823  0.14792682  0.69933932  1
  O  O651  1  0.17754956  0.14585949  0.95007782  1
  O  O652  1  0.17682574  0.48066059  0.19915868  1
  O  O653  1  0.17749360  0.47869509  0.45044179  1
  O  O654  1  0.17846569  0.48065683  0.69770735  1
  O  O655  1  0.17669469  0.48170339  0.94877891  1
  O  O656  1  0.17692069  0.81192422  0.19873232  1
  O  O657  1  0.17633700  0.81280685  0.45052786  1
  O  O658  1  0.17844649  0.81380252  0.69857557  1
  O  O659  1  0.17769894  0.81327740  0.94801620  1
  O  O660  1  0.67615669  0.14763546  0.20168257  1
  O  O661  1  0.67698790  0.14604584  0.44989547  1
  O  O662  1  0.67706928  0.14827145  0.69854058  1
  O  O663  1  0.67693923  0.14895756  0.94906118  1
  O  O664  1  0.67643321  0.47926881  0.20116176  1
  O  O665  1  0.67679451  0.47835867  0.45003818  1
  O  O666  1  0.67768356  0.47980176  0.69754217  1
  O  O667  1  0.67578521  0.48040020  0.95028402  1
  O  O668  1  0.67778742  0.81474310  0.19927876  1
  O  O669  1  0.67618769  0.81178620  0.44913109  1
  O  O670  1  0.67597012  0.81342421  0.69919394  1
  O  O671  1  0.67581933  0.81375355  0.95056049  1
