# generated using pymatgen
data_Na2MnFe(PO4)2
_symmetry_space_group_name_H-M   'P 1'
_cell_length_a   22.34295946
_cell_length_b   20.09329442
_cell_length_c   19.45059407
_cell_angle_alpha   89.95948296
_cell_angle_beta   90.01731056
_cell_angle_gamma   89.99958868
_symmetry_Int_Tables_number   1
_chemical_formula_structural   Na2MnFe(PO4)2
_chemical_formula_sum   'Na96 Mn48 Fe48 P96 O384'
_cell_volume   8732.21836154
_cell_formula_units_Z   48
loop_
 _symmetry_equiv_pos_site_id
 _symmetry_equiv_pos_as_xyz
  1  'x, y, z'
loop_
 _atom_site_type_symbol
 _atom_site_label
 _atom_site_symmetry_multiplicity
 _atom_site_fract_x
 _atom_site_fract_y
 _atom_site_fract_z
 _atom_site_occupancy
  Na  Na0  1  0.14043504  0.25014330  0.24292774  1
  Na  Na1  1  0.14039189  0.25119660  0.49320982  1
  Na  Na2  1  0.13999057  0.25167513  0.74415565  1
  Na  Na3  1  0.14000266  0.24922821  0.99329107  1
  Na  Na4  1  0.14013678  0.58120559  0.24298043  1
  Na  Na5  1  0.14071900  0.58278161  0.49293718  1
  Na  Na6  1  0.14072284  0.58495305  0.74365540  1
  Na  Na7  1  0.14057668  0.58127606  0.99432188  1
  Na  Na8  1  0.14067347  0.91679570  0.24414480  1
  Na  Na9  1  0.14043947  0.91697814  0.49374858  1
  Na  Na10  1  0.14099169  0.91753775  0.74476187  1
  Na  Na11  1  0.14073607  0.91607072  0.99460121  1
  Na  Na12  1  0.63959100  0.24802591  0.24327683  1
  Na  Na13  1  0.64015579  0.24941210  0.49361666  1
  Na  Na14  1  0.64005341  0.25093667  0.74319797  1
  Na  Na15  1  0.63931038  0.24971664  0.99366041  1
  Na  Na16  1  0.64016209  0.58373371  0.24328701  1
  Na  Na17  1  0.64050766  0.58361250  0.49381538  1
  Na  Na18  1  0.64013101  0.58359853  0.74327600  1
  Na  Na19  1  0.64043127  0.58454845  0.99392648  1
  Na  Na20  1  0.63999271  0.91585910  0.24412855  1
  Na  Na21  1  0.63967797  0.91749671  0.49199826  1
  Na  Na22  1  0.64034441  0.91789923  0.74326189  1
  Na  Na23  1  0.64040032  0.91699801  0.99540362  1
  Na  Na24  1  0.35980846  0.08394853  0.00681635  1
  Na  Na25  1  0.35983415  0.08337912  0.25765361  1
  Na  Na26  1  0.35967638  0.08280293  0.50608501  1
  Na  Na27  1  0.36037879  0.08460043  0.75685956  1
  Na  Na28  1  0.35994108  0.41454808  0.00772685  1
  Na  Na29  1  0.35990929  0.41498165  0.25667232  1
  Na  Na30  1  0.35970745  0.41618173  0.50462774  1
  Na  Na31  1  0.35949831  0.41823490  0.75610123  1
  Na  Na32  1  0.35961478  0.74843016  0.00607925  1
  Na  Na33  1  0.35986292  0.74892387  0.25776585  1
  Na  Na34  1  0.36010456  0.74949542  0.50681066  1
  Na  Na35  1  0.35985948  0.75110478  0.75595536  1
  Na  Na36  1  0.85974462  0.08352948  0.00668793  1
  Na  Na37  1  0.85991374  0.08217098  0.25710585  1
  Na  Na38  1  0.85927128  0.08420954  0.50516808  1
  Na  Na39  1  0.85925581  0.08504184  0.75657908  1
  Na  Na40  1  0.85995033  0.41701382  0.00603284  1
  Na  Na41  1  0.85971045  0.41627787  0.25569551  1
  Na  Na42  1  0.85955241  0.41550567  0.50662252  1
  Na  Na43  1  0.85967828  0.41654015  0.75553355  1
  Na  Na44  1  0.85918466  0.75105817  0.00663646  1
  Na  Na45  1  0.85933888  0.75023029  0.25573907  1
  Na  Na46  1  0.85960031  0.75010516  0.50512328  1
  Na  Na47  1  0.85984763  0.74968993  0.75617427  1
  Na  Na48  1  0.10987845  0.08458296  0.11920558  1
  Na  Na49  1  0.10959147  0.08412075  0.36809823  1
  Na  Na50  1  0.10934139  0.08518091  0.61982557  1
  Na  Na51  1  0.10954503  0.08474877  0.86924287  1
  Na  Na52  1  0.10992892  0.41598774  0.11785604  1
  Na  Na53  1  0.10995540  0.41594220  0.36743907  1
  Na  Na54  1  0.11029654  0.41687501  0.61857954  1
  Na  Na55  1  0.11002210  0.41659832  0.86912818  1
  Na  Na56  1  0.10969869  0.74848249  0.11943075  1
  Na  Na57  1  0.10974026  0.74975922  0.36821333  1
  Na  Na58  1  0.10997338  0.75037109  0.61918877  1
  Na  Na59  1  0.10988534  0.74988633  0.86883524  1
  Na  Na60  1  0.60935036  0.08345247  0.12023931  1
  Na  Na61  1  0.60936043  0.08234281  0.36747586  1
  Na  Na62  1  0.60933877  0.08376766  0.61789035  1
  Na  Na63  1  0.60917185  0.08408807  0.86888271  1
  Na  Na64  1  0.60916870  0.41550345  0.11897111  1
  Na  Na65  1  0.60933154  0.41507390  0.36891748  1
  Na  Na66  1  0.60980326  0.41700331  0.61807002  1
  Na  Na67  1  0.60937027  0.41579017  0.86803701  1
  Na  Na68  1  0.61003997  0.75101242  0.11897264  1
  Na  Na69  1  0.60941981  0.75023881  0.36789059  1
  Na  Na70  1  0.60893968  0.75068467  0.61822124  1
  Na  Na71  1  0.60994135  0.75177063  0.86889090  1
  Na  Na72  1  0.39019534  0.24982632  0.13251989  1
  Na  Na73  1  0.38957667  0.24902246  0.38089312  1
  Na  Na74  1  0.39038602  0.24996085  0.63056332  1
  Na  Na75  1  0.39030207  0.25017955  0.88228763  1
  Na  Na76  1  0.39076163  0.58217795  0.13221910  1
  Na  Na77  1  0.39068660  0.58162133  0.38162748  1
  Na  Na78  1  0.39043909  0.58344959  0.63057488  1
  Na  Na79  1  0.39038532  0.58358923  0.88123496  1
  Na  Na80  1  0.39057754  0.91722549  0.13229540  1
  Na  Na81  1  0.39055152  0.91505639  0.38216508  1
  Na  Na82  1  0.39035183  0.91662134  0.63113620  1
  Na  Na83  1  0.39065833  0.91877185  0.88088516  1
  Na  Na84  1  0.89068040  0.25002657  0.13086413  1
  Na  Na85  1  0.89016839  0.24916567  0.38113368  1
  Na  Na86  1  0.88990704  0.25081216  0.63136488  1
  Na  Na87  1  0.89011691  0.25176384  0.88058198  1
  Na  Na88  1  0.89045279  0.58288884  0.13107942  1
  Na  Na89  1  0.89049529  0.58220090  0.38010531  1
  Na  Na90  1  0.89091204  0.58236979  0.63123579  1
  Na  Na91  1  0.89071832  0.58315224  0.88072136  1
  Na  Na92  1  0.89020912  0.91693345  0.13274148  1
  Na  Na93  1  0.88985872  0.91713951  0.38044020  1
  Na  Na94  1  0.89034567  0.91690909  0.63105763  1
  Na  Na95  1  0.89030570  0.91708431  0.88216477  1
  Mn  Mn96  1  0.74955020  -0.00024026  0.87524894  1
  Mn  Mn97  1  0.25085337  0.00012805  0.12567828  1
  Mn  Mn98  1  0.50024244  0.49940361  0.49987094  1
  Mn  Mn99  1  0.74966121  0.33267902  0.12532814  1
  Mn  Mn100  1  0.50000622  0.83395726  0.74924007  1
  Mn  Mn101  1  0.50041309  0.00171910  0.00086956  1
  Mn  Mn102  1  0.74959872  0.49970780  0.37488457  1
  Mn  Mn103  1  -0.00031420  0.66562094  -0.00013261  1
  Mn  Mn104  1  -0.00014396  0.00092982  0.50045587  1
  Mn  Mn105  1  0.25036133  0.83203360  0.12454066  1
  Mn  Mn106  1  0.25029982  0.16705674  0.87540839  1
  Mn  Mn107  1  0.25050451  0.49985481  0.87548207  1
  Mn  Mn108  1  0.75032972  0.16539732  0.12461879  1
  Mn  Mn109  1  0.00032371  0.66591673  0.49943127  1
  Mn  Mn110  1  0.74996067  0.83399603  0.62448288  1
  Mn  Mn111  1  -0.00004207  0.83324470  0.00074217  1
  Mn  Mn112  1  0.00090412  0.49965349  0.74974899  1
  Mn  Mn113  1  0.00004540  0.83332682  0.49980298  1
  Mn  Mn114  1  0.25026532  0.66724178  0.62433566  1
  Mn  Mn115  1  0.49913644  0.33256122  0.74996791  1
  Mn  Mn116  1  0.50001187  0.66707581  0.00070192  1
  Mn  Mn117  1  0.50067199  0.49918580  0.00057420  1
  Mn  Mn118  1  0.00054352  0.83303218  0.75060207  1
  Mn  Mn119  1  -0.00024619  0.33325071  0.24910126  1
  Mn  Mn120  1  0.74928789  0.16784903  0.87544329  1
  Mn  Mn121  1  0.00001625  0.00149261  0.75098041  1
  Mn  Mn122  1  0.75056662  0.00109749  0.62407992  1
  Mn  Mn123  1  0.00046240  0.00142629  0.00067776  1
  Mn  Mn124  1  0.74941575  0.66662190  0.62499414  1
  Mn  Mn125  1  0.50008190  0.66661392  0.25048157  1
  Mn  Mn126  1  0.25061174  0.33485143  0.62368347  1
  Mn  Mn127  1  0.74894271  0.50028728  0.12458959  1
  Mn  Mn128  1  0.24943057  0.00018253  0.62486681  1
  Mn  Mn129  1  0.25009700  -0.00029968  0.37549546  1
  Mn  Mn130  1  0.49962527  0.83447979  -0.00038551  1
  Mn  Mn131  1  0.24989861  0.66443199  0.12634465  1
  Mn  Mn132  1  0.00018768  0.83323102  0.25003385  1
  Mn  Mn133  1  0.49970844  0.50076303  0.74947903  1
  Mn  Mn134  1  0.75005115  0.66783844  0.87439159  1
  Mn  Mn135  1  0.49981393  0.16607986  0.49941344  1
  Mn  Mn136  1  0.74929033  0.33196186  0.37576545  1
  Mn  Mn137  1  -0.00042285  0.16784050  0.49974858  1
  Mn  Mn138  1  0.00071809  0.49863257  0.50029341  1
  Mn  Mn139  1  0.25027741  0.66567906  0.37532582  1
  Mn  Mn140  1  0.25059392  0.83336924  0.87572727  1
  Mn  Mn141  1  0.75070648  0.66728397  0.37465725  1
  Mn  Mn142  1  0.25020747  0.16766498  0.62559228  1
  Mn  Mn143  1  0.75013675  0.49981388  0.87462144  1
  Fe  Fe144  1  0.49956055  -0.00037207  0.25016963  1
  Fe  Fe145  1  0.24997350  0.83382096  0.62555411  1
  Fe  Fe146  1  0.74962856  -0.00012139  0.37467311  1
  Fe  Fe147  1  0.24980877  0.33348288  0.37418999  1
  Fe  Fe148  1  0.24997284  0.33220197  0.12582629  1
  Fe  Fe149  1  0.25000021  0.83281167  0.37535123  1
  Fe  Fe150  1  0.74965702  0.33401190  0.87425405  1
  Fe  Fe151  1  -0.00032294  0.66556091  0.24959383  1
  Fe  Fe152  1  0.24937620  0.16696178  0.37493382  1
  Fe  Fe153  1  0.50001090  0.66726399  0.74983005  1
  Fe  Fe154  1  0.50003230  0.83316098  0.50008041  1
  Fe  Fe155  1  -0.00010095  0.33367849  0.75059524  1
  Fe  Fe156  1  0.74980298  -0.00062053  0.12581547  1
  Fe  Fe157  1  -0.00045256  0.49914967  0.24948227  1
  Fe  Fe158  1  0.25084550  0.49809542  0.12456150  1
  Fe  Fe159  1  0.00025901  0.66640915  0.75020117  1
  Fe  Fe160  1  0.00037173  0.49976917  -0.00002383  1
  Fe  Fe161  1  0.50034556  0.49905278  0.25061429  1
  Fe  Fe162  1  0.50046794  0.66632811  0.49953959  1
  Fe  Fe163  1  0.49930365  0.16701025  0.00065736  1
  Fe  Fe164  1  0.24977256  0.16652689  0.12533134  1
  Fe  Fe165  1  0.49933241  0.83325827  0.25070309  1
  Fe  Fe166  1  0.75045786  0.49977602  0.62484323  1
  Fe  Fe167  1  0.74972031  0.33318332  0.62485809  1
  Fe  Fe168  1  0.75007233  0.16614295  0.37508919  1
  Fe  Fe169  1  0.49961405  -0.00028234  0.49947590  1
  Fe  Fe170  1  0.50031242  0.16665984  0.74990850  1
  Fe  Fe171  1  -0.00026725  0.16818094  0.74995390  1
  Fe  Fe172  1  0.75020303  0.83385917  0.12528786  1
  Fe  Fe173  1  0.49994006  0.33278619  0.00025368  1
  Fe  Fe174  1  0.75023723  0.66761142  0.12454699  1
  Fe  Fe175  1  -0.00067786  0.16743570  -0.00003179  1
  Fe  Fe176  1  0.24989415  0.50045804  0.62485649  1
  Fe  Fe177  1  0.50013059  0.00051349  0.74955770  1
  Fe  Fe178  1  0.25017171  0.66646612  0.87486812  1
  Fe  Fe179  1  0.00030338  0.33304826  0.49947833  1
  Fe  Fe180  1  0.00018202  0.16726425  0.24973074  1
  Fe  Fe181  1  0.50025319  0.33218065  0.24972183  1
  Fe  Fe182  1  0.24997943  0.49904099  0.37415855  1
  Fe  Fe183  1  0.74942093  0.16701167  0.62482678  1
  Fe  Fe184  1  0.25017259  0.33348047  0.87552730  1
  Fe  Fe185  1  0.25018310  0.00039675  0.87536261  1
  Fe  Fe186  1  0.00020768  0.33334439  -0.00035261  1
  Fe  Fe187  1  0.00049223  0.00067007  0.25015388  1
  Fe  Fe188  1  0.49933190  0.16639887  0.25038179  1
  Fe  Fe189  1  0.74953402  0.83346539  0.37416954  1
  Fe  Fe190  1  0.49989445  0.33243139  0.49931183  1
  Fe  Fe191  1  0.75004633  0.83419977  0.87565908  1
  P  P192  1  0.04121796  0.24990163  0.10148870  1
  P  P193  1  0.04227738  0.24958150  0.35205807  1
  P  P194  1  0.04232744  0.25188254  0.60302255  1
  P  P195  1  0.04131618  0.25067325  0.85242685  1
  P  P196  1  0.04219466  0.58152666  0.10315997  1
  P  P197  1  0.04152583  0.58211962  0.35099438  1
  P  P198  1  0.04344537  0.58316625  0.60325896  1
  P  P199  1  0.04271273  0.58388540  0.85266954  1
  P  P200  1  0.04276467  0.91742524  0.10412568  1
  P  P201  1  0.04232668  0.91797724  0.35237479  1
  P  P202  1  0.04288823  0.91715948  0.60347121  1
  P  P203  1  0.04307077  0.91741310  0.85376606  1
  P  P204  1  0.54090603  0.24973622  0.10260955  1
  P  P205  1  0.54122410  0.24947012  0.35173936  1
  P  P206  1  0.54178268  0.25040414  0.60219300  1
  P  P207  1  0.54186981  0.24855567  0.85313912  1
  P  P208  1  0.54283551  0.58277114  0.10413584  1
  P  P209  1  0.54225391  0.58177360  0.35278723  1
  P  P210  1  0.54223077  0.58483152  0.60248329  1
  P  P211  1  0.54229311  0.58478381  0.85239992  1
  P  P212  1  0.54203778  0.91724222  0.10433602  1
  P  P213  1  0.54082390  0.91642423  0.35226098  1
  P  P214  1  0.54129387  0.91726571  0.60124834  1
  P  P215  1  0.54231221  0.91877500  0.85198081  1
  P  P216  1  0.45816676  0.08368572  0.14880317  1
  P  P217  1  0.45775503  0.08143302  0.39656181  1
  P  P218  1  0.45859212  0.08326979  0.64784360  1
  P  P219  1  0.45769054  0.08538378  0.89737944  1
  P  P220  1  0.45892413  0.41557683  0.14856749  1
  P  P221  1  0.45835188  0.41447366  0.39644962  1
  P  P222  1  0.45723184  0.41644228  0.64629672  1
  P  P223  1  0.45783048  0.41534856  0.89801911  1
  P  P224  1  0.45740168  0.75121515  0.14823872  1
  P  P225  1  0.45892401  0.74973127  0.39824573  1
  P  P226  1  0.45795203  0.74886671  0.64645485  1
  P  P227  1  0.45732896  0.75035516  0.89636038  1
  P  P228  1  0.95864888  0.08425594  0.14838697  1
  P  P229  1  0.95752231  0.08375298  0.39591475  1
  P  P230  1  0.95721003  0.08564573  0.64802854  1
  P  P231  1  0.95760034  0.08587326  0.89746578  1
  P  P232  1  0.95772910  0.41760799  0.14630445  1
  P  P233  1  0.95760460  0.41516390  0.39702840  1
  P  P234  1  0.95826549  0.41488646  0.64729728  1
  P  P235  1  0.95900210  0.41681220  0.89807889  1
  P  P236  1  0.95794012  0.74842219  0.14774990  1
  P  P237  1  0.95753255  0.74926020  0.39587552  1
  P  P238  1  0.95789236  0.74861498  0.64765972  1
  P  P239  1  0.95716939  0.74963120  0.89682833  1
  P  P240  1  0.20845189  0.08489572  0.22826985  1
  P  P241  1  0.20752577  0.08466067  0.47735776  1
  P  P242  1  0.20752954  0.08385928  0.72891005  1
  P  P243  1  0.20787878  0.08238949  0.97812402  1
  P  P244  1  0.20868583  0.41593040  0.22682394  1
  P  P245  1  0.20844913  0.41696375  0.47602204  1
  P  P246  1  0.20810386  0.41831574  0.72751420  1
  P  P247  1  0.20837663  0.41467064  0.97844444  1
  P  P248  1  0.20744073  0.74940288  0.22900405  1
  P  P249  1  0.20808122  0.75103880  0.47775024  1
  P  P250  1  0.20817162  0.75145248  0.72786266  1
  P  P251  1  0.20776377  0.74766027  0.97768774  1
  P  P252  1  0.70825572  0.08129253  0.22853217  1
  P  P253  1  0.70796956  0.08368369  0.47638727  1
  P  P254  1  0.70757386  0.08491502  0.72712922  1
  P  P255  1  0.70699148  0.08290628  0.97868833  1
  P  P256  1  0.70661801  0.41611527  0.22823862  1
  P  P257  1  0.70728150  0.41625731  0.47919436  1
  P  P258  1  0.70831351  0.41666949  0.72640329  1
  P  P259  1  0.70727039  0.41567065  0.97703249  1
  P  P260  1  0.70858336  0.75064014  0.22665840  1
  P  P261  1  0.70744059  0.75147944  0.47680072  1
  P  P262  1  0.70684254  0.75094141  0.72819936  1
  P  P263  1  0.70797150  0.75201837  0.97832962  1
  P  P264  1  0.29123134  0.24979775  0.02379876  1
  P  P265  1  0.29072818  0.24985209  0.27276072  1
  P  P266  1  0.29268668  0.25006983  0.52060660  1
  P  P267  1  0.29252287  0.25227798  0.77287311  1
  P  P268  1  0.29283721  0.58109859  0.02282488  1
  P  P269  1  0.29252101  0.58065526  0.27232268  1
  P  P270  1  0.29212921  0.58153813  0.52186683  1
  P  P271  1  0.29236680  0.58478597  0.77225240  1
  P  P272  1  0.29327864  0.91668182  0.02182180  1
  P  P273  1  0.29245523  0.91519158  0.27308154  1
  P  P274  1  0.29202184  0.91514749  0.52242376  1
  P  P275  1  0.29252520  0.91823982  0.77264454  1
  P  P276  1  0.79260661  0.25029880  0.02147518  1
  P  P277  1  0.79205054  0.24801319  0.27274457  1
  P  P278  1  0.79116364  0.24935128  0.52313267  1
  P  P279  1  0.79146405  0.25199241  0.77164057  1
  P  P280  1  0.79201414  0.58500430  0.02237330  1
  P  P281  1  0.79232709  0.58366728  0.27100308  1
  P  P282  1  0.79247229  0.58235077  0.52252430  1
  P  P283  1  0.79270926  0.58306573  0.77117487  1
  P  P284  1  0.79186815  0.91692217  0.02373678  1
  P  P285  1  0.79110192  0.91643688  0.27263296  1
  P  P286  1  0.79255018  0.91726678  0.52038354  1
  P  P287  1  0.79250923  0.91603814  0.77270714  1
  O  O288  1  0.03636358  0.24980927  0.18142117  1
  O  O289  1  0.03715651  0.25044801  0.43196552  1
  O  O290  1  0.03699801  0.25174859  0.68289027  1
  O  O291  1  0.03608253  0.25041469  0.93229566  1
  O  O292  1  0.03656320  0.58180331  0.18300186  1
  O  O293  1  0.03698887  0.58197597  0.43102575  1
  O  O294  1  0.03845545  0.58362115  0.68321157  1
  O  O295  1  0.03742295  0.58301952  0.93257976  1
  O  O296  1  0.03745768  0.91780214  0.18408700  1
  O  O297  1  0.03726311  0.91768610  0.43236604  1
  O  O298  1  0.03785355  0.91710732  0.68344342  1
  O  O299  1  0.03799586  0.91734805  0.93376331  1
  O  O300  1  0.53568089  0.25003637  0.18249558  1
  O  O301  1  0.53660172  0.24944862  0.43168934  1
  O  O302  1  0.53657975  0.24962190  0.68209756  1
  O  O303  1  0.53665803  0.24880125  0.93304474  1
  O  O304  1  0.53756026  0.58214733  0.18408395  1
  O  O305  1  0.53707616  0.58229794  0.43273524  1
  O  O306  1  0.53674344  0.58524408  0.68240019  1
  O  O307  1  0.53723872  0.58404370  0.93241659  1
  O  O308  1  0.53637174  0.91683902  0.18418095  1
  O  O309  1  0.53569426  0.91645458  0.43216101  1
  O  O310  1  0.53656556  0.91736862  0.68119603  1
  O  O311  1  0.53724413  0.91872777  0.93191459  1
  O  O312  1  0.46307690  0.08465973  0.06886653  1
  O  O313  1  0.46298271  0.08158557  0.31670560  1
  O  O314  1  0.46374593  0.08266068  0.56788268  1
  O  O315  1  0.46289512  0.08527686  0.81754899  1
  O  O316  1  0.46373378  0.41536625  0.06857539  1
  O  O317  1  0.46414391  0.41490835  0.31662453  1
  O  O318  1  0.46263036  0.41601925  0.56639477  1
  O  O319  1  0.46261124  0.41579928  0.81805261  1
  O  O320  1  0.46228511  0.75104665  0.06825573  1
  O  O321  1  0.46364809  0.75055133  0.31825114  1
  O  O322  1  0.46372822  0.74873393  0.56659417  1
  O  O323  1  0.46264669  0.75002472  0.81639395  1
  O  O324  1  0.96341773  0.08466812  0.06838370  1
  O  O325  1  0.96297491  0.08368381  0.31602952  1
  O  O326  1  0.96230272  0.08534460  0.56804998  1
  O  O327  1  0.96281807  0.08606277  0.81755924  1
  O  O328  1  0.96306022  0.41762662  0.06647549  1
  O  O329  1  0.96257187  0.41589608  0.31705190  1
  O  O330  1  0.96342925  0.41464461  0.56735685  1
  O  O331  1  0.96409849  0.41616326  0.81814575  1
  O  O332  1  0.96274519  0.74870314  0.06777620  1
  O  O333  1  0.96298020  0.74871306  0.31595566  1
  O  O334  1  0.96296469  0.74899656  0.56763319  1
  O  O335  1  0.96247192  0.74938219  0.81688122  1
  O  O336  1  0.21328104  0.08298622  0.05807344  1
  O  O337  1  0.21368072  0.08544141  0.30820532  1
  O  O338  1  0.21247355  0.08440775  0.55734186  1
  O  O339  1  0.21293107  0.08343201  0.80884594  1
  O  O340  1  0.21363675  0.41450499  0.05829770  1
  O  O341  1  0.21358540  0.41628679  0.30672729  1
  O  O342  1  0.21323864  0.41745249  0.55595980  1
  O  O343  1  0.21334560  0.41761073  0.80739814  1
  O  O344  1  0.21288846  0.74751333  0.05766536  1
  O  O345  1  0.21278548  0.75004607  0.30897400  1
  O  O346  1  0.21344639  0.75124801  0.55768903  1
  O  O347  1  0.21357915  0.75050833  0.80776209  1
  O  O348  1  0.71226319  0.08220964  0.05863778  1
  O  O349  1  0.71368310  0.08158066  0.30841604  1
  O  O350  1  0.71305446  0.08429096  0.55635756  1
  O  O351  1  0.71246757  0.08447133  0.80707708  1
  O  O352  1  0.71213375  0.41598713  0.05701008  1
  O  O353  1  0.71162685  0.41594817  0.30821394  1
  O  O354  1  0.71279694  0.41628355  0.55909876  1
  O  O355  1  0.71332772  0.41618410  0.80641036  1
  O  O356  1  0.71364622  0.75163237  0.05821997  1
  O  O357  1  0.71365915  0.75094400  0.30661824  1
  O  O358  1  0.71235797  0.75103642  0.55675043  1
  O  O359  1  0.71191895  0.75142874  0.80818596  1
  O  O360  1  0.28576705  0.25004747  0.19283866  1
  O  O361  1  0.28730356  0.24938926  0.44072908  1
  O  O362  1  0.28762946  0.25221828  0.69289852  1
  O  O363  1  0.28669214  0.25004076  0.94382720  1
  O  O364  1  0.28738743  0.58035912  0.19239652  1
  O  O365  1  0.28679896  0.58125350  0.44194092  1
  O  O366  1  0.28706510  0.58434930  0.69232859  1
  O  O367  1  0.28779147  0.58200294  0.94290255  1
  O  O368  1  0.28764384  0.91543008  0.19310756  1
  O  O369  1  0.28668810  0.91490420  0.44245957  1
  O  O370  1  0.28690220  0.91767813  0.69271604  1
  O  O371  1  0.28789784  0.91751746  0.94189620  1
  O  O372  1  0.78722757  0.24811007  0.19279638  1
  O  O373  1  0.78603345  0.24856002  0.44316597  1
  O  O374  1  0.78596072  0.25192943  0.69176198  1
  O  O375  1  0.78737779  0.25109621  0.94154454  1
  O  O376  1  0.78674775  0.58427185  0.19109714  1
  O  O377  1  0.78731712  0.58269362  0.44251846  1
  O  O378  1  0.78753136  0.58248922  0.69123642  1
  O  O379  1  0.78689389  0.58487608  0.94239711  1
  O  O380  1  0.78603931  0.91649659  0.19270143  1
  O  O381  1  0.78701143  0.91720556  0.44049332  1
  O  O382  1  0.78767944  0.91679219  0.69270360  1
  O  O383  1  0.78675596  0.91653344  0.94376978  1
  O  O384  1  0.22695359  0.25012300  0.05941573  1
  O  O385  1  0.22673361  0.24980915  0.30902022  1
  O  O386  1  0.22851846  0.25056557  0.55645256  1
  O  O387  1  0.22815647  0.25200031  0.80826521  1
  O  O388  1  0.22848944  0.58036166  0.05838134  1
  O  O389  1  0.22817672  0.58121606  0.30785433  1
  O  O390  1  0.22795323  0.58205621  0.55778243  1
  O  O391  1  0.22819401  0.58459655  0.80825886  1
  O  O392  1  0.22895342  0.91662494  0.05718633  1
  O  O393  1  0.22804557  0.91543153  0.30825230  1
  O  O394  1  0.22777650  0.91513133  0.55819076  1
  O  O395  1  0.22845514  0.91844223  0.80893258  1
  O  O396  1  0.72821000  0.24945118  0.05666819  1
  O  O397  1  0.72760562  0.24771832  0.30793611  1
  O  O398  1  0.72702030  0.24950576  0.55916990  1
  O  O399  1  0.72735175  0.25238877  0.80792766  1
  O  O400  1  0.72770890  0.58553501  0.05788707  1
  O  O401  1  0.72813400  0.58375503  0.30668648  1
  O  O402  1  0.72813858  0.58172168  0.55800186  1
  O  O403  1  0.72839731  0.58344028  0.80652345  1
  O  O404  1  0.72769674  0.91696246  0.05981477  1
  O  O405  1  0.72708815  0.91633557  0.30909115  1
  O  O406  1  0.72830534  0.91762589  0.55608561  1
  O  O407  1  0.72802026  0.91546128  0.80789807  1
  O  O408  1  0.27266731  0.08494021  0.19251037  1
  O  O409  1  0.27190352  0.08445785  0.44212021  1
  O  O410  1  0.27178865  0.08365854  0.69338156  1
  O  O411  1  0.27210630  0.08195842  0.94222266  1
  O  O412  1  0.27285891  0.41532196  0.19071687  1
  O  O413  1  0.27264012  0.41704702  0.44014959  1
  O  O414  1  0.27233302  0.41888145  0.69158251  1
  O  O415  1  0.27253963  0.41475486  0.94237988  1
  O  O416  1  0.27179327  0.74876591  0.19373686  1
  O  O417  1  0.27235694  0.75055379  0.44205252  1
  O  O418  1  0.27231315  0.75176436  0.69178028  1
  O  O419  1  0.27210820  0.74793530  0.94222154  1
  O  O420  1  0.77233680  0.08107088  0.19226876  1
  O  O421  1  0.77217845  0.08356734  0.44047709  1
  O  O422  1  0.77196585  0.08548644  0.69175039  1
  O  O423  1  0.77125001  0.08347006  0.94325208  1
  O  O424  1  0.77103468  0.41659408  0.19322545  1
  O  O425  1  0.77144404  0.41597490  0.44334634  1
  O  O426  1  0.77246685  0.41666798  0.69037688  1
  O  O427  1  0.77175240  0.41523080  0.94183954  1
  O  O428  1  0.77268328  0.75039164  0.19052469  1
  O  O429  1  0.77186510  0.75219258  0.44152000  1
  O  O430  1  0.77126115  0.75041815  0.69311275  1
  O  O431  1  0.77203131  0.75226152  0.94191518  1
  O  O432  1  0.02290277  0.08442925  0.18419851  1
  O  O433  1  0.02168909  0.08426684  0.43177588  1
  O  O434  1  0.02156758  0.08602465  0.68351735  1
  O  O435  1  0.02188846  0.08606513  0.93324427  1
  O  O436  1  0.02190542  0.41778993  0.18240751  1
  O  O437  1  0.02208331  0.41447724  0.43243263  1
  O  O438  1  0.02252668  0.41480151  0.68301407  1
  O  O439  1  0.02304848  0.41738709  0.93433602  1
  O  O440  1  0.02225185  0.74871201  0.18303238  1
  O  O441  1  0.02185899  0.74964597  0.43132222  1
  O  O442  1  0.02225108  0.74833172  0.68319491  1
  O  O443  1  0.02153484  0.74962764  0.93212276  1
  O  O444  1  0.52228083  0.08291524  0.18477991  1
  O  O445  1  0.52190802  0.08119097  0.43263577  1
  O  O446  1  0.52270135  0.08342711  0.68408340  1
  O  O447  1  0.52188619  0.08617085  0.93351661  1
  O  O448  1  0.52304537  0.41521973  0.18453240  1
  O  O449  1  0.52229136  0.41434294  0.43311949  1
  O  O450  1  0.52142640  0.41639200  0.68196317  1
  O  O451  1  0.52226796  0.41482017  0.93327174  1
  O  O452  1  0.52180887  0.75132936  0.18352082  1
  O  O453  1  0.52308512  0.74923574  0.43403730  1
  O  O454  1  0.52196177  0.74884559  0.68304886  1
  O  O455  1  0.52163438  0.75058395  0.93190112  1
  O  O456  1  0.47689024  0.24987277  0.06606621  1
  O  O457  1  0.47697325  0.25011229  0.31603889  1
  O  O458  1  0.47759376  0.25067029  0.56624554  1
  O  O459  1  0.47765757  0.24791585  0.81711125  1
  O  O460  1  0.47854921  0.58280161  0.06866682  1
  O  O461  1  0.47802580  0.58186822  0.31705562  1
  O  O462  1  0.47810499  0.58462969  0.56637895  1
  O  O463  1  0.47795280  0.58527035  0.81685135  1
  O  O464  1  0.47796227  0.91768165  0.06824136  1
  O  O465  1  0.47679757  0.91654293  0.31582287  1
  O  O466  1  0.47708996  0.91750311  0.56539522  1
  O  O467  1  0.47801279  0.91872939  0.81635927  1
  O  O468  1  0.97705733  0.24960589  0.06559659  1
  O  O469  1  0.97796335  0.24900043  0.31644951  1
  O  O470  1  0.97806416  0.25244753  0.56696143  1
  O  O471  1  0.97727906  0.25060162  0.81586289  1
  O  O472  1  0.97807455  0.58086986  0.06687102  1
  O  O473  1  0.97722940  0.58183495  0.31543985  1
  O  O474  1  0.97901071  0.58253827  0.56818078  1
  O  O475  1  0.97851267  0.58406307  0.81669781  1
  O  O476  1  0.97842785  0.91755097  0.06875127  1
  O  O477  1  0.97805390  0.91789708  0.31687470  1
  O  O478  1  0.97839941  0.91697710  0.56847382  1
  O  O479  1  0.97864917  0.91713200  0.81872336  1
  O  O480  1  0.07134302  0.31406618  0.07315749  1
  O  O481  1  0.07326495  0.31297401  0.32345217  1
  O  O482  1  0.07364038  0.31492042  0.57389750  1
  O  O483  1  0.07218891  0.31446521  0.82430517  1
  O  O484  1  0.07315286  0.64525959  0.07512252  1
  O  O485  1  0.07185883  0.64617653  0.32296995  1
  O  O486  1  0.07446408  0.64638871  0.57440577  1
  O  O487  1  0.07313504  0.64775514  0.82444023  1
  O  O488  1  0.07421279  0.98061473  0.07578937  1
  O  O489  1  0.07290637  0.98171820  0.32403256  1
  O  O490  1  0.07367809  0.98090118  0.57550300  1
  O  O491  1  0.07377799  0.98115226  0.82578695  1
  O  O492  1  0.57194156  0.31317591  0.07378411  1
  O  O493  1  0.57296140  0.31240687  0.32331705  1
  O  O494  1  0.57237695  0.31415470  0.57397326  1
  O  O495  1  0.57264340  0.31233098  0.82485208  1
  O  O496  1  0.57362386  0.64664227  0.07637183  1
  O  O497  1  0.57374668  0.64516478  0.32484425  1
  O  O498  1  0.57327836  0.64797668  0.57343558  1
  O  O499  1  0.57325861  0.64827619  0.82428965  1
  O  O500  1  0.57345005  0.98070997  0.07636007  1
  O  O501  1  0.57196927  0.97987533  0.32381713  1
  O  O502  1  0.57263800  0.98051506  0.57279270  1
  O  O503  1  0.57292104  0.98240007  0.82346438  1
  O  O504  1  0.42689116  0.02008635  0.17644735  1
  O  O505  1  0.42657824  0.01826158  0.42547753  1
  O  O506  1  0.42768300  0.01973144  0.67636934  1
  O  O507  1  0.42715239  0.02150445  0.92572524  1
  O  O508  1  0.42740134  0.35234413  0.17683767  1
  O  O509  1  0.42748062  0.35087911  0.42480090  1
  O  O510  1  0.42560530  0.35342569  0.67474292  1
  O  O511  1  0.42709229  0.35181301  0.92655746  1
  O  O512  1  0.42643646  0.68747210  0.17609410  1
  O  O513  1  0.42789351  0.68581248  0.42561214  1
  O  O514  1  0.42685031  0.68565177  0.67532246  1
  O  O515  1  0.42621667  0.68710890  0.92509677  1
  O  O516  1  0.92835294  0.02014038  0.17650729  1
  O  O517  1  0.92657508  0.02027367  0.42447660  1
  O  O518  1  0.92631899  0.02188344  0.67587511  1
  O  O519  1  0.92689575  0.02189881  0.92529931  1
  O  O520  1  0.92664538  0.35387193  0.17428370  1
  O  O521  1  0.92678907  0.35153863  0.42527571  1
  O  O522  1  0.92702332  0.35194275  0.67642419  1
  O  O523  1  0.92856179  0.35305489  0.92684638  1
  O  O524  1  0.92767230  0.68452101  0.17608213  1
  O  O525  1  0.92637011  0.68593670  0.42435014  1
  O  O526  1  0.92733878  0.68488511  0.67596065  1
  O  O527  1  0.92580680  0.68634651  0.92503344  1
  O  O528  1  0.17759645  0.02089209  0.20108631  1
  O  O529  1  0.17639488  0.02104478  0.44949939  1
  O  O530  1  0.17588357  0.02091630  0.70040800  1
  O  O531  1  0.17694944  0.01890162  0.94991647  1
  O  O532  1  0.17730458  0.35245828  0.19875026  1
  O  O533  1  0.17828807  0.35284180  0.44771972  1
  O  O534  1  0.17709373  0.35489029  0.69909991  1
  O  O535  1  0.17756602  0.35131917  0.94933218  1
  O  O536  1  0.17624605  0.68570628  0.20144552  1
  O  O537  1  0.17683076  0.68727955  0.45027744  1
  O  O538  1  0.17685986  0.68825048  0.69935005  1
  O  O539  1  0.17735944  0.68401498  0.94905138  1
  O  O540  1  0.67722808  0.01790671  0.20001507  1
  O  O541  1  0.67730516  0.01982104  0.44840355  1
  O  O542  1  0.67701405  0.02114469  0.69890727  1
  O  O543  1  0.67590950  0.01961850  0.95010992  1
  O  O544  1  0.67599961  0.35231443  0.20027561  1
  O  O545  1  0.67593171  0.35286947  0.45092136  1
  O  O546  1  0.67709577  0.35333026  0.69798374  1
  O  O547  1  0.67640961  0.35227362  0.94856719  1
  O  O548  1  0.67778648  0.68686443  0.19861411  1
  O  O549  1  0.67695957  0.68755522  0.44886445  1
  O  O550  1  0.67578196  0.68733673  0.70018723  1
  O  O551  1  0.67665426  0.68855051  0.95028918  1
  O  O552  1  0.32265551  0.31282426  0.05251295  1
  O  O553  1  0.32135775  0.31364261  0.30132392  1
  O  O554  1  0.32397297  0.31363637  0.54836243  1
  O  O555  1  0.32295676  0.31587616  0.80155789  1
  O  O556  1  0.32383432  0.64446604  0.05140912  1
  O  O557  1  0.32376046  0.64427312  0.30008073  1
  O  O558  1  0.32342440  0.64528336  0.54916289  1
  O  O559  1  0.32271416  0.64862228  0.80064520  1
  O  O560  1  0.32472642  0.97963278  0.05072082  1
  O  O561  1  0.32354444  0.97883995  0.30082326  1
  O  O562  1  0.32285639  0.97917830  0.54978254  1
  O  O563  1  0.32323477  0.98194447  0.80078175  1
  O  O564  1  0.82348607  0.31357975  0.05030979  1
  O  O565  1  0.82282090  0.31182943  0.30056310  1
  O  O566  1  0.82187279  0.31330204  0.55078466  1
  O  O567  1  0.82255807  0.31528854  0.80043624  1
  O  O568  1  0.82308030  0.64834373  0.05075700  1
  O  O569  1  0.82380938  0.64676535  0.29948193  1
  O  O570  1  0.82311290  0.64629824  0.55015960  1
  O  O571  1  0.82384410  0.64656258  0.79911610  1
  O  O572  1  0.82246148  0.98083853  0.05178612  1
  O  O573  1  0.82197441  0.98001052  0.30107952  1
  O  O574  1  0.82392890  0.98058864  0.54880757  1
  O  O575  1  0.82318204  0.97982671  0.80083308  1
  O  O576  1  0.42774978  0.14741634  0.17768127  1
  O  O577  1  0.42683521  0.14516121  0.42463043  1
  O  O578  1  0.42786352  0.14719941  0.67554036  1
  O  O579  1  0.42622130  0.14829793  0.92654259  1
  O  O580  1  0.42882948  0.47972642  0.17686163  1
  O  O581  1  0.42698088  0.47792357  0.42445211  1
  O  O582  1  0.42647804  0.48029751  0.67417781  1
  O  O583  1  0.42703949  0.47905015  0.92601414  1
  O  O584  1  0.42662271  0.81464224  0.17684350  1
  O  O585  1  0.42834921  0.81326102  0.42728167  1
  O  O586  1  0.42683734  0.81269288  0.67398797  1
  O  O587  1  0.42633442  0.81410303  0.92403633  1
  O  O588  1  0.92748919  0.14762009  0.17679812  1
  O  O589  1  0.92600842  0.14697210  0.42427965  1
  O  O590  1  0.92641141  0.14917890  0.67624208  1
  O  O591  1  0.92640334  0.14901014  0.92615937  1
  O  O592  1  0.92659620  0.48066871  0.17546590  1
  O  O593  1  0.92680535  0.47865859  0.42559310  1
  O  O594  1  0.92751785  0.47886237  0.67488025  1
  O  O595  1  0.92774841  0.48044802  0.92565237  1
  O  O596  1  0.92647758  0.81185691  0.17539402  1
  O  O597  1  0.92648913  0.81292376  0.42366600  1
  O  O598  1  0.92684683  0.81228777  0.67539162  1
  O  O599  1  0.92631729  0.81325981  0.92511067  1
  O  O600  1  0.07261753  0.18672998  0.07316887  1
  O  O601  1  0.07313106  0.18600404  0.32386377  1
  O  O602  1  0.07303332  0.18805647  0.57486223  1
  O  O603  1  0.07232606  0.18724612  0.82375295  1
  O  O604  1  0.07345885  0.51835388  0.07444224  1
  O  O605  1  0.07245239  0.51856041  0.32275827  1
  O  O606  1  0.07446216  0.51955704  0.57517023  1
  O  O607  1  0.07415146  0.52057169  0.82459624  1
  O  O608  1  0.07356885  0.85358018  0.07632245  1
  O  O609  1  0.07370105  0.85449731  0.32474748  1
  O  O610  1  0.07391395  0.85376673  0.57509560  1
  O  O611  1  0.07441887  0.85409112  0.82576868  1
  O  O612  1  0.57181418  0.18597593  0.07468791  1
  O  O613  1  0.57105054  0.18516389  0.32332064  1
  O  O614  1  0.57293899  0.18701964  0.57383088  1
  O  O615  1  0.57312673  0.18549058  0.82411884  1
  O  O616  1  0.57420140  0.51967616  0.07548974  1
  O  O617  1  0.57267523  0.51792856  0.32454973  1
  O  O618  1  0.57329663  0.52093810  0.57525653  1
  O  O619  1  0.57295095  0.52091107  0.82439440  1
  O  O620  1  0.57314703  0.85398459  0.07555493  1
  O  O621  1  0.57156351  0.85265371  0.32389113  1
  O  O622  1  0.57151300  0.85316948  0.57289008  1
  O  O623  1  0.57340182  0.85523118  0.82411757  1
  O  O624  1  0.32136992  0.18563619  0.05220529  1
  O  O625  1  0.32192103  0.18641886  0.30112696  1
  O  O626  1  0.32380985  0.18686678  0.54976074  1
  O  O627  1  0.32364609  0.18863435  0.80063296  1
  O  O628  1  0.32363034  0.51731562  0.05093356  1
  O  O629  1  0.32321217  0.51722147  0.30109268  1
  O  O630  1  0.32278201  0.51814282  0.55084484  1
  O  O631  1  0.32386842  0.52147486  0.80036823  1
  O  O632  1  0.32399416  0.85263347  0.04927734  1
  O  O633  1  0.32291018  0.85153849  0.30176059  1
  O  O634  1  0.32305931  0.85201226  0.55142324  1
  O  O635  1  0.32389802  0.85475406  0.80049014  1
  O  O636  1  0.82387995  0.18674509  0.04931765  1
  O  O637  1  0.82290148  0.18460191  0.30134416  1
  O  O638  1  0.82217515  0.18597163  0.55185644  1
  O  O639  1  0.82240981  0.18829194  0.79968992  1
  O  O640  1  0.82263681  0.52094440  0.04985537  1
  O  O641  1  0.82323361  0.51989339  0.29883891  1
  O  O642  1  0.82354605  0.51890072  0.55075365  1
  O  O643  1  0.82382456  0.51972006  0.79982546  1
  O  O644  1  0.82302100  0.85356419  0.05225911  1
  O  O645  1  0.82208319  0.85274378  0.30080910  1
  O  O646  1  0.82371052  0.85389365  0.54892052  1
  O  O647  1  0.82329742  0.85255678  0.80116316  1
  O  O648  1  0.17737658  0.14798937  0.19899498  1
  O  O649  1  0.17686050  0.14826259  0.44892216  1
  O  O650  1  0.17682770  0.14781594  0.70114414  1
  O  O651  1  0.17692019  0.14606715  0.95004453  1
  O  O652  1  0.17828262  0.47962115  0.19784781  1
  O  O653  1  0.17708027  0.48011104  0.44734984  1
  O  O654  1  0.17736851  0.48203801  0.69923619  1
  O  O655  1  0.17715332  0.47821495  0.95038510  1
  O  O656  1  0.17642064  0.81262085  0.20011239  1
  O  O657  1  0.17731623  0.81441946  0.44888615  1
  O  O658  1  0.17750685  0.81536547  0.70000877  1
  O  O659  1  0.17655507  0.81139257  0.95029375  1
  O  O660  1  0.67710049  0.14490126  0.20046222  1
  O  O661  1  0.67694037  0.14711044  0.44774167  1
  O  O662  1  0.67662430  0.14838822  0.69879231  1
  O  O663  1  0.67576661  0.14647318  0.95085195  1
  O  O664  1  0.67535496  0.47941241  0.20004106  1
  O  O665  1  0.67612647  0.47966830  0.45077599  1
  O  O666  1  0.67781619  0.48074414  0.69855080  1
  O  O667  1  0.67658384  0.47956318  0.94913081  1
  O  O668  1  0.67761872  0.81422979  0.19843874  1
  O  O669  1  0.67638040  0.81480364  0.44830197  1
  O  O670  1  0.67580307  0.81422052  0.69941293  1
  O  O671  1  0.67715340  0.81564399  0.94983423  1
