# generated using pymatgen
data_Na2MnFe(PO4)2
_symmetry_space_group_name_H-M   'P 1'
_cell_length_a   22.34390799
_cell_length_b   20.09143831
_cell_length_c   19.44858776
_cell_angle_alpha   89.99946190
_cell_angle_beta   89.99832081
_cell_angle_gamma   90.05707263
_symmetry_Int_Tables_number   1
_chemical_formula_structural   Na2MnFe(PO4)2
_chemical_formula_sum   'Na96 Mn48 Fe48 P96 O384'
_cell_volume   8730.87997110
_cell_formula_units_Z   48
loop_
 _symmetry_equiv_pos_site_id
 _symmetry_equiv_pos_as_xyz
  1  'x, y, z'
loop_
 _atom_site_type_symbol
 _atom_site_label
 _atom_site_symmetry_multiplicity
 _atom_site_fract_x
 _atom_site_fract_y
 _atom_site_fract_z
 _atom_site_occupancy
  Na  Na0  1  0.14059967  0.25038258  0.24431725  1
  Na  Na1  1  0.14082807  0.24990168  0.49397782  1
  Na  Na2  1  0.14089094  0.25007549  0.74364344  1
  Na  Na3  1  0.14085346  0.25081209  0.99439109  1
  Na  Na4  1  0.14030395  0.58276283  0.24338242  1
  Na  Na5  1  0.14036181  0.58229797  0.49328976  1
  Na  Na6  1  0.13973922  0.58344466  0.74304082  1
  Na  Na7  1  0.13991469  0.58336069  0.99428068  1
  Na  Na8  1  0.14061394  0.91618819  0.24428273  1
  Na  Na9  1  0.13992280  0.91642398  0.49400854  1
  Na  Na10  1  0.14023014  0.91746730  0.74278106  1
  Na  Na11  1  0.14036046  0.91663898  0.99468920  1
  Na  Na12  1  0.64063433  0.24969364  0.24307953  1
  Na  Na13  1  0.64049526  0.24997911  0.49287957  1
  Na  Na14  1  0.64084993  0.25162609  0.74364686  1
  Na  Na15  1  0.64076430  0.25036384  0.99271635  1
  Na  Na16  1  0.64024233  0.58396754  0.24318208  1
  Na  Na17  1  0.63987404  0.58407781  0.49486985  1
  Na  Na18  1  0.63966894  0.58305012  0.74340455  1
  Na  Na19  1  0.63997661  0.58238331  0.99362337  1
  Na  Na20  1  0.64037945  0.91568799  0.24290699  1
  Na  Na21  1  0.64031975  0.91583674  0.49393005  1
  Na  Na22  1  0.64025278  0.91691656  0.74392079  1
  Na  Na23  1  0.63941560  0.91617055  0.99402208  1
  Na  Na24  1  0.35987231  0.08284096  0.00771472  1
  Na  Na25  1  0.35968184  0.08386727  0.25614242  1
  Na  Na26  1  0.35953691  0.08223299  0.50656999  1
  Na  Na27  1  0.35962731  0.08313568  0.75518117  1
  Na  Na28  1  0.36010737  0.41735133  0.00679680  1
  Na  Na29  1  0.35963780  0.41615727  0.25554838  1
  Na  Na30  1  0.35993814  0.41557781  0.50604386  1
  Na  Na31  1  0.36017387  0.41755335  0.75635112  1
  Na  Na32  1  0.35956728  0.75025158  0.00690723  1
  Na  Na33  1  0.36002211  0.74876612  0.25702335  1
  Na  Na34  1  0.36007609  0.74989530  0.50731501  1
  Na  Na35  1  0.35968745  0.74997429  0.75613922  1
  Na  Na36  1  0.85996119  0.08260367  0.00662072  1
  Na  Na37  1  0.85971633  0.08273763  0.25538032  1
  Na  Na38  1  0.85965449  0.08325850  0.50663497  1
  Na  Na39  1  0.85940777  0.08479997  0.75588599  1
  Na  Na40  1  0.85972905  0.41813505  0.00566023  1
  Na  Na41  1  0.85982307  0.41786643  0.25573788  1
  Na  Na42  1  0.85948301  0.41800319  0.50614533  1
  Na  Na43  1  0.85979112  0.41787817  0.75612476  1
  Na  Na44  1  0.85876966  0.74984882  0.00748576  1
  Na  Na45  1  0.85941083  0.74989570  0.25620925  1
  Na  Na46  1  0.85965539  0.74955398  0.50630870  1
  Na  Na47  1  0.85960493  0.74905691  0.75633574  1
  Na  Na48  1  0.10969693  0.08373051  0.11831108  1
  Na  Na49  1  0.10977923  0.08340890  0.37068353  1
  Na  Na50  1  0.10985028  0.08260163  0.61756908  1
  Na  Na51  1  0.10995625  0.08346248  0.86990561  1
  Na  Na52  1  0.10997465  0.41641115  0.11883898  1
  Na  Na53  1  0.11016279  0.41776485  0.36852860  1
  Na  Na54  1  0.11016514  0.41720430  0.61817071  1
  Na  Na55  1  0.10995767  0.41842656  0.86871853  1
  Na  Na56  1  0.11003873  0.74901740  0.11887869  1
  Na  Na57  1  0.10982482  0.75032439  0.36858245  1
  Na  Na58  1  0.10912585  0.74968399  0.61802273  1
  Na  Na59  1  0.10908902  0.74957297  0.86911831  1
  Na  Na60  1  0.60938314  0.08273014  0.11810486  1
  Na  Na61  1  0.60962550  0.08175479  0.36794893  1
  Na  Na62  1  0.60985200  0.08365119  0.61796676  1
  Na  Na63  1  0.60983007  0.08154635  0.86876742  1
  Na  Na64  1  0.60984101  0.41720304  0.11760266  1
  Na  Na65  1  0.60973384  0.41682303  0.36849227  1
  Na  Na66  1  0.60984374  0.41874637  0.61873300  1
  Na  Na67  1  0.60989974  0.41779109  0.86848062  1
  Na  Na68  1  0.60977232  0.75015113  0.11819591  1
  Na  Na69  1  0.60929348  0.74972273  0.36921717  1
  Na  Na70  1  0.60918435  0.74951884  0.62002345  1
  Na  Na71  1  0.60892094  0.74937098  0.86939274  1
  Na  Na72  1  0.39044092  0.25043137  0.13105764  1
  Na  Na73  1  0.39036586  0.24950443  0.38049943  1
  Na  Na74  1  0.39088854  0.25104517  0.63081941  1
  Na  Na75  1  0.39084647  0.24986673  0.88205036  1
  Na  Na76  1  0.39040681  0.58383244  0.13133124  1
  Na  Na77  1  0.39056920  0.58314039  0.38180291  1
  Na  Na78  1  0.39026911  0.58385128  0.63151935  1
  Na  Na79  1  0.39003503  0.58302473  0.88136086  1
  Na  Na80  1  0.39046871  0.91559173  0.13217508  1
  Na  Na81  1  0.39009352  0.91448254  0.38175097  1
  Na  Na82  1  0.39010630  0.91508990  0.63138903  1
  Na  Na83  1  0.39033264  0.91575238  0.88063927  1
  Na  Na84  1  0.89071551  0.25045540  0.13006987  1
  Na  Na85  1  0.89058990  0.25043060  0.38181629  1
  Na  Na86  1  0.89022181  0.25022767  0.63101409  1
  Na  Na87  1  0.89069856  0.25075574  0.88143916  1
  Na  Na88  1  0.88988920  0.58291459  0.13163360  1
  Na  Na89  1  0.88997074  0.58386391  0.38078185  1
  Na  Na90  1  0.89000344  0.58303319  0.63154460  1
  Na  Na91  1  0.88975068  0.58318789  0.88030684  1
  Na  Na92  1  0.88970008  0.91654248  0.13189782  1
  Na  Na93  1  0.89033554  0.91792087  0.38163390  1
  Na  Na94  1  0.89051361  0.91627075  0.63078336  1
  Na  Na95  1  0.89009353  0.91771637  0.88232601  1
  Mn  Mn96  1  0.75038968  0.33419472  0.12427993  1
  Mn  Mn97  1  0.25019719  0.00021984  0.87524766  1
  Mn  Mn98  1  -0.00093110  0.83349028  -0.00019488  1
  Mn  Mn99  1  -0.00006635  0.33427631  0.50033188  1
  Mn  Mn100  1  0.00008586  0.33431405  0.00016654  1
  Mn  Mn101  1  0.75033428  0.16565532  0.37350457  1
  Mn  Mn102  1  0.49949662  0.66647776  -0.00001754  1
  Mn  Mn103  1  0.50020279  0.16633971  -0.00060359  1
  Mn  Mn104  1  0.24984245  -0.00094160  0.37545725  1
  Mn  Mn105  1  -0.00084238  0.66559292  -0.00043928  1
  Mn  Mn106  1  0.75001160  0.16685397  0.87473907  1
  Mn  Mn107  1  0.00091948  0.33427661  0.75042195  1
  Mn  Mn108  1  0.50020960  0.50064947  0.49984272  1
  Mn  Mn109  1  0.74946145  0.66597424  0.37506880  1
  Mn  Mn110  1  0.49945278  0.50053774  0.25001934  1
  Mn  Mn111  1  0.74991715  0.33423490  0.62429261  1
  Mn  Mn112  1  -0.00019820  0.16686854  0.25041825  1
  Mn  Mn113  1  0.24972156  0.16705554  0.37542292  1
  Mn  Mn114  1  0.00010810  0.66637630  0.49949907  1
  Mn  Mn115  1  0.49969919  -0.00164322  0.49893589  1
  Mn  Mn116  1  0.25015863  -0.00047215  0.12612084  1
  Mn  Mn117  1  0.24991543  0.66617927  0.37536813  1
  Mn  Mn118  1  0.49968109  -0.00073504  0.24985492  1
  Mn  Mn119  1  0.00004977  0.00040874  0.25074227  1
  Mn  Mn120  1  0.74910428  0.66579987  0.87607935  1
  Mn  Mn121  1  0.00062235  0.83305253  0.25010706  1
  Mn  Mn122  1  0.00009917  0.83256448  0.75056236  1
  Mn  Mn123  1  0.74957713  0.83351468  0.37502669  1
  Mn  Mn124  1  0.24999661  0.50005911  0.12523776  1
  Mn  Mn125  1  0.24880045  0.66628746  0.87487681  1
  Mn  Mn126  1  0.24953186  0.83322886  0.87517643  1
  Mn  Mn127  1  0.25045818  0.16683314  0.87500778  1
  Mn  Mn128  1  0.74927488  0.83375391  0.87572762  1
  Mn  Mn129  1  -0.00030011  0.00000832  0.74999347  1
  Mn  Mn130  1  0.75055614  0.83311400  0.62536101  1
  Mn  Mn131  1  0.49956475  -0.00156950  0.74930031  1
  Mn  Mn132  1  0.75038901  0.33430128  0.37413175  1
  Mn  Mn133  1  0.25020674  0.33348687  0.62486939  1
  Mn  Mn134  1  0.49978409  0.16700634  0.49927492  1
  Mn  Mn135  1  0.75050354  0.16591738  0.12379101  1
  Mn  Mn136  1  0.00060652  0.33448815  0.25068619  1
  Mn  Mn137  1  0.25096879  0.33449417  0.87436110  1
  Mn  Mn138  1  0.25004122  0.66615152  0.62468966  1
  Mn  Mn139  1  0.75014697  0.00094319  0.62477851  1
  Mn  Mn140  1  0.00024804  0.16664025  0.75044227  1
  Mn  Mn141  1  0.50049215  0.33462869  0.75063138  1
  Mn  Mn142  1  0.50017121  0.33280692  0.24905666  1
  Mn  Mn143  1  0.50042239  0.16647738  0.74991262  1
  Fe  Fe144  1  -0.00014322  0.50038420  0.74954719  1
  Fe  Fe145  1  0.74941343  -0.00053424  0.12482663  1
  Fe  Fe146  1  0.00003229  0.50065802  0.49969106  1
  Fe  Fe147  1  -0.00027128  0.50065261  0.24982055  1
  Fe  Fe148  1  0.49954695  0.50063121  0.74996704  1
  Fe  Fe149  1  0.25000138  0.50060786  0.87551129  1
  Fe  Fe150  1  0.75008059  0.50045472  0.87489386  1
  Fe  Fe151  1  0.49981993  0.66720231  0.50097730  1
  Fe  Fe152  1  0.25036003  0.66644388  0.12542361  1
  Fe  Fe153  1  0.25000035  0.83248920  0.12526876  1
  Fe  Fe154  1  -0.00059825  0.83290918  0.49977805  1
  Fe  Fe155  1  0.74971819  0.50075779  0.37512531  1
  Fe  Fe156  1  0.49920673  0.83278777  0.00009005  1
  Fe  Fe157  1  -0.00020051  0.66656401  0.24995061  1
  Fe  Fe158  1  0.50026096  0.16651252  0.24907610  1
  Fe  Fe159  1  0.49938215  0.66698673  0.75067315  1
  Fe  Fe160  1  0.00024918  0.16699854  0.50072588  1
  Fe  Fe161  1  0.25074498  0.33326820  0.37503345  1
  Fe  Fe162  1  0.74989711  0.66605278  0.12529548  1
  Fe  Fe163  1  0.00046449  0.00022941  0.00057463  1
  Fe  Fe164  1  0.50065837  0.33357461  -0.00005359  1
  Fe  Fe165  1  0.49949924  -0.00080479  -0.00034598  1
  Fe  Fe166  1  0.25028647  0.49958088  0.62438870  1
  Fe  Fe167  1  0.50021003  0.83203956  0.50039250  1
  Fe  Fe168  1  0.75040036  0.33418006  0.87410709  1
  Fe  Fe169  1  0.50039721  0.83254539  0.75040303  1
  Fe  Fe170  1  0.25089410  0.16671984  0.62485602  1
  Fe  Fe171  1  0.74962879  0.50046570  0.62530596  1
  Fe  Fe172  1  0.50071958  0.33349012  0.49956627  1
  Fe  Fe173  1  -0.00012401  -0.00009055  0.50032852  1
  Fe  Fe174  1  0.25018463  -0.00024555  0.62487980  1
  Fe  Fe175  1  0.25034286  0.49926099  0.37423756  1
  Fe  Fe176  1  0.24985504  0.16742178  0.12591688  1
  Fe  Fe177  1  0.74964921  0.66629325  0.62556584  1
  Fe  Fe178  1  0.50034401  0.66723033  0.25059971  1
  Fe  Fe179  1  0.24944813  0.83324379  0.62529133  1
  Fe  Fe180  1  0.50033870  0.50035561  -0.00017146  1
  Fe  Fe181  1  0.00055976  0.16702762  0.00037347  1
  Fe  Fe182  1  0.24976915  0.33369412  0.12529952  1
  Fe  Fe183  1  0.75020596  -0.00003654  0.87524673  1
  Fe  Fe184  1  0.75000934  0.83357597  0.12529425  1
  Fe  Fe185  1  0.74960941  0.16742687  0.62496600  1
  Fe  Fe186  1  0.74938834  0.49991578  0.12469619  1
  Fe  Fe187  1  -0.00049572  0.66610469  0.74927836  1
  Fe  Fe188  1  0.25015692  0.83257109  0.37538521  1
  Fe  Fe189  1  0.49997725  0.83243147  0.25023446  1
  Fe  Fe190  1  0.74998155  -0.00019745  0.37485364  1
  Fe  Fe191  1  0.00017778  0.50057339  -0.00024169  1
  P  P192  1  0.04246991  0.24965186  0.10263202  1
  P  P193  1  0.04271725  0.25023141  0.35418546  1
  P  P194  1  0.04267418  0.24955437  0.60265303  1
  P  P195  1  0.04324968  0.25021816  0.85402630  1
  P  P196  1  0.04192919  0.58198845  0.10320664  1
  P  P197  1  0.04162702  0.58368096  0.35159572  1
  P  P198  1  0.04212065  0.58215490  0.60269000  1
  P  P199  1  0.04133816  0.58340141  0.85146587  1
  P  P200  1  0.04208038  0.91729499  0.10260029  1
  P  P201  1  0.04269115  0.91665354  0.35438857  1
  P  P202  1  0.04096355  0.91576457  0.60149259  1
  P  P203  1  0.04267562  0.91706137  0.85368707  1
  P  P204  1  0.54269371  0.25069969  0.10202945  1
  P  P205  1  0.54257924  0.24862652  0.35195624  1
  P  P206  1  0.54261853  0.25175113  0.60215136  1
  P  P207  1  0.54308534  0.25035599  0.85346590  1
  P  P208  1  0.54213708  0.58276065  0.10266355  1
  P  P209  1  0.54206619  0.58501741  0.35295227  1
  P  P210  1  0.54149487  0.58514754  0.60365292  1
  P  P211  1  0.54096745  0.58340380  0.85189658  1
  P  P212  1  0.54059069  0.91589582  0.10183328  1
  P  P213  1  0.54209766  0.91414493  0.35235719  1
  P  P214  1  0.54216580  0.91434487  0.60252419  1
  P  P215  1  0.54196798  0.91472468  0.85319232  1
  P  P216  1  0.45783658  0.08397378  0.14687569  1
  P  P217  1  0.45708304  0.08280227  0.39593672  1
  P  P218  1  0.45747640  0.08291736  0.64637534  1
  P  P219  1  0.45757633  0.08138697  0.89744855  1
  P  P220  1  0.45760784  0.41686280  0.14573715  1
  P  P221  1  0.45806780  0.41550926  0.39747940  1
  P  P222  1  0.45806960  0.41838682  0.64728223  1
  P  P223  1  0.45876158  0.41719757  0.89837072  1
  P  P224  1  0.45865597  0.74970449  0.14840063  1
  P  P225  1  0.45834249  0.74934016  0.39828591  1
  P  P226  1  0.45839765  0.74981445  0.64830715  1
  P  P227  1  0.45729551  0.75067798  0.89713258  1
  P  P228  1  0.95772096  0.08340332  0.14618455  1
  P  P229  1  0.95862883  0.08390613  0.39921702  1
  P  P230  1  0.95760571  0.08348461  0.64609950  1
  P  P231  1  0.95879603  0.08363659  0.89904795  1
  P  P232  1  0.95819009  0.41829731  0.14726781  1
  P  P233  1  0.95782748  0.41903994  0.39716402  1
  P  P234  1  0.95809576  0.41811969  0.64710108  1
  P  P235  1  0.95813571  0.41891957  0.89695395  1
  P  P236  1  0.95755779  0.74855253  0.14765922  1
  P  P237  1  0.95757270  0.75074642  0.39700564  1
  P  P238  1  0.95760008  0.74884285  0.64702474  1
  P  P239  1  0.95624973  0.74924694  0.89648052  1
  P  P240  1  0.20769733  0.08456520  0.22780709  1
  P  P241  1  0.20795299  0.08288591  0.47934428  1
  P  P242  1  0.20853634  0.08357858  0.72611734  1
  P  P243  1  0.20795620  0.08393164  0.97920761  1
  P  P244  1  0.20792093  0.41556070  0.22827038  1
  P  P245  1  0.20895016  0.41651760  0.47660373  1
  P  P246  1  0.20804065  0.41841367  0.72750105  1
  P  P247  1  0.20807731  0.41803628  0.97769216  1
  P  P248  1  0.20868369  0.74943755  0.22727711  1
  P  P249  1  0.20794523  0.75094751  0.47807759  1
  P  P250  1  0.20713929  0.75059648  0.72704645  1
  P  P251  1  0.20693512  0.74972610  0.97924379  1
  P  P252  1  0.70761569  0.08162688  0.22697561  1
  P  P253  1  0.70749028  0.08235230  0.47708738  1
  P  P254  1  0.70749216  0.08514322  0.72757748  1
  P  P255  1  0.70797026  0.08159161  0.97755062  1
  P  P256  1  0.70753215  0.41830121  0.22742151  1
  P  P257  1  0.70767582  0.41855806  0.47749920  1
  P  P258  1  0.70803800  0.41815618  0.72791811  1
  P  P259  1  0.70872646  0.41725748  0.97626850  1
  P  P260  1  0.70877343  0.74985497  0.22641096  1
  P  P261  1  0.70732348  0.74931641  0.47873555  1
  P  P262  1  0.70771263  0.74880516  0.72787646  1
  P  P263  1  0.70707383  0.74982711  0.97957962  1
  P  P264  1  0.29157816  0.25065588  0.02381206  1
  P  P265  1  0.29217542  0.25123324  0.27188094  1
  P  P266  1  0.29273314  0.24912482  0.52223688  1
  P  P267  1  0.29349282  0.24994797  0.77131271  1
  P  P268  1  0.29217930  0.58449693  0.02250684  1
  P  P269  1  0.29241648  0.58221790  0.27239984  1
  P  P270  1  0.29222225  0.58136492  0.52179052  1
  P  P271  1  0.29178813  0.58197243  0.77219957  1
  P  P272  1  0.29226050  0.91533334  0.02335264  1
  P  P273  1  0.29206246  0.91438738  0.27259098  1
  P  P274  1  0.29126344  0.91570957  0.52342576  1
  P  P275  1  0.29220843  0.91672579  0.77102980  1
  P  P276  1  0.79287848  0.25077039  0.02068667  1
  P  P277  1  0.79345111  0.25008894  0.27112106  1
  P  P278  1  0.79206645  0.24918341  0.52209629  1
  P  P279  1  0.79246176  0.25171117  0.77195929  1
  P  P280  1  0.79109813  0.58269767  0.02335340  1
  P  P281  1  0.79176123  0.58228692  0.27163664  1
  P  P282  1  0.79114741  0.58337575  0.52353314  1
  P  P283  1  0.79140945  0.58245338  0.77201552  1
  P  P284  1  0.79109403  0.91686377  0.02322449  1
  P  P285  1  0.79200167  0.91786179  0.27189264  1
  P  P286  1  0.79274299  0.91695476  0.52155660  1
  P  P287  1  0.79235472  0.91809411  0.77294796  1
  O  O288  1  0.03743095  0.24998369  0.18261873  1
  O  O289  1  0.03723836  0.24993941  0.43413026  1
  O  O290  1  0.03807307  0.24988876  0.68269830  1
  O  O291  1  0.03786280  0.24980868  0.93397986  1
  O  O292  1  0.03646434  0.58236859  0.18307495  1
  O  O293  1  0.03682272  0.58350752  0.43159674  1
  O  O294  1  0.03672414  0.58240422  0.68255439  1
  O  O295  1  0.03635315  0.58287377  0.93146299  1
  O  O296  1  0.03742941  0.91709713  0.18263670  1
  O  O297  1  0.03715064  0.91626336  0.43426567  1
  O  O298  1  0.03633130  0.91590776  0.68151240  1
  O  O299  1  0.03742407  0.91768636  0.93364457  1
  O  O300  1  0.53750649  0.24998566  0.18198160  1
  O  O301  1  0.53742810  0.24933259  0.43191958  1
  O  O302  1  0.53745832  0.25160950  0.68212272  1
  O  O303  1  0.53787670  0.25066263  0.93340907  1
  O  O304  1  0.53731328  0.58317327  0.18257277  1
  O  O305  1  0.53666740  0.58530893  0.43289170  1
  O  O306  1  0.53588363  0.58476625  0.68349534  1
  O  O307  1  0.53609285  0.58267539  0.93189259  1
  O  O308  1  0.53591427  0.91606101  0.18180341  1
  O  O309  1  0.53714283  0.91382776  0.43230628  1
  O  O310  1  0.53702609  0.91443375  0.68249124  1
  O  O311  1  0.53614302  0.91534479  0.93303532  1
  O  O312  1  0.46315030  0.08328588  0.06692982  1
  O  O313  1  0.46237488  0.08326739  0.31596543  1
  O  O314  1  0.46250307  0.08297589  0.56640424  1
  O  O315  1  0.46254026  0.08155166  0.81746121  1
  O  O316  1  0.46304335  0.41692049  0.06583622  1
  O  O317  1  0.46299679  0.41573795  0.31753403  1
  O  O318  1  0.46325885  0.41780748  0.56738284  1
  O  O319  1  0.46372095  0.41785415  0.81835974  1
  O  O320  1  0.46312989  0.75012376  0.06842092  1
  O  O321  1  0.46361972  0.74926014  0.31840044  1
  O  O322  1  0.46375901  0.74971976  0.56841381  1
  O  O323  1  0.46287399  0.75028197  0.81730493  1
  O  O324  1  0.96322482  0.08337928  0.06628913  1
  O  O325  1  0.96329788  0.08363014  0.31919066  1
  O  O326  1  0.96292111  0.08358303  0.56620680  1
  O  O327  1  0.96344402  0.08335804  0.81898805  1
  O  O328  1  0.96338398  0.41829253  0.06729921  1
  O  O329  1  0.96329358  0.41909641  0.31721651  1
  O  O330  1  0.96297935  0.41811774  0.56710755  1
  O  O331  1  0.96357354  0.41890894  0.81699989  1
  O  O332  1  0.96225712  0.74872243  0.06766078  1
  O  O333  1  0.96299681  0.74991427  0.31709610  1
  O  O334  1  0.96307431  0.74951702  0.56706709  1
  O  O335  1  0.96143984  0.74873249  0.81651176  1
  O  O336  1  0.21314165  0.08437206  0.05914989  1
  O  O337  1  0.21262465  0.08412666  0.30779464  1
  O  O338  1  0.21364859  0.08296681  0.55920183  1
  O  O339  1  0.21351824  0.08346153  0.80620268  1
  O  O340  1  0.21304641  0.41726446  0.05764204  1
  O  O341  1  0.21354106  0.41577133  0.30812412  1
  O  O342  1  0.21394520  0.41710819  0.55661479  1
  O  O343  1  0.21331817  0.41859846  0.80745071  1
  O  O344  1  0.21244211  0.74942521  0.05917408  1
  O  O345  1  0.21375175  0.74977453  0.30728217  1
  O  O346  1  0.21300150  0.75078191  0.55801703  1
  O  O347  1  0.21190690  0.75025825  0.80705426  1
  O  O348  1  0.71316178  0.08131710  0.05749407  1
  O  O349  1  0.71282348  0.08148256  0.30692735  1
  O  O350  1  0.71245176  0.08355485  0.55704730  1
  O  O351  1  0.71276072  0.08450774  0.80747784  1
  O  O352  1  0.71344105  0.41741802  0.05627279  1
  O  O353  1  0.71280462  0.41847396  0.30737066  1
  O  O354  1  0.71292693  0.41845349  0.55746926  1
  O  O355  1  0.71343344  0.41766116  0.80777151  1
  O  O356  1  0.71263132  0.74988486  0.05943163  1
  O  O357  1  0.71325760  0.74978473  0.30644096  1
  O  O358  1  0.71282247  0.74888372  0.55861950  1
  O  O359  1  0.71246383  0.74913012  0.80787171  1
  O  O360  1  0.28641511  0.25100569  0.19201791  1
  O  O361  1  0.28735546  0.24984970  0.44231503  1
  O  O362  1  0.28832187  0.24947956  0.69135403  1
  O  O363  1  0.28702940  0.25065928  0.94375621  1
  O  O364  1  0.28724543  0.58316507  0.19245438  1
  O  O365  1  0.28685358  0.58138759  0.44184798  1
  O  O366  1  0.28677625  0.58174476  0.69220375  1
  O  O367  1  0.28666883  0.58397124  0.94258853  1
  O  O368  1  0.28667843  0.91418746  0.19266464  1
  O  O369  1  0.28644676  0.91531123  0.44340391  1
  O  O370  1  0.28675853  0.91679910  0.69110510  1
  O  O371  1  0.28730613  0.91581777  0.94336744  1
  O  O372  1  0.78845748  0.25013154  0.19111848  1
  O  O373  1  0.78714080  0.24921537  0.44211448  1
  O  O374  1  0.78712619  0.25115127  0.69199781  1
  O  O375  1  0.78758685  0.25128339  0.94075048  1
  O  O376  1  0.78625321  0.58239603  0.19179923  1
  O  O377  1  0.78617821  0.58301674  0.44353452  1
  O  O378  1  0.78604798  0.58285835  0.69215971  1
  O  O379  1  0.78632492  0.58256890  0.94338303  1
  O  O380  1  0.78646133  0.91754062  0.19197834  1
  O  O381  1  0.78745603  0.91717502  0.44162185  1
  O  O382  1  0.78735753  0.91787404  0.69297504  1
  O  O383  1  0.78627311  0.91712640  0.94323595  1
  O  O384  1  0.22733846  0.25078330  0.05953794  1
  O  O385  1  0.22816675  0.25193757  0.30837758  1
  O  O386  1  0.22852778  0.24860537  0.55810783  1
  O  O387  1  0.22913787  0.25047595  0.80659010  1
  O  O388  1  0.22803110  0.58492899  0.05850668  1
  O  O389  1  0.22814449  0.58171998  0.30807617  1
  O  O390  1  0.22800940  0.58151963  0.55765153  1
  O  O391  1  0.22743412  0.58142818  0.80777962  1
  O  O392  1  0.22793895  0.91530347  0.05877486  1
  O  O393  1  0.22786437  0.91438472  0.30848110  1
  O  O394  1  0.22710016  0.91616891  0.55939004  1
  O  O395  1  0.22798541  0.91697591  0.80679104  1
  O  O396  1  0.72862747  0.25036595  0.05623624  1
  O  O397  1  0.72898858  0.25011193  0.30601496  1
  O  O398  1  0.72774341  0.24934188  0.55760710  1
  O  O399  1  0.72827501  0.25169530  0.80781466  1
  O  O400  1  0.72687174  0.58237927  0.05909624  1
  O  O401  1  0.72758262  0.58165737  0.30782877  1
  O  O402  1  0.72699283  0.58365639  0.55955290  1
  O  O403  1  0.72727384  0.58163132  0.80822192  1
  O  O404  1  0.72687451  0.91660304  0.05909543  1
  O  O405  1  0.72782645  0.91830950  0.30807773  1
  O  O406  1  0.72849216  0.91668767  0.55706420  1
  O  O407  1  0.72789684  0.91845822  0.80818984  1
  O  O408  1  0.27204733  0.08441507  0.19251687  1
  O  O409  1  0.27195378  0.08291581  0.44311494  1
  O  O410  1  0.27277904  0.08335234  0.69038739  1
  O  O411  1  0.27229950  0.08357218  0.94380924  1
  O  O412  1  0.27196497  0.41526718  0.19188118  1
  O  O413  1  0.27310675  0.41638333  0.44055591  1
  O  O414  1  0.27232539  0.41823025  0.69178837  1
  O  O415  1  0.27244982  0.41879680  0.94215279  1
  O  O416  1  0.27283336  0.74925658  0.19119729  1
  O  O417  1  0.27223616  0.75064144  0.44245332  1
  O  O418  1  0.27157387  0.75089809  0.69185028  1
  O  O419  1  0.27110545  0.74949939  0.94343011  1
  O  O420  1  0.77193052  0.08135304  0.19136084  1
  O  O421  1  0.77190137  0.08164299  0.44159159  1
  O  O422  1  0.77179056  0.08561526  0.69183999  1
  O  O423  1  0.77223147  0.08193865  0.94181215  1
  O  O424  1  0.77185511  0.41873512  0.19176667  1
  O  O425  1  0.77193885  0.41898594  0.44165284  1
  O  O426  1  0.77211577  0.41843489  0.69164457  1
  O  O427  1  0.77291924  0.41788963  0.94041254  1
  O  O428  1  0.77294347  0.75023179  0.19080428  1
  O  O429  1  0.77149115  0.74958872  0.44298750  1
  O  O430  1  0.77207096  0.74844649  0.69250746  1
  O  O431  1  0.77117036  0.74974885  0.94358575  1
  O  O432  1  0.02193581  0.08358195  0.18194032  1
  O  O433  1  0.02281319  0.08417386  0.43489214  1
  O  O434  1  0.02191414  0.08332731  0.68165377  1
  O  O435  1  0.02306161  0.08358328  0.93462140  1
  O  O436  1  0.02240777  0.41859562  0.18305324  1
  O  O437  1  0.02204362  0.41879249  0.43307492  1
  O  O438  1  0.02244024  0.41842755  0.68258003  1
  O  O439  1  0.02229942  0.41898247  0.93295644  1
  O  O440  1  0.02197577  0.74813582  0.18292691  1
  O  O441  1  0.02178948  0.75127685  0.43285178  1
  O  O442  1  0.02175944  0.74811480  0.68308081  1
  O  O443  1  0.02061067  0.74954585  0.93169883  1
  O  O444  1  0.52200789  0.08404388  0.18284279  1
  O  O445  1  0.52138526  0.08251376  0.43131368  1
  O  O446  1  0.52185562  0.08252582  0.68154290  1
  O  O447  1  0.52196429  0.08155172  0.93266460  1
  O  O448  1  0.52177546  0.41712347  0.18152043  1
  O  O449  1  0.52240203  0.41574708  0.43300102  1
  O  O450  1  0.52230691  0.41894555  0.68306902  1
  O  O451  1  0.52296092  0.41675450  0.93432776  1
  O  O452  1  0.52294853  0.74932365  0.18406454  1
  O  O453  1  0.52244416  0.74945357  0.43466101  1
  O  O454  1  0.52232366  0.74955670  0.68506579  1
  O  O455  1  0.52135146  0.75111013  0.93351250  1
  O  O456  1  0.47844255  0.25126218  0.06630959  1
  O  O457  1  0.47828901  0.24805906  0.31625981  1
  O  O458  1  0.47827156  0.25205354  0.56663334  1
  O  O459  1  0.47873110  0.25027189  0.81819900  1
  O  O460  1  0.47782635  0.58231030  0.06707514  1
  O  O461  1  0.47786102  0.58546326  0.31702813  1
  O  O462  1  0.47755695  0.58491269  0.56704787  1
  O  O463  1  0.47680181  0.58389273  0.81598642  1
  O  O464  1  0.47647578  0.91537412  0.06585407  1
  O  O465  1  0.47774921  0.91442525  0.31692467  1
  O  O466  1  0.47790056  0.91415430  0.56674863  1
  O  O467  1  0.47792060  0.91396993  0.81673114  1
  O  O468  1  0.97821765  0.24954255  0.06704304  1
  O  O469  1  0.97845136  0.25070339  0.31867253  1
  O  O470  1  0.97820898  0.24957339  0.56758760  1
  O  O471  1  0.97894431  0.25060093  0.81856870  1
  O  O472  1  0.97772441  0.58125496  0.06708994  1
  O  O473  1  0.97737906  0.58411430  0.31581883  1
  O  O474  1  0.97791084  0.58210722  0.56670598  1
  O  O475  1  0.97719789  0.58373311  0.81535969  1
  O  O476  1  0.97766068  0.91782680  0.06741526  1
  O  O477  1  0.97849386  0.91644770  0.31857362  1
  O  O478  1  0.97682357  0.91562228  0.56568876  1
  O  O479  1  0.97826465  0.91656340  0.81852891  1
  O  O480  1  0.07354631  0.31335490  0.07489983  1
  O  O481  1  0.07393139  0.31381798  0.32621934  1
  O  O482  1  0.07375361  0.31321747  0.57477697  1
  O  O483  1  0.07434907  0.31391626  0.82615681  1
  O  O484  1  0.07262011  0.64578208  0.07488088  1
  O  O485  1  0.07251981  0.64746984  0.32349856  1
  O  O486  1  0.07345869  0.64561818  0.57447032  1
  O  O487  1  0.07205784  0.64732328  0.82352954  1
  O  O488  1  0.07311284  0.98075486  0.07423194  1
  O  O489  1  0.07375819  0.98030622  0.32630294  1
  O  O490  1  0.07141193  0.97978379  0.57334125  1
  O  O491  1  0.07385979  0.98022693  0.82476298  1
  O  O492  1  0.57357675  0.31439591  0.07384721  1
  O  O493  1  0.57369822  0.31223467  0.32390504  1
  O  O494  1  0.57336271  0.31538186  0.57369169  1
  O  O495  1  0.57440393  0.31362611  0.82507390  1
  O  O496  1  0.57308354  0.64631231  0.07435746  1
  O  O497  1  0.57345260  0.64803702  0.32401232  1
  O  O498  1  0.57230607  0.64874282  0.57519601  1
  O  O499  1  0.57201049  0.64723504  0.82431013  1
  O  O500  1  0.57066913  0.98005914  0.07324354  1
  O  O501  1  0.57324476  0.97782051  0.32456843  1
  O  O502  1  0.57304194  0.97815686  0.57453142  1
  O  O503  1  0.57293354  0.97832853  0.82473430  1
  O  O504  1  0.42627117  0.02068805  0.17495969  1
  O  O505  1  0.42603754  0.01901451  0.42372995  1
  O  O506  1  0.42614166  0.01947208  0.67421878  1
  O  O507  1  0.42707291  0.01770836  0.92609525  1
  O  O508  1  0.42651963  0.35336213  0.17414350  1
  O  O509  1  0.42776922  0.35170031  0.42600592  1
  O  O510  1  0.42694253  0.35493737  0.67564810  1
  O  O511  1  0.42791681  0.35329854  0.92617769  1
  O  O512  1  0.42786256  0.68596900  0.17663991  1
  O  O513  1  0.42732245  0.68582596  0.42689020  1
  O  O514  1  0.42705612  0.68635420  0.67660750  1
  O  O515  1  0.42629351  0.68695515  0.92527994  1
  O  O516  1  0.92661792  0.01999670  0.17488006  1
  O  O517  1  0.92830471  0.01982361  0.42738771  1
  O  O518  1  0.92629294  0.02006889  0.67449448  1
  O  O519  1  0.92796880  0.01995340  0.92733314  1
  O  O520  1  0.92738318  0.35433798  0.17498387  1
  O  O521  1  0.92652012  0.35537564  0.42479054  1
  O  O522  1  0.92740535  0.35418100  0.67503418  1
  O  O523  1  0.92717435  0.35507078  0.92462690  1
  O  O524  1  0.92666806  0.68508599  0.17610506  1
  O  O525  1  0.92642851  0.68721030  0.42520712  1
  O  O526  1  0.92668709  0.68515255  0.67506421  1
  O  O527  1  0.92500797  0.68602291  0.92512852  1
  O  O528  1  0.17636828  0.02097586  0.20013092  1
  O  O529  1  0.17673676  0.01939238  0.45108537  1
  O  O530  1  0.17751077  0.01992385  0.69804159  1
  O  O531  1  0.17688228  0.02028752  0.95115363  1
  O  O532  1  0.17675241  0.35229998  0.19949908  1
  O  O533  1  0.17831460  0.35244522  0.44902599  1
  O  O534  1  0.17701606  0.35450462  0.69987268  1
  O  O535  1  0.17719982  0.35455813  0.94912487  1
  O  O536  1  0.17798550  0.68547475  0.19942382  1
  O  O537  1  0.17672309  0.68726278  0.45017967  1
  O  O538  1  0.17639121  0.68680890  0.69905968  1
  O  O539  1  0.17535508  0.68657740  0.95056736  1
  O  O540  1  0.67623233  0.01848870  0.19832722  1
  O  O541  1  0.67675339  0.01847370  0.44918096  1
  O  O542  1  0.67625608  0.02165288  0.69944633  1
  O  O543  1  0.67723387  0.01815660  0.94866750  1
  O  O544  1  0.67699890  0.35418618  0.19968362  1
  O  O545  1  0.67706064  0.35457781  0.44957984  1
  O  O546  1  0.67671428  0.35477348  0.69948378  1
  O  O547  1  0.67868231  0.35309802  0.94789457  1
  O  O548  1  0.67840064  0.68585637  0.19821157  1
  O  O549  1  0.67602070  0.68611010  0.45016419  1
  O  O550  1  0.67691311  0.68523165  0.69952994  1
  O  O551  1  0.67570210  0.68639432  0.95132886  1
  O  O552  1  0.32234909  0.31447046  0.05176638  1
  O  O553  1  0.32361047  0.31443501  0.30052782  1
  O  O554  1  0.32376084  0.31272549  0.55035748  1
  O  O555  1  0.32462867  0.31361413  0.79925201  1
  O  O556  1  0.32318367  0.64802417  0.05085043  1
  O  O557  1  0.32352447  0.64556777  0.30098804  1
  O  O558  1  0.32318924  0.64525319  0.54949282  1
  O  O559  1  0.32220897  0.64618663  0.79976483  1
  O  O560  1  0.32352469  0.97877467  0.05142188  1
  O  O561  1  0.32297534  0.97840926  0.29997557  1
  O  O562  1  0.32227350  0.97948776  0.55133094  1
  O  O563  1  0.32367323  0.97998759  0.79954773  1
  O  O564  1  0.82409714  0.31407276  0.04917411  1
  O  O565  1  0.82439798  0.31362957  0.29940267  1
  O  O566  1  0.82331484  0.31294521  0.54952359  1
  O  O567  1  0.82302828  0.31556974  0.80020282  1
  O  O568  1  0.82130130  0.64682368  0.05175973  1
  O  O569  1  0.82245679  0.64623261  0.29968474  1
  O  O570  1  0.82205392  0.64718467  0.55150453  1
  O  O571  1  0.82213901  0.64615326  0.80046572  1
  O  O572  1  0.82214189  0.98029773  0.05160292  1
  O  O573  1  0.82321374  0.98115366  0.30057730  1
  O  O574  1  0.82393036  0.98027146  0.54991165  1
  O  O575  1  0.82320649  0.98169751  0.80127402  1
  O  O576  1  0.42748805  0.14790776  0.17501917  1
  O  O577  1  0.42583242  0.14595929  0.42448141  1
  O  O578  1  0.42690740  0.14662822  0.67459106  1
  O  O579  1  0.42633703  0.14492923  0.92522829  1
  O  O580  1  0.42616907  0.48004213  0.17431802  1
  O  O581  1  0.42689198  0.47907667  0.42513615  1
  O  O582  1  0.42724011  0.48195229  0.67572408  1
  O  O583  1  0.42809809  0.48082735  0.92687183  1
  O  O584  1  0.42811416  0.81328440  0.17725547  1
  O  O585  1  0.42748312  0.81291566  0.42684244  1
  O  O586  1  0.42777229  0.81355177  0.67662790  1
  O  O587  1  0.42612757  0.81387825  0.92583056  1
  O  O588  1  0.92638570  0.14673555  0.17453645  1
  O  O589  1  0.92752673  0.14747274  0.42708417  1
  O  O590  1  0.92659985  0.14684267  0.67483731  1
  O  O591  1  0.92822384  0.14759331  0.92683372  1
  O  O592  1  0.92699502  0.48140307  0.17602966  1
  O  O593  1  0.92710569  0.48247136  0.42581801  1
  O  O594  1  0.92701660  0.48129261  0.67589392  1
  O  O595  1  0.92708883  0.48215288  0.92555527  1
  O  O596  1  0.92691262  0.81240204  0.17541685  1
  O  O597  1  0.92659496  0.81425011  0.42521038  1
  O  O598  1  0.92657030  0.81232819  0.67518981  1
  O  O599  1  0.92527341  0.81286303  0.92457241  1
  O  O600  1  0.07317726  0.18609628  0.07429624  1
  O  O601  1  0.07381492  0.18690257  0.32581458  1
  O  O602  1  0.07317297  0.18593875  0.57417449  1
  O  O603  1  0.07434542  0.18694161  0.82545243  1
  O  O604  1  0.07327901  0.51887812  0.07448360  1
  O  O605  1  0.07227489  0.52004481  0.32321322  1
  O  O606  1  0.07292378  0.51879971  0.57370841  1
  O  O607  1  0.07220871  0.51993010  0.82298682  1
  O  O608  1  0.07261554  0.85338029  0.07480757  1
  O  O609  1  0.07412228  0.85357549  0.32554898  1
  O  O610  1  0.07187257  0.85213239  0.57356123  1
  O  O611  1  0.07367760  0.85337656  0.82580897  1
  O  O612  1  0.57378286  0.18720138  0.07397551  1
  O  O613  1  0.57329461  0.18501332  0.32354039  1
  O  O614  1  0.57344935  0.18801459  0.57435858  1
  O  O615  1  0.57390289  0.18661591  0.82545820  1
  O  O616  1  0.57284386  0.51927010  0.07387422  1
  O  O617  1  0.57256143  0.52090636  0.32549569  1
  O  O618  1  0.57305409  0.52187492  0.57545335  1
  O  O619  1  0.57156841  0.51986068  0.82306861  1
  O  O620  1  0.57193276  0.85257252  0.07373096  1
  O  O621  1  0.57278558  0.85081785  0.32318975  1
  O  O622  1  0.57317763  0.85099096  0.57412134  1
  O  O623  1  0.57329442  0.85140404  0.82494180  1
  O  O624  1  0.32207167  0.18681283  0.05208929  1
  O  O625  1  0.32302380  0.18746283  0.29982322  1
  O  O626  1  0.32367578  0.18556751  0.55033367  1
  O  O627  1  0.32450028  0.18671518  0.80008011  1
  O  O628  1  0.32334373  0.52104231  0.05051016  1
  O  O629  1  0.32324295  0.51847202  0.30024298  1
  O  O630  1  0.32318597  0.51813815  0.55049388  1
  O  O631  1  0.32310409  0.51910962  0.80139996  1
  O  O632  1  0.32274172  0.85158345  0.05163707  1
  O  O633  1  0.32302748  0.85117942  0.30149411  1
  O  O634  1  0.32193544  0.85209384  0.55196152  1
  O  O635  1  0.32311466  0.85318242  0.79941930  1
  O  O636  1  0.82389469  0.18708308  0.04843222  1
  O  O637  1  0.82443628  0.18656683  0.29915682  1
  O  O638  1  0.82244973  0.18564411  0.55095746  1
  O  O639  1  0.82395179  0.18844379  0.80006373  1
  O  O640  1  0.82240119  0.51947319  0.05167333  1
  O  O641  1  0.82307330  0.51932011  0.30065107  1
  O  O642  1  0.82190820  0.51979661  0.55197206  1
  O  O643  1  0.82277167  0.51928858  0.80062273  1
  O  O644  1  0.82171760  0.85296779  0.05140599  1
  O  O645  1  0.82291586  0.85409910  0.29983362  1
  O  O646  1  0.82380204  0.85339371  0.54963570  1
  O  O647  1  0.82303815  0.85432473  0.80088720  1
  O  O648  1  0.17733452  0.14835566  0.19948665  1
  O  O649  1  0.17653618  0.14613938  0.45105880  1
  O  O650  1  0.17805301  0.14749768  0.69820124  1
  O  O651  1  0.17696162  0.14719278  0.95047407  1
  O  O652  1  0.17690205  0.47922096  0.20027956  1
  O  O653  1  0.17796055  0.47989848  0.44791746  1
  O  O654  1  0.17709156  0.48149701  0.69840017  1
  O  O655  1  0.17727289  0.48172021  0.94959563  1
  O  O656  1  0.17772547  0.81293535  0.19888274  1
  O  O657  1  0.17730512  0.81432706  0.44925015  1
  O  O658  1  0.17627179  0.81406917  0.69872004  1
  O  O659  1  0.17592889  0.81326301  0.95100244  1
  O  O660  1  0.67705760  0.14562140  0.19914229  1
  O  O661  1  0.67649286  0.14562424  0.44824955  1
  O  O662  1  0.67692075  0.14885907  0.69913774  1
  O  O663  1  0.67683923  0.14533773  0.95010344  1
  O  O664  1  0.67618749  0.48124438  0.19848393  1
  O  O665  1  0.67649570  0.48181019  0.44909872  1
  O  O666  1  0.67708003  0.48161950  0.69938747  1
  O  O667  1  0.67730765  0.48052227  0.94798864  1
  O  O668  1  0.67773154  0.81342046  0.19840907  1
  O  O669  1  0.67624130  0.81287314  0.45074048  1
  O  O670  1  0.67701896  0.81262529  0.70003999  1
  O  O671  1  0.67589146  0.81311249  0.95099296  1
