# generated using pymatgen
data_Na2MnFe(PO4)2
_symmetry_space_group_name_H-M   'P 1'
_cell_length_a   22.34320762
_cell_length_b   20.09333681
_cell_length_c   19.45074086
_cell_angle_alpha   90.01637995
_cell_angle_beta   90.00039499
_cell_angle_gamma   89.98557957
_symmetry_Int_Tables_number   1
_chemical_formula_structural   Na2MnFe(PO4)2
_chemical_formula_sum   'Na96 Mn48 Fe48 P96 O384'
_cell_volume   8732.40161901
_cell_formula_units_Z   48
loop_
 _symmetry_equiv_pos_site_id
 _symmetry_equiv_pos_as_xyz
  1  'x, y, z'
loop_
 _atom_site_type_symbol
 _atom_site_label
 _atom_site_symmetry_multiplicity
 _atom_site_fract_x
 _atom_site_fract_y
 _atom_site_fract_z
 _atom_site_occupancy
  Na  Na0  1  0.14086347  0.25071502  0.24388024  1
  Na  Na1  1  0.14054766  0.25221856  0.49399380  1
  Na  Na2  1  0.14040179  0.25061630  0.74289574  1
  Na  Na3  1  0.14117263  0.24843551  0.99355309  1
  Na  Na4  1  0.13995648  0.58380758  0.24225345  1
  Na  Na5  1  0.13972565  0.58402728  0.49335276  1
  Na  Na6  1  0.14028533  0.58446906  0.74238795  1
  Na  Na7  1  0.13983949  0.58341622  0.99281790  1
  Na  Na8  1  0.14035067  0.91565460  0.24322324  1
  Na  Na9  1  0.13963842  0.91627375  0.49435887  1
  Na  Na10  1  0.14085335  0.91542618  0.74310809  1
  Na  Na11  1  0.14104322  0.91468524  0.99301218  1
  Na  Na12  1  0.64090951  0.24791618  0.24395175  1
  Na  Na13  1  0.64044042  0.24997124  0.49420241  1
  Na  Na14  1  0.64002795  0.24997289  0.74480531  1
  Na  Na15  1  0.64075117  0.24898823  0.99375863  1
  Na  Na16  1  0.64024814  0.58109881  0.24321011  1
  Na  Na17  1  0.63988776  0.58322545  0.49416817  1
  Na  Na18  1  0.64001352  0.58450869  0.74527807  1
  Na  Na19  1  0.63997234  0.58282767  0.99336768  1
  Na  Na20  1  0.63989247  0.91674396  0.24337195  1
  Na  Na21  1  0.64008454  0.91868139  0.49370234  1
  Na  Na22  1  0.64071223  0.91875972  0.74452047  1
  Na  Na23  1  0.64066613  0.91786899  0.99396157  1
  Na  Na24  1  0.35986604  0.08165665  0.00695168  1
  Na  Na25  1  0.36045517  0.08315839  0.25602076  1
  Na  Na26  1  0.35972224  0.08281290  0.50669730  1
  Na  Na27  1  0.35906405  0.08253478  0.75701278  1
  Na  Na28  1  0.35918721  0.41654232  0.00648416  1
  Na  Na29  1  0.35970694  0.41728159  0.25518984  1
  Na  Na30  1  0.35900435  0.41807102  0.50659287  1
  Na  Na31  1  0.35907725  0.41738625  0.75632625  1
  Na  Na32  1  0.35910997  0.74830818  0.00636445  1
  Na  Na33  1  0.35950418  0.74931641  0.25531120  1
  Na  Na34  1  0.35899358  0.75010170  0.50737444  1
  Na  Na35  1  0.35914981  0.75016094  0.75685049  1
  Na  Na36  1  0.85977972  0.08436539  0.00505375  1
  Na  Na37  1  0.85993102  0.08245659  0.25594092  1
  Na  Na38  1  0.85992139  0.08375468  0.50674964  1
  Na  Na39  1  0.85964131  0.08520461  0.75617723  1
  Na  Na40  1  0.85996447  0.41682681  0.00585632  1
  Na  Na41  1  0.85997688  0.41567618  0.25657326  1
  Na  Na42  1  0.86008103  0.41680899  0.50617901  1
  Na  Na43  1  0.85953185  0.41683922  0.75627197  1
  Na  Na44  1  0.86032480  0.74972063  0.00603557  1
  Na  Na45  1  0.86023265  0.74899396  0.25716260  1
  Na  Na46  1  0.86007037  0.75104105  0.50696381  1
  Na  Na47  1  0.86024650  0.75111692  0.75650650  1
  Na  Na48  1  0.11025189  0.08324576  0.11839585  1
  Na  Na49  1  0.10968652  0.08171166  0.36938918  1
  Na  Na50  1  0.10933110  0.08323350  0.61872104  1
  Na  Na51  1  0.11016313  0.08213079  0.86794943  1
  Na  Na52  1  0.10973430  0.41859306  0.11840062  1
  Na  Na53  1  0.10981597  0.41840119  0.36896602  1
  Na  Na54  1  0.10967645  0.41802672  0.61686714  1
  Na  Na55  1  0.10971652  0.41753097  0.86755229  1
  Na  Na56  1  0.11004605  0.74886701  0.11809040  1
  Na  Na57  1  0.10912526  0.74866737  0.36903244  1
  Na  Na58  1  0.10962670  0.74994088  0.61805522  1
  Na  Na59  1  0.11022565  0.74942045  0.86774065  1
  Na  Na60  1  0.60999357  0.08298177  0.11861210  1
  Na  Na61  1  0.60958419  0.08208677  0.36889821  1
  Na  Na62  1  0.60992822  0.08359916  0.61888637  1
  Na  Na63  1  0.61022791  0.08436940  0.86882385  1
  Na  Na64  1  0.60963650  0.41638294  0.11843970  1
  Na  Na65  1  0.60969082  0.41559584  0.36812512  1
  Na  Na66  1  0.60932164  0.41631796  0.61994582  1
  Na  Na67  1  0.60911483  0.41740704  0.86952419  1
  Na  Na68  1  0.60916869  0.75050960  0.11858486  1
  Na  Na69  1  0.60874165  0.74986804  0.36884857  1
  Na  Na70  1  0.60929240  0.75019009  0.61977697  1
  Na  Na71  1  0.60970720  0.74987771  0.86964170  1
  Na  Na72  1  0.39063859  0.24899182  0.13137477  1
  Na  Na73  1  0.39068108  0.24867108  0.38069093  1
  Na  Na74  1  0.39007191  0.25028187  0.63162932  1
  Na  Na75  1  0.38989900  0.25054112  0.88226896  1
  Na  Na76  1  0.38960021  0.58367699  0.13108335  1
  Na  Na77  1  0.38965426  0.58227863  0.38042681  1
  Na  Na78  1  0.38956287  0.58285153  0.63240973  1
  Na  Na79  1  0.38979415  0.58410456  0.88162094  1
  Na  Na80  1  0.39068779  0.91721686  0.13100552  1
  Na  Na81  1  0.39027139  0.91633824  0.38031608  1
  Na  Na82  1  0.38956302  0.91628977  0.63208760  1
  Na  Na83  1  0.38978258  0.91642799  0.88240728  1
  Na  Na84  1  0.89077801  0.25119773  0.13100679  1
  Na  Na85  1  0.89094961  0.24939905  0.38193626  1
  Na  Na86  1  0.89033199  0.25068076  0.63105606  1
  Na  Na87  1  0.89023066  0.25062956  0.88146133  1
  Na  Na88  1  0.89085716  0.58398685  0.13093564  1
  Na  Na89  1  0.89073298  0.58301753  0.38144795  1
  Na  Na90  1  0.89043485  0.58441128  0.63043375  1
  Na  Na91  1  0.89091884  0.58437980  0.88087601  1
  Na  Na92  1  0.89067253  0.91609684  0.13102983  1
  Na  Na93  1  0.89107013  0.91535831  0.38137157  1
  Na  Na94  1  0.89060802  0.91774693  0.63155123  1
  Na  Na95  1  0.89070417  0.91634890  0.88063937  1
  Mn  Mn96  1  0.25011273  0.33270150  0.12494752  1
  Mn  Mn97  1  0.74995962  0.66568902  0.12594881  1
  Mn  Mn98  1  0.00103209  0.33483341  0.25043493  1
  Mn  Mn99  1  0.49936797  0.33236764  0.49915997  1
  Mn  Mn100  1  0.49994300  0.33277589  0.24949163  1
  Mn  Mn101  1  0.75077289  0.49803338  0.12409742  1
  Mn  Mn102  1  0.00057478  0.83181677  0.00029887  1
  Mn  Mn103  1  0.75008128  0.49994822  0.87537428  1
  Mn  Mn104  1  -0.00031409  0.50154197  0.74857182  1
  Mn  Mn105  1  0.24967445  0.49990759  0.87430514  1
  Mn  Mn106  1  0.49968459  0.00035339  0.75095224  1
  Mn  Mn107  1  0.00055137  0.16676393  0.49979784  1
  Mn  Mn108  1  0.75038562  0.83453949  0.87525356  1
  Mn  Mn109  1  0.00027240  -0.00156949  0.24993656  1
  Mn  Mn110  1  0.74931969  0.33302672  0.62517526  1
  Mn  Mn111  1  0.00017251  -0.00016508  0.74959075  1
  Mn  Mn112  1  0.49992659  0.50034149  0.75049200  1
  Mn  Mn113  1  0.24997528  -0.00004554  0.37486916  1
  Mn  Mn114  1  0.50013202  0.16510671  0.50059378  1
  Mn  Mn115  1  0.49982857  0.49902013  0.50076696  1
  Mn  Mn116  1  0.74990190  0.83382819  0.37530702  1
  Mn  Mn117  1  0.00042592  0.16690031  0.00002926  1
  Mn  Mn118  1  0.49913956  0.83379002  0.49975258  1
  Mn  Mn119  1  0.00056426  0.16646188  0.25058781  1
  Mn  Mn120  1  0.75067516  0.00081027  0.37486191  1
  Mn  Mn121  1  0.75010812  0.66776796  0.62491512  1
  Mn  Mn122  1  0.75004820  0.83354267  0.12476710  1
  Mn  Mn123  1  0.00059557  -0.00080076  -0.00058619  1
  Mn  Mn124  1  0.25068961  0.33526927  0.37383275  1
  Mn  Mn125  1  0.49919938  0.66597766  0.49952847  1
  Mn  Mn126  1  0.49994443  0.66628855  0.24971245  1
  Mn  Mn127  1  0.49990382  0.33364764  0.00085042  1
  Mn  Mn128  1  0.74919987  0.66582434  0.37571261  1
  Mn  Mn129  1  0.24970998  0.66585501  0.37524247  1
  Mn  Mn130  1  0.25002808  -0.00078964  0.12465167  1
  Mn  Mn131  1  0.74966709  0.50062569  0.62609500  1
  Mn  Mn132  1  0.50013726  0.83372365  0.00024041  1
  Mn  Mn133  1  0.24992856  0.16700575  0.62561900  1
  Mn  Mn134  1  0.25013323  0.16577614  0.87436406  1
  Mn  Mn135  1  -0.00049350  0.33397637  0.74981267  1
  Mn  Mn136  1  0.00122270  0.33492510  0.00020453  1
  Mn  Mn137  1  0.24968005  0.83296019  0.37510977  1
  Mn  Mn138  1  0.24967604  0.16751146  0.37598967  1
  Mn  Mn139  1  0.49895214  0.16750482  0.75011613  1
  Mn  Mn140  1  0.50039591  0.83278743  0.75116773  1
  Mn  Mn141  1  0.75046305  0.33251807  0.37562728  1
  Mn  Mn142  1  0.74897117  0.83540261  0.62628770  1
  Mn  Mn143  1  0.75090527  0.16620958  0.12430303  1
  Fe  Fe144  1  0.75006032  0.00176222  0.62477341  1
  Fe  Fe145  1  0.24963968  0.66674509  0.87429253  1
  Fe  Fe146  1  0.00016321  0.66651854  0.25006051  1
  Fe  Fe147  1  0.75034215  0.16714020  0.62565613  1
  Fe  Fe148  1  0.50045030  0.16548830  0.25014130  1
  Fe  Fe149  1  0.75058427  0.00122640  0.87450976  1
  Fe  Fe150  1  0.00003018  0.50146022  -0.00072391  1
  Fe  Fe151  1  0.49954581  0.33375164  0.75122457  1
  Fe  Fe152  1  0.24963065  0.50089236  0.62517786  1
  Fe  Fe153  1  0.00012881  0.50078104  0.49933295  1
  Fe  Fe154  1  0.75016656  0.66726653  0.87534087  1
  Fe  Fe155  1  0.49943462  0.50084667  -0.00050823  1
  Fe  Fe156  1  0.74983483  0.49897255  0.37502519  1
  Fe  Fe157  1  0.49923985  -0.00087190  0.49961195  1
  Fe  Fe158  1  0.25055548  0.16580871  0.12464056  1
  Fe  Fe159  1  0.00017255  0.83301330  0.74924066  1
  Fe  Fe160  1  0.25041808  0.83219878  0.12370885  1
  Fe  Fe161  1  0.00025290  0.66725826  0.74920295  1
  Fe  Fe162  1  0.24931696  0.49969336  0.12412836  1
  Fe  Fe163  1  0.50072677  0.00059315  0.00106928  1
  Fe  Fe164  1  0.00044767  0.16740600  0.74942667  1
  Fe  Fe165  1  0.49968093  0.66698973  0.00079423  1
  Fe  Fe166  1  0.24981460  0.33443096  0.62444597  1
  Fe  Fe167  1  0.50003328  -0.00006434  0.24989985  1
  Fe  Fe168  1  0.75012017  0.16629606  0.37482413  1
  Fe  Fe169  1  0.49969726  0.49998844  0.24935505  1
  Fe  Fe170  1  -0.00014217  0.66684161  -0.00027252  1
  Fe  Fe171  1  0.24959178  0.66607079  0.12421476  1
  Fe  Fe172  1  -0.00042057  0.66692627  0.49918669  1
  Fe  Fe173  1  -0.00002079  0.83259314  0.49984195  1
  Fe  Fe174  1  0.00083386  0.83199947  0.25038374  1
  Fe  Fe175  1  0.74994270  0.16690566  0.87481634  1
  Fe  Fe176  1  0.24935416  -0.00036030  0.62586305  1
  Fe  Fe177  1  0.75025755  0.33214596  0.12538618  1
  Fe  Fe178  1  0.24986228  -0.00127003  0.87545218  1
  Fe  Fe179  1  -0.00040912  0.50102472  0.24997268  1
  Fe  Fe180  1  0.75057288  0.00018618  0.12467236  1
  Fe  Fe181  1  0.24993199  0.83364587  0.62599044  1
  Fe  Fe182  1  0.24969885  0.33324609  0.87461189  1
  Fe  Fe183  1  -0.00031022  -0.00058453  0.50022720  1
  Fe  Fe184  1  0.00032274  0.33385585  0.50005099  1
  Fe  Fe185  1  0.49940035  0.83370560  0.24954420  1
  Fe  Fe186  1  0.24969605  0.50081619  0.37510524  1
  Fe  Fe187  1  0.49968061  0.66654214  0.75064866  1
  Fe  Fe188  1  0.50013173  0.16655284  0.00077402  1
  Fe  Fe189  1  0.24994105  0.83250503  0.87435997  1
  Fe  Fe190  1  0.74984398  0.33311387  0.87528569  1
  Fe  Fe191  1  0.24991368  0.66708890  0.62495549  1
  P  P192  1  0.04357696  0.25089824  0.10326780  1
  P  P193  1  0.04323203  0.25061010  0.35387717  1
  P  P194  1  0.04224983  0.25138365  0.60265707  1
  P  P195  1  0.04257743  0.24949209  0.85209257  1
  P  P196  1  0.04137040  0.58398236  0.10170677  1
  P  P197  1  0.04144849  0.58365822  0.35194305  1
  P  P198  1  0.04108747  0.58462246  0.60093991  1
  P  P199  1  0.04238475  0.58509256  0.85210315  1
  P  P200  1  0.04341239  0.91542443  0.10325877  1
  P  P201  1  0.04253678  0.91383963  0.35324952  1
  P  P202  1  0.04088031  0.91602052  0.60182906  1
  P  P203  1  0.04262825  0.91458420  0.85165088  1
  P  P204  1  0.54235393  0.24831178  0.10314543  1
  P  P205  1  0.54237871  0.24781669  0.35212938  1
  P  P206  1  0.54247929  0.25012049  0.60356766  1
  P  P207  1  0.54155048  0.25117739  0.85352899  1
  P  P208  1  0.54119669  0.58307015  0.10187264  1
  P  P209  1  0.54212468  0.58158625  0.35214996  1
  P  P210  1  0.54233683  0.58345834  0.60397486  1
  P  P211  1  0.54173719  0.58496142  0.85379959  1
  P  P212  1  0.54220917  0.91809123  0.10349047  1
  P  P213  1  0.54115792  0.91666133  0.35158708  1
  P  P214  1  0.54189398  0.91769893  0.60262683  1
  P  P215  1  0.54287721  0.91720484  0.85434750  1
  P  P216  1  0.45905498  0.08310602  0.14781844  1
  P  P217  1  0.45764844  0.08118820  0.39682080  1
  P  P218  1  0.45652953  0.08287516  0.64707843  1
  P  P219  1  0.45854799  0.08360005  0.89929439  1
  P  P220  1  0.45796016  0.41807842  0.14678914  1
  P  P221  1  0.45688495  0.41647571  0.39604342  1
  P  P222  1  0.45736986  0.41527526  0.64829672  1
  P  P223  1  0.45734649  0.41797636  0.89774583  1
  P  P224  1  0.45791922  0.75095352  0.14712222  1
  P  P225  1  0.45634184  0.75003761  0.39623789  1
  P  P226  1  0.45733326  0.74888212  0.64826064  1
  P  P227  1  0.45778327  0.74861739  0.89790626  1
  P  P228  1  0.95772402  0.08301206  0.14694374  1
  P  P229  1  0.95803693  0.08140179  0.39778288  1
  P  P230  1  0.95809973  0.08485340  0.64729157  1
  P  P231  1  0.95809742  0.08340406  0.89599191  1
  P  P232  1  0.95818474  0.41917325  0.14725411  1
  P  P233  1  0.95889822  0.41724154  0.39815206  1
  P  P234  1  0.95722711  0.41736564  0.64552211  1
  P  P235  1  0.95806949  0.41875076  0.89735602  1
  P  P236  1  0.95870441  0.74927569  0.14847999  1
  P  P237  1  0.95825162  0.74964989  0.39769507  1
  P  P238  1  0.95865668  0.75025717  0.64733196  1
  P  P239  1  0.95813475  0.74860979  0.89655527  1
  P  P240  1  0.20786053  0.08433943  0.22734835  1
  P  P241  1  0.20735615  0.08300635  0.47916904  1
  P  P242  1  0.20763725  0.08170769  0.72815961  1
  P  P243  1  0.20806070  0.08135380  0.97744964  1
  P  P244  1  0.20776634  0.41838994  0.22714180  1
  P  P245  1  0.20793107  0.41870021  0.47797451  1
  P  P246  1  0.20818158  0.41703912  0.72626181  1
  P  P247  1  0.20775190  0.41531283  0.97711478  1
  P  P248  1  0.20883226  0.74961418  0.22576084  1
  P  P249  1  0.20733496  0.74978347  0.47903043  1
  P  P250  1  0.20872124  0.75003948  0.72701083  1
  P  P251  1  0.20880635  0.74954456  0.97655790  1
  P  P252  1  0.70816873  0.08228678  0.22721311  1
  P  P253  1  0.70804653  0.08506159  0.47812573  1
  P  P254  1  0.70853227  0.08425788  0.72738850  1
  P  P255  1  0.70894387  0.08331846  0.97661630  1
  P  P256  1  0.70798025  0.41436764  0.22767999  1
  P  P257  1  0.70735986  0.41743261  0.47766017  1
  P  P258  1  0.70707573  0.41635398  0.72926788  1
  P  P259  1  0.70774898  0.41459783  0.97790117  1
  P  P260  1  0.70693219  0.74974849  0.22840143  1
  P  P261  1  0.70661431  0.75084900  0.47858366  1
  P  P262  1  0.70732260  0.75069518  0.72941717  1
  P  P263  1  0.70813114  0.74952117  0.97768708  1
  P  P264  1  0.29254150  0.24803729  0.02212104  1
  P  P265  1  0.29298613  0.24984696  0.27138873  1
  P  P266  1  0.29229144  0.25186307  0.52279373  1
  P  P267  1  0.29183787  0.25160531  0.77202972  1
  P  P268  1  0.29072597  0.58274509  0.02260128  1
  P  P269  1  0.29150221  0.58199832  0.27133500  1
  P  P270  1  0.29108830  0.58361940  0.52341894  1
  P  P271  1  0.29155838  0.58488879  0.77174126  1
  P  P272  1  0.29227429  0.91433849  0.02149440  1
  P  P273  1  0.29236308  0.91593702  0.27114173  1
  P  P274  1  0.29089787  0.91673213  0.52413907  1
  P  P275  1  0.29130531  0.91629120  0.77305475  1
  P  P276  1  0.79262875  0.25127932  0.02171037  1
  P  P277  1  0.79303266  0.24832339  0.27247720  1
  P  P278  1  0.79218700  0.24849820  0.52252863  1
  P  P279  1  0.79133965  0.25015457  0.77335970  1
  P  P280  1  0.79260519  0.58341874  0.02142555  1
  P  P281  1  0.79212778  0.58101296  0.27295929  1
  P  P282  1  0.79240554  0.58299071  0.52165702  1
  P  P283  1  0.79236901  0.58501989  0.77302881  1
  P  P284  1  0.79259053  0.91859010  0.02189429  1
  P  P285  1  0.79319084  0.91682574  0.27138452  1
  P  P286  1  0.79216755  0.91877062  0.52305622  1
  P  P287  1  0.79247501  0.91953876  0.77214253  1
  O  O288  1  0.03850819  0.25092026  0.18325157  1
  O  O289  1  0.03776939  0.25112422  0.43383239  1
  O  O290  1  0.03671832  0.25082228  0.68259610  1
  O  O291  1  0.03782328  0.24984399  0.93209722  1
  O  O292  1  0.03614762  0.58381536  0.18155110  1
  O  O293  1  0.03623119  0.58395620  0.43177827  1
  O  O294  1  0.03642135  0.58497539  0.68087770  1
  O  O295  1  0.03707010  0.58474755  0.93196548  1
  O  O296  1  0.03844485  0.91498916  0.18321405  1
  O  O297  1  0.03684758  0.91387553  0.43308221  1
  O  O298  1  0.03570459  0.91601727  0.68175579  1
  O  O299  1  0.03784407  0.91461997  0.93162114  1
  O  O300  1  0.53708589  0.24783519  0.18304850  1
  O  O301  1  0.53704384  0.24809819  0.43205424  1
  O  O302  1  0.53710881  0.25091076  0.68353023  1
  O  O303  1  0.53649314  0.25049847  0.93346785  1
  O  O304  1  0.53618971  0.58254809  0.18186390  1
  O  O305  1  0.53688857  0.58180539  0.43212379  1
  O  O306  1  0.53725316  0.58402096  0.68396416  1
  O  O307  1  0.53621905  0.58475594  0.93368137  1
  O  O308  1  0.53651803  0.91768192  0.18334146  1
  O  O309  1  0.53571162  0.91700074  0.43155841  1
  O  O310  1  0.53712261  0.91732143  0.68261034  1
  O  O311  1  0.53778141  0.91779350  0.93428748  1
  O  O312  1  0.46445543  0.08334716  0.06792361  1
  O  O313  1  0.46318650  0.08140385  0.31693507  1
  O  O314  1  0.46139414  0.08223761  0.56711568  1
  O  O315  1  0.46314390  0.08377424  0.81928458  1
  O  O316  1  0.46347807  0.41839663  0.06688966  1
  O  O317  1  0.46209211  0.41697535  0.31607265  1
  O  O318  1  0.46223087  0.41531269  0.56830068  1
  O  O319  1  0.46263911  0.41721174  0.81782701  1
  O  O320  1  0.46350404  0.75022541  0.06722565  1
  O  O321  1  0.46171543  0.75067754  0.31628954  1
  O  O322  1  0.46202117  0.74932045  0.56824862  1
  O  O323  1  0.46300984  0.74829067  0.81796806  1
  O  O324  1  0.96284943  0.08307253  0.06695106  1
  O  O325  1  0.96336717  0.08141277  0.31787710  1
  O  O326  1  0.96319080  0.08425403  0.56738555  1
  O  O327  1  0.96350298  0.08410372  0.81605127  1
  O  O328  1  0.96354838  0.41921657  0.06731647  1
  O  O329  1  0.96384550  0.41792227  0.31818330  1
  O  O330  1  0.96253889  0.41689833  0.56564431  1
  O  O331  1  0.96267021  0.41840191  0.81735263  1
  O  O332  1  0.96357773  0.74872044  0.06850470  1
  O  O333  1  0.96356035  0.74965938  0.31784692  1
  O  O334  1  0.96370771  0.75050612  0.56745840  1
  O  O335  1  0.96337012  0.74904126  0.81671262  1
  O  O336  1  0.21336324  0.08217765  0.05738664  1
  O  O337  1  0.21280596  0.08419641  0.30736561  1
  O  O338  1  0.21265164  0.08247204  0.55913784  1
  O  O339  1  0.21308108  0.08134871  0.80811230  1
  O  O340  1  0.21308942  0.41590260  0.05700135  1
  O  O341  1  0.21310184  0.41893053  0.30706640  1
  O  O342  1  0.21322884  0.41816170  0.55784638  1
  O  O343  1  0.21279365  0.41687355  0.80624120  1
  O  O344  1  0.21380888  0.74935381  0.05643647  1
  O  O345  1  0.21338740  0.74929293  0.30573864  1
  O  O346  1  0.21252975  0.74966740  0.55887952  1
  O  O347  1  0.21367049  0.75029961  0.80690019  1
  O  O348  1  0.71387183  0.08315866  0.05654133  1
  O  O349  1  0.71321302  0.08318096  0.30712505  1
  O  O350  1  0.71341785  0.08490051  0.55800486  1
  O  O351  1  0.71371405  0.08388817  0.80728624  1
  O  O352  1  0.71317053  0.41418398  0.05784073  1
  O  O353  1  0.71315633  0.41535723  0.30764581  1
  O  O354  1  0.71218283  0.41721519  0.55766303  1
  O  O355  1  0.71249935  0.41584595  0.80918572  1
  O  O356  1  0.71303656  0.74958228  0.05767383  1
  O  O357  1  0.71175439  0.74981165  0.30839778  1
  O  O358  1  0.71158504  0.75122678  0.55861064  1
  O  O359  1  0.71298920  0.75018735  0.80934865  1
  O  O360  1  0.28771070  0.24897567  0.19143487  1
  O  O361  1  0.28717039  0.25178065  0.44282562  1
  O  O362  1  0.28630982  0.25191251  0.69213330  1
  O  O363  1  0.28731894  0.24815234  0.94221791  1
  O  O364  1  0.28603429  0.58214415  0.19148189  1
  O  O365  1  0.28617183  0.58282153  0.44342676  1
  O  O366  1  0.28655542  0.58512721  0.69187964  1
  O  O367  1  0.28610305  0.58328951  0.94265227  1
  O  O368  1  0.28729861  0.91557052  0.19121074  1
  O  O369  1  0.28624578  0.91633775  0.44414500  1
  O  O370  1  0.28580830  0.91681826  0.69318083  1
  O  O371  1  0.28669443  0.91452214  0.94163380  1
  O  O372  1  0.78777513  0.24903097  0.19253044  1
  O  O373  1  0.78710419  0.24821347  0.44258567  1
  O  O374  1  0.78641523  0.24957411  0.69340087  1
  O  O375  1  0.78706714  0.25137320  0.94188507  1
  O  O376  1  0.78732048  0.58105752  0.19294917  1
  O  O377  1  0.78701159  0.58214351  0.44172839  1
  O  O378  1  0.78737994  0.58487650  0.69304556  1
  O  O379  1  0.78710685  0.58435235  0.94153952  1
  O  O380  1  0.78821062  0.91716658  0.19140248  1
  O  O381  1  0.78740650  0.91818457  0.44305875  1
  O  O382  1  0.78676939  0.91978112  0.69226397  1
  O  O383  1  0.78722591  0.91876531  0.94193868  1
  O  O384  1  0.22832811  0.24781099  0.05799283  1
  O  O385  1  0.22868677  0.25075362  0.30681417  1
  O  O386  1  0.22799027  0.25175056  0.55838188  1
  O  O387  1  0.22769276  0.25097492  0.80807188  1
  O  O388  1  0.22654029  0.58239758  0.05843701  1
  O  O389  1  0.22739154  0.58176953  0.30772020  1
  O  O390  1  0.22689558  0.58428634  0.55924190  1
  O  O391  1  0.22735675  0.58444977  0.80755944  1
  O  O392  1  0.22819379  0.91431549  0.05777449  1
  O  O393  1  0.22803870  0.91630341  0.30656586  1
  O  O394  1  0.22663617  0.91693350  0.55969663  1
  O  O395  1  0.22731117  0.91612794  0.80962400  1
  O  O396  1  0.72851808  0.25110739  0.05803379  1
  O  O397  1  0.72871874  0.24807584  0.30823756  1
  O  O398  1  0.72790011  0.24818933  0.55822013  1
  O  O399  1  0.72720225  0.25065314  0.80935448  1
  O  O400  1  0.72836344  0.58249812  0.05698794  1
  O  O401  1  0.72766838  0.58073139  0.30811393  1
  O  O402  1  0.72808196  0.58366869  0.55704567  1
  O  O403  1  0.72804252  0.58458796  0.80838279  1
  O  O404  1  0.72836730  0.91853873  0.05781511  1
  O  O405  1  0.72873708  0.91717624  0.30646076  1
  O  O406  1  0.72771528  0.91946832  0.55822989  1
  O  O407  1  0.72835286  0.91934435  0.80824216  1
  O  O408  1  0.27222588  0.08406901  0.19187497  1
  O  O409  1  0.27165986  0.08323318  0.44372059  1
  O  O410  1  0.27181882  0.08185043  0.69229701  1
  O  O411  1  0.27227555  0.08096112  0.94162336  1
  O  O412  1  0.27192942  0.41818160  0.19117409  1
  O  O413  1  0.27209082  0.41951791  0.44179517  1
  O  O414  1  0.27243662  0.41687488  0.69065216  1
  O  O415  1  0.27195586  0.41532587  0.94115200  1
  O  O416  1  0.27298398  0.74975061  0.18995029  1
  O  O417  1  0.27155809  0.74946333  0.44329642  1
  O  O418  1  0.27275922  0.74966046  0.69077777  1
  O  O419  1  0.27281518  0.75024933  0.94024329  1
  O  O420  1  0.77248443  0.08182598  0.19155509  1
  O  O421  1  0.77228690  0.08545438  0.44208456  1
  O  O422  1  0.77261411  0.08430673  0.69100090  1
  O  O423  1  0.77304523  0.08339697  0.94055868  1
  O  O424  1  0.77233634  0.41389331  0.19203077  1
  O  O425  1  0.77182968  0.41757384  0.44243253  1
  O  O426  1  0.77133954  0.41641593  0.69375002  1
  O  O427  1  0.77197338  0.41491313  0.94207652  1
  O  O428  1  0.77150165  0.74980757  0.19370610  1
  O  O429  1  0.77114218  0.75021279  0.44381971  1
  O  O430  1  0.77153306  0.75137458  0.69375023  1
  O  O431  1  0.77244405  0.74988388  0.94230478  1
  O  O432  1  0.02213059  0.08274322  0.18206093  1
  O  O433  1  0.02224594  0.08127408  0.43354806  1
  O  O434  1  0.02235806  0.08483929  0.68300274  1
  O  O435  1  0.02241679  0.08311997  0.93142327  1
  O  O436  1  0.02241798  0.41972776  0.18310150  1
  O  O437  1  0.02299584  0.41667897  0.43424070  1
  O  O438  1  0.02147702  0.41736037  0.68118456  1
  O  O439  1  0.02249922  0.41927133  0.93254904  1
  O  O440  1  0.02296726  0.74945052  0.18433206  1
  O  O441  1  0.02231896  0.74969804  0.43409639  1
  O  O442  1  0.02278848  0.74992843  0.68363680  1
  O  O443  1  0.02234224  0.74790943  0.93260957  1
  O  O444  1  0.52303635  0.08275995  0.18438828  1
  O  O445  1  0.52178491  0.08068415  0.43306663  1
  O  O446  1  0.52099174  0.08368241  0.68206083  1
  O  O447  1  0.52291953  0.08372961  0.93472418  1
  O  O448  1  0.52205389  0.41786591  0.18295000  1
  O  O449  1  0.52129850  0.41616826  0.43124362  1
  O  O450  1  0.52170736  0.41537988  0.68373781  1
  O  O451  1  0.52157664  0.41831544  0.93354602  1
  O  O452  1  0.52195123  0.75120535  0.18334945  1
  O  O453  1  0.52065228  0.74995157  0.43168503  1
  O  O454  1  0.52176850  0.74859812  0.68354498  1
  O  O455  1  0.52201527  0.74872388  0.93364600  1
  O  O456  1  0.47810263  0.24846398  0.06737555  1
  O  O457  1  0.47814229  0.24782106  0.31642437  1
  O  O458  1  0.47814474  0.24929867  0.56820203  1
  O  O459  1  0.47725098  0.25167482  0.81782398  1
  O  O460  1  0.47696279  0.58326141  0.06601663  1
  O  O461  1  0.47780331  0.58157151  0.31655814  1
  O  O462  1  0.47790134  0.58293792  0.56879603  1
  O  O463  1  0.47765402  0.58500443  0.81748485  1
  O  O464  1  0.47818622  0.91836914  0.06711020  1
  O  O465  1  0.47713145  0.91685726  0.31521684  1
  O  O466  1  0.47739640  0.91805046  0.56739013  1
  O  O467  1  0.47847387  0.91653611  0.81919045  1
  O  O468  1  0.97915404  0.25126475  0.06821752  1
  O  O469  1  0.97895601  0.25075770  0.31841288  1
  O  O470  1  0.97813892  0.25166116  0.56660668  1
  O  O471  1  0.97809941  0.24912670  0.81695680  1
  O  O472  1  0.97735092  0.58418350  0.06512865  1
  O  O473  1  0.97738901  0.58369009  0.31550351  1
  O  O474  1  0.97696467  0.58452742  0.56504704  1
  O  O475  1  0.97819019  0.58580870  0.81603097  1
  O  O476  1  0.97898539  0.91567386  0.06811068  1
  O  O477  1  0.97846673  0.91359762  0.31685638  1
  O  O478  1  0.97689475  0.91610800  0.56550366  1
  O  O479  1  0.97824709  0.91483710  0.81638546  1
  O  O480  1  0.07475774  0.31434007  0.07522304  1
  O  O481  1  0.07475223  0.31368481  0.32542697  1
  O  O482  1  0.07299152  0.31504778  0.57439519  1
  O  O483  1  0.07327967  0.31334806  0.82426015  1
  O  O484  1  0.07246509  0.64749131  0.07330569  1
  O  O485  1  0.07244141  0.64715086  0.32321799  1
  O  O486  1  0.07229615  0.64784635  0.57242371  1
  O  O487  1  0.07365340  0.64817335  0.82321968  1
  O  O488  1  0.07436388  0.97897614  0.07501995  1
  O  O489  1  0.07366320  0.97754573  0.32542874  1
  O  O490  1  0.07134908  0.98008196  0.57379221  1
  O  O491  1  0.07378328  0.97815352  0.82391506  1
  O  O492  1  0.57322548  0.31227212  0.07581373  1
  O  O493  1  0.57351453  0.31141969  0.32437312  1
  O  O494  1  0.57345424  0.31332964  0.57465038  1
  O  O495  1  0.57216549  0.31491862  0.82531928  1
  O  O496  1  0.57187312  0.64716110  0.07433633  1
  O  O497  1  0.57315365  0.64533860  0.32456556  1
  O  O498  1  0.57329760  0.64666950  0.57511508  1
  O  O499  1  0.57267661  0.64829307  0.82505086  1
  O  O500  1  0.57325261  0.98151965  0.07501657  1
  O  O501  1  0.57265926  0.97991006  0.32345206  1
  O  O502  1  0.57256242  0.98120128  0.57405831  1
  O  O503  1  0.57381477  0.98050764  0.82563323  1
  O  O504  1  0.42765382  0.01966502  0.17581714  1
  O  O505  1  0.42652689  0.01788205  0.42552381  1
  O  O506  1  0.42571645  0.01961825  0.67610041  1
  O  O507  1  0.42806424  0.01970533  0.92736671  1
  O  O508  1  0.42692206  0.35408118  0.17387964  1
  O  O509  1  0.42592924  0.35267419  0.42370802  1
  O  O510  1  0.42684864  0.35177805  0.67705808  1
  O  O511  1  0.42615658  0.35467965  0.92616573  1
  O  O512  1  0.42654367  0.68750799  0.17493231  1
  O  O513  1  0.42549959  0.68618535  0.42392341  1
  O  O514  1  0.42662570  0.68534300  0.67666978  1
  O  O515  1  0.42671964  0.68550910  0.92698629  1
  O  O516  1  0.92655413  0.01959516  0.17492800  1
  O  O517  1  0.92730771  0.01786694  0.42628518  1
  O  O518  1  0.92675412  0.02149367  0.67532850  1
  O  O519  1  0.92725537  0.01953675  0.92362637  1
  O  O520  1  0.92769746  0.35513611  0.17515561  1
  O  O521  1  0.92772422  0.35358063  0.42586388  1
  O  O522  1  0.92582267  0.35429689  0.67444147  1
  O  O523  1  0.92745337  0.35495989  0.92543292  1
  O  O524  1  0.92779078  0.68582451  0.17710006  1
  O  O525  1  0.92737075  0.68594674  0.42599744  1
  O  O526  1  0.92754591  0.68675880  0.67561559  1
  O  O527  1  0.92693947  0.68552032  0.92555535  1
  O  O528  1  0.17663646  0.02073646  0.19965122  1
  O  O529  1  0.17618174  0.01984838  0.45031964  1
  O  O530  1  0.17657798  0.01844956  0.69944566  1
  O  O531  1  0.17726068  0.01758488  0.94948922  1
  O  O532  1  0.17678709  0.35442773  0.19993975  1
  O  O533  1  0.17728248  0.35503383  0.44940476  1
  O  O534  1  0.17691868  0.35381761  0.69771072  1
  O  O535  1  0.17742560  0.35139926  0.94878109  1
  O  O536  1  0.17841557  0.68569645  0.19727486  1
  O  O537  1  0.17607953  0.68658675  0.45013024  1
  O  O538  1  0.17732635  0.68678707  0.69860493  1
  O  O539  1  0.17861264  0.68551206  0.94781684  1
  O  O540  1  0.67757087  0.01856848  0.19893303  1
  O  O541  1  0.67717747  0.02131554  0.44993548  1
  O  O542  1  0.67754328  0.02080937  0.69862307  1
  O  O543  1  0.67773900  0.02007268  0.94815869  1
  O  O544  1  0.67735514  0.35050491  0.19977109  1
  O  O545  1  0.67658189  0.35361339  0.44979861  1
  O  O546  1  0.67576315  0.35326104  0.70055430  1
  O  O547  1  0.67675558  0.35142162  0.94903362  1
  O  O548  1  0.67606304  0.68603767  0.20049645  1
  O  O549  1  0.67529762  0.68742950  0.45066176  1
  O  O550  1  0.67619629  0.68749694  0.70082346  1
  O  O551  1  0.67775732  0.68572711  0.94926009  1
  O  O552  1  0.32362542  0.31171196  0.04991585  1
  O  O553  1  0.32420259  0.31366712  0.29863859  1
  O  O554  1  0.32290945  0.31551171  0.55112817  1
  O  O555  1  0.32227179  0.31510523  0.80109580  1
  O  O556  1  0.32122860  0.64640575  0.05152115  1
  O  O557  1  0.32249350  0.64572150  0.29946816  1
  O  O558  1  0.32227603  0.64727755  0.55105932  1
  O  O559  1  0.32203168  0.64831844  0.80118359  1
  O  O560  1  0.32354800  0.97787084  0.04947812  1
  O  O561  1  0.32331149  0.97960299  0.29918885  1
  O  O562  1  0.32191992  0.98027983  0.55216734  1
  O  O563  1  0.32236742  0.97969657  0.80184082  1
  O  O564  1  0.82354019  0.31450571  0.05085889  1
  O  O565  1  0.82422674  0.31169975  0.30088902  1
  O  O566  1  0.82266502  0.31269232  0.55006812  1
  O  O567  1  0.82260904  0.31374148  0.80111228  1
  O  O568  1  0.82360940  0.64658571  0.05045349  1
  O  O569  1  0.82282565  0.64491088  0.30069811  1
  O  O570  1  0.82360821  0.64674913  0.54911768  1
  O  O571  1  0.82264591  0.64884390  0.80148009  1
  O  O572  1  0.82350138  0.98191553  0.05054432  1
  O  O573  1  0.82465589  0.97986190  0.30002435  1
  O  O574  1  0.82308454  0.98231499  0.55115301  1
  O  O575  1  0.82356570  0.98277592  0.80071093  1
  O  O576  1  0.42833826  0.14680988  0.17639574  1
  O  O577  1  0.42666137  0.14487643  0.42491084  1
  O  O578  1  0.42525232  0.14638554  0.67511168  1
  O  O579  1  0.42766049  0.14726754  0.92742257  1
  O  O580  1  0.42696210  0.48135802  0.17545199  1
  O  O581  1  0.42576099  0.47957712  0.42512049  1
  O  O582  1  0.42627519  0.47899646  0.67592063  1
  O  O583  1  0.42659563  0.48184255  0.92556963  1
  O  O584  1  0.42719062  0.81475806  0.17500351  1
  O  O585  1  0.42499118  0.81311726  0.42510091  1
  O  O586  1  0.42660539  0.81264552  0.67640618  1
  O  O587  1  0.42684522  0.81255427  0.92528857  1
  O  O588  1  0.92692913  0.14670606  0.17507078  1
  O  O589  1  0.92698435  0.14519893  0.42515367  1
  O  O590  1  0.92771345  0.14873066  0.67567985  1
  O  O591  1  0.92675818  0.14652136  0.92468278  1
  O  O592  1  0.92671913  0.48217361  0.17601606  1
  O  O593  1  0.92849574  0.48107821  0.42679674  1
  O  O594  1  0.92618953  0.48098836  0.67366572  1
  O  O595  1  0.92723412  0.48229749  0.92562898  1
  O  O596  1  0.92803726  0.81312614  0.17648331  1
  O  O597  1  0.92710748  0.81297763  0.42645603  1
  O  O598  1  0.92800837  0.81396691  0.67611704  1
  O  O599  1  0.92728483  0.81230970  0.92495818  1
  O  O600  1  0.07439145  0.18727664  0.07513058  1
  O  O601  1  0.07397761  0.18661559  0.32629106  1
  O  O602  1  0.07368679  0.18792647  0.57492391  1
  O  O603  1  0.07339004  0.18600838  0.82352248  1
  O  O604  1  0.07215865  0.52040284  0.07292003  1
  O  O605  1  0.07231909  0.52003605  0.32356773  1
  O  O606  1  0.07146752  0.52050312  0.57282271  1
  O  O607  1  0.07313270  0.52132170  0.82370026  1
  O  O608  1  0.07441570  0.85206364  0.07464278  1
  O  O609  1  0.07362581  0.85054549  0.32436630  1
  O  O610  1  0.07216530  0.85258827  0.57388808  1
  O  O611  1  0.07308010  0.85098870  0.82285037  1
  O  O612  1  0.57334343  0.18516437  0.07397305  1
  O  O613  1  0.57315377  0.18417533  0.32397170  1
  O  O614  1  0.57377105  0.18652079  0.57584953  1
  O  O615  1  0.57256242  0.18766828  0.82523179  1
  O  O616  1  0.57223560  0.51972815  0.07318491  1
  O  O617  1  0.57287908  0.51813336  0.32358372  1
  O  O618  1  0.57341194  0.51969279  0.57626835  1
  O  O619  1  0.57302656  0.52132265  0.82596260  1
  O  O620  1  0.57348522  0.85457862  0.07541982  1
  O  O621  1  0.57161249  0.85256750  0.32369341  1
  O  O622  1  0.57267369  0.85396262  0.57454284  1
  O  O623  1  0.57400026  0.85357556  0.82651958  1
  O  O624  1  0.32328532  0.18449987  0.05079215  1
  O  O625  1  0.32389792  0.18670098  0.30048592  1
  O  O626  1  0.32341156  0.18819272  0.55046053  1
  O  O627  1  0.32337314  0.18792614  0.79923162  1
  O  O628  1  0.32172979  0.51907275  0.05052265  1
  O  O629  1  0.32266874  0.51886749  0.30028092  1
  O  O630  1  0.32163795  0.52003881  0.55240024  1
  O  O631  1  0.32303360  0.52141275  0.79962816  1
  O  O632  1  0.32318492  0.85089038  0.05012855  1
  O  O633  1  0.32336303  0.85263918  0.29980826  1
  O  O634  1  0.32135534  0.85287679  0.55274558  1
  O  O635  1  0.32234323  0.85253006  0.80085450  1
  O  O636  1  0.82394793  0.18760770  0.04941969  1
  O  O637  1  0.82366070  0.18460013  0.30063403  1
  O  O638  1  0.82354851  0.18564422  0.55164054  1
  O  O639  1  0.82175596  0.18640900  0.80214588  1
  O  O640  1  0.82396891  0.51971070  0.04863770  1
  O  O641  1  0.82293665  0.51756153  0.30149555  1
  O  O642  1  0.82342382  0.51982605  0.55058581  1
  O  O643  1  0.82384686  0.52148909  0.80054422  1
  O  O644  1  0.82356169  0.85463439  0.04932622  1
  O  O645  1  0.82375603  0.85303601  0.29969465  1
  O  O646  1  0.82279863  0.85503911  0.55128753  1
  O  O647  1  0.82359113  0.85570119  0.79958729  1
  O  O648  1  0.17741881  0.14801922  0.19885047  1
  O  O649  1  0.17634093  0.14681997  0.45163672  1
  O  O650  1  0.17664286  0.14562466  0.70084142  1
  O  O651  1  0.17680047  0.14467213  0.94909300  1
  O  O652  1  0.17669945  0.48148372  0.19802479  1
  O  O653  1  0.17659513  0.48200356  0.44959817  1
  O  O654  1  0.17798654  0.48125577  0.69803839  1
  O  O655  1  0.17630122  0.47857591  0.94891981  1
  O  O656  1  0.17787656  0.81313454  0.19762675  1
  O  O657  1  0.17636148  0.81326339  0.45054718  1
  O  O658  1  0.17831741  0.81398158  0.69841440  1
  O  O659  1  0.17714146  0.81263307  0.94809555  1
  O  O660  1  0.67711082  0.14564305  0.19866001  1
  O  O661  1  0.67687692  0.14818304  0.44912412  1
  O  O662  1  0.67763769  0.14800550  0.69931863  1
  O  O663  1  0.67854132  0.14737702  0.94838288  1
  O  O664  1  0.67685359  0.47763938  0.19894508  1
  O  O665  1  0.67659476  0.48083469  0.44902246  1
  O  O666  1  0.67613440  0.48020815  0.70173289  1
  O  O667  1  0.67668097  0.47852804  0.95063423  1
  O  O668  1  0.67593492  0.81307482  0.19986314  1
  O  O669  1  0.67594803  0.81448602  0.45028403  1
  O  O670  1  0.67598138  0.81442982  0.70204680  1
  O  O671  1  0.67674865  0.81311719  0.95023920  1
