# generated using pymatgen
data_Na2MnFe(PO4)2
_symmetry_space_group_name_H-M   'P 1'
_cell_length_a   22.34285212
_cell_length_b   20.09411756
_cell_length_c   19.45114256
_cell_angle_alpha   90.05956576
_cell_angle_beta   89.93914772
_cell_angle_gamma   89.99845362
_symmetry_Int_Tables_number   1
_chemical_formula_structural   Na2MnFe(PO4)2
_chemical_formula_sum   'Na96 Mn48 Fe48 P96 O384'
_cell_volume   8732.77331453
_cell_formula_units_Z   48
loop_
 _symmetry_equiv_pos_site_id
 _symmetry_equiv_pos_as_xyz
  1  'x, y, z'
loop_
 _atom_site_type_symbol
 _atom_site_label
 _atom_site_symmetry_multiplicity
 _atom_site_fract_x
 _atom_site_fract_y
 _atom_site_fract_z
 _atom_site_occupancy
  Na  Na0  1  0.14100587  0.25045442  0.24346147  1
  Na  Na1  1  0.14039613  0.25038203  0.49429843  1
  Na  Na2  1  0.13927262  0.25045955  0.74412569  1
  Na  Na3  1  0.13969012  0.25006724  0.99312561  1
  Na  Na4  1  0.13992210  0.58295977  0.24392975  1
  Na  Na5  1  0.14073166  0.58234305  0.49373978  1
  Na  Na6  1  0.14059663  0.58254597  0.74407976  1
  Na  Na7  1  0.14046044  0.58248360  0.99436120  1
  Na  Na8  1  0.13995812  0.91680780  0.24404418  1
  Na  Na9  1  0.14034223  0.91489069  0.49389203  1
  Na  Na10  1  0.13978609  0.91550870  0.74425302  1
  Na  Na11  1  0.13990864  0.91709567  0.99418714  1
  Na  Na12  1  0.64138420  0.25107669  0.24253146  1
  Na  Na13  1  0.64120259  0.24908492  0.49279487  1
  Na  Na14  1  0.64074237  0.24817786  0.74323652  1
  Na  Na15  1  0.64060899  0.25038604  0.99337234  1
  Na  Na16  1  0.64103338  0.58326460  0.24367614  1
  Na  Na17  1  0.64168699  0.58396308  0.49319362  1
  Na  Na18  1  0.64061703  0.58364974  0.74419504  1
  Na  Na19  1  0.64051801  0.58306446  0.99428480  1
  Na  Na20  1  0.64061989  0.91759274  0.24363073  1
  Na  Na21  1  0.64073470  0.91696890  0.49294884  1
  Na  Na22  1  0.64109048  0.91697436  0.74253355  1
  Na  Na23  1  0.64078692  0.91677418  0.99370891  1
  Na  Na24  1  0.35924343  0.08353559  0.00498286  1
  Na  Na25  1  0.35933479  0.08347182  0.25644808  1
  Na  Na26  1  0.35993559  0.08290383  0.50653653  1
  Na  Na27  1  0.35961966  0.08385609  0.75519702  1
  Na  Na28  1  0.35976475  0.41677021  0.00671868  1
  Na  Na29  1  0.35985600  0.41800743  0.25636544  1
  Na  Na30  1  0.35994893  0.41653466  0.50390630  1
  Na  Na31  1  0.35970082  0.41584287  0.75548468  1
  Na  Na32  1  0.35923959  0.75074517  0.00598658  1
  Na  Na33  1  0.35882408  0.74999850  0.25632828  1
  Na  Na34  1  0.35951757  0.74918154  0.50544999  1
  Na  Na35  1  0.36041812  0.75019895  0.75625505  1
  Na  Na36  1  0.85917977  0.08312133  0.00755644  1
  Na  Na37  1  0.85931635  0.08324541  0.25561647  1
  Na  Na38  1  0.85925178  0.08296964  0.50630021  1
  Na  Na39  1  0.85939165  0.08338195  0.75717167  1
  Na  Na40  1  0.85968840  0.41631108  0.00743733  1
  Na  Na41  1  0.85951797  0.41791529  0.25630801  1
  Na  Na42  1  0.85944919  0.41682844  0.50637836  1
  Na  Na43  1  0.85978401  0.41655268  0.75853285  1
  Na  Na44  1  0.85865988  0.74957557  0.00610067  1
  Na  Na45  1  0.85850308  0.75097294  0.25751944  1
  Na  Na46  1  0.85961088  0.75145180  0.50644350  1
  Na  Na47  1  0.85950706  0.74965178  0.75690262  1
  Na  Na48  1  0.10909113  0.08327567  0.11847323  1
  Na  Na49  1  0.10982351  0.08277338  0.36889512  1
  Na  Na50  1  0.10905301  0.08307511  0.61925201  1
  Na  Na51  1  0.10858221  0.08331316  0.86958642  1
  Na  Na52  1  0.10967236  0.41645609  0.11860182  1
  Na  Na53  1  0.11013894  0.41696404  0.36814928  1
  Na  Na54  1  0.10956124  0.41633565  0.61978671  1
  Na  Na55  1  0.10935903  0.41507064  0.86889777  1
  Na  Na56  1  0.10904610  0.74927339  0.11863560  1
  Na  Na57  1  0.10923905  0.75008978  0.36870631  1
  Na  Na58  1  0.10975244  0.75045272  0.61937158  1
  Na  Na59  1  0.10941355  0.74952752  0.86893961  1
  Na  Na60  1  0.61028247  0.08432648  0.11762499  1
  Na  Na61  1  0.61000302  0.08314822  0.36841067  1
  Na  Na62  1  0.61049754  0.08352739  0.61808372  1
  Na  Na63  1  0.61061359  0.08261503  0.86759503  1
  Na  Na64  1  0.61077983  0.41706327  0.11889899  1
  Na  Na65  1  0.61105836  0.41661235  0.36698649  1
  Na  Na66  1  0.61023244  0.41596417  0.61874061  1
  Na  Na67  1  0.60990231  0.41625244  0.86908796  1
  Na  Na68  1  0.60975159  0.75104454  0.11997039  1
  Na  Na69  1  0.61048403  0.75014345  0.36775928  1
  Na  Na70  1  0.61033251  0.75044415  0.61870618  1
  Na  Na71  1  0.60972194  0.74948199  0.86819231  1
  Na  Na72  1  0.39076326  0.25161788  0.13091493  1
  Na  Na73  1  0.39086977  0.25049517  0.38101512  1
  Na  Na74  1  0.39020932  0.24994127  0.62995801  1
  Na  Na75  1  0.39031556  0.24983115  0.88003946  1
  Na  Na76  1  0.38981680  0.58314183  0.13290373  1
  Na  Na77  1  0.38998583  0.58273840  0.38003509  1
  Na  Na78  1  0.39096747  0.58390813  0.63032831  1
  Na  Na79  1  0.39060645  0.58310886  0.88142275  1
  Na  Na80  1  0.38983188  0.91758177  0.13105516  1
  Na  Na81  1  0.39021113  0.91749496  0.38131609  1
  Na  Na82  1  0.39063950  0.91658314  0.63130757  1
  Na  Na83  1  0.39033873  0.91581736  0.87995522  1
  Na  Na84  1  0.88981140  0.24995248  0.13130124  1
  Na  Na85  1  0.89004637  0.25051321  0.38055247  1
  Na  Na86  1  0.89030361  0.25021391  0.63294768  1
  Na  Na87  1  0.89025911  0.24927173  0.88280920  1
  Na  Na88  1  0.88970090  0.58224071  0.13165605  1
  Na  Na89  1  0.88960539  0.58376735  0.38237241  1
  Na  Na90  1  0.89020077  0.58380753  0.63263409  1
  Na  Na91  1  0.88971576  0.58173857  0.88184194  1
  Na  Na92  1  0.88892072  0.91713038  0.13185295  1
  Na  Na93  1  0.88929234  0.91751303  0.38145685  1
  Na  Na94  1  0.89013832  0.91733500  0.63152367  1
  Na  Na95  1  0.88980985  0.91716815  0.88190676  1
  Mn  Mn96  1  0.49970587  0.16761597  -0.00089883  1
  Mn  Mn97  1  0.25056835  0.49925274  0.87450164  1
  Mn  Mn98  1  0.25025371  0.33424117  0.12495784  1
  Mn  Mn99  1  -0.00123905  0.83349988  0.00027747  1
  Mn  Mn100  1  -0.00101039  0.66528621  -0.00057961  1
  Mn  Mn101  1  0.50048582  0.33268434  0.49909199  1
  Mn  Mn102  1  0.74962608  0.83330575  0.87495461  1
  Mn  Mn103  1  -0.00100923  0.83424216  0.24922810  1
  Mn  Mn104  1  0.50026524  0.00008573  -0.00099745  1
  Mn  Mn105  1  0.49979987  0.50011337  0.74967657  1
  Mn  Mn106  1  -0.00123122  0.66591772  0.24975867  1
  Mn  Mn107  1  -0.00000190  0.66643351  0.75053561  1
  Mn  Mn108  1  0.75021706  0.16671220  0.37415208  1
  Mn  Mn109  1  0.24953740  0.83361464  0.12586210  1
  Mn  Mn110  1  0.75022104  0.50054269  0.62533839  1
  Mn  Mn111  1  -0.00018978  0.49997672  0.50110332  1
  Mn  Mn112  1  0.25073853  0.66669457  0.62477424  1
  Mn  Mn113  1  0.24911062  0.16734855  0.87505220  1
  Mn  Mn114  1  0.74993433  0.33241195  0.62574399  1
  Mn  Mn115  1  0.49997508  0.16762349  0.24912002  1
  Mn  Mn116  1  0.75010778  0.33289699  0.87572686  1
  Mn  Mn117  1  0.24980527  0.83265166  0.37431730  1
  Mn  Mn118  1  0.25001523  0.16632569  0.37485174  1
  Mn  Mn119  1  0.50088128  0.66684168  0.49942243  1
  Mn  Mn120  1  0.49967644  0.83402282  0.49975520  1
  Mn  Mn121  1  0.25043829  0.66717123  0.87477862  1
  Mn  Mn122  1  0.49953525  0.00017055  0.24947214  1
  Mn  Mn123  1  0.24952690  0.16714041  0.62494468  1
  Mn  Mn124  1  -0.00059992  -0.00037546  0.50042207  1
  Mn  Mn125  1  -0.00032205  -0.00016315  0.75050769  1
  Mn  Mn126  1  0.00034369  0.16621440  0.24995926  1
  Mn  Mn127  1  0.49974507  0.66709564  0.25001807  1
  Mn  Mn128  1  0.25024800  0.16644553  0.12495716  1
  Mn  Mn129  1  0.25086579  0.49870351  0.62377279  1
  Mn  Mn130  1  0.50024360  0.33204544  0.74871484  1
  Mn  Mn131  1  -0.00001540  0.16702984  0.50028150  1
  Mn  Mn132  1  0.24939653  -0.00065937  0.87503990  1
  Mn  Mn133  1  0.00042474  0.33376735  0.25017688  1
  Mn  Mn134  1  -0.00009947  0.33370590  0.50111707  1
  Mn  Mn135  1  0.49943767  0.66710943  0.00066747  1
  Mn  Mn136  1  0.00047962  0.66766637  0.50118293  1
  Mn  Mn137  1  0.75003731  0.66667477  0.12571318  1
  Mn  Mn138  1  0.50002161  0.83354992  -0.00060737  1
  Mn  Mn139  1  0.50024237  0.49949094  0.00014511  1
  Mn  Mn140  1  0.50104068  0.49985081  0.49990901  1
  Mn  Mn141  1  0.24952260  -0.00151944  0.62582931  1
  Mn  Mn142  1  0.50012621  0.00034805  0.74928884  1
  Mn  Mn143  1  0.75032733  0.83351252  0.62512989  1
  Fe  Fe144  1  -0.00019343  0.83390141  0.49988926  1
  Fe  Fe145  1  0.50097359  0.49988731  0.24978807  1
  Fe  Fe146  1  -0.00033581  0.33311823  0.75136505  1
  Fe  Fe147  1  0.24948579  0.83343254  0.87572309  1
  Fe  Fe148  1  0.49999808  0.83398638  0.25012936  1
  Fe  Fe149  1  0.74938833  0.83358713  0.12535035  1
  Fe  Fe150  1  0.50052892  0.00053774  0.49998141  1
  Fe  Fe151  1  0.75081730  0.33349134  0.37438021  1
  Fe  Fe152  1  0.75010487  0.83425067  0.37539964  1
  Fe  Fe153  1  0.24952934  0.50046089  0.12547374  1
  Fe  Fe154  1  0.74967947  0.00010625  0.12491127  1
  Fe  Fe155  1  0.25006894  0.33342076  0.87495640  1
  Fe  Fe156  1  -0.00063914  0.16652320  0.00019534  1
  Fe  Fe157  1  0.25015595  0.83239615  0.62446938  1
  Fe  Fe158  1  0.75038967  0.66711537  0.62458135  1
  Fe  Fe159  1  0.75018754  0.33390166  0.12478829  1
  Fe  Fe160  1  -0.00029934  0.49983763  0.25000684  1
  Fe  Fe161  1  0.24989811  -0.00059957  0.37547582  1
  Fe  Fe162  1  0.24938396  0.66599661  0.37503646  1
  Fe  Fe163  1  0.50109983  0.33373211  0.25004604  1
  Fe  Fe164  1  0.74972703  0.66621472  0.87585354  1
  Fe  Fe165  1  -0.00050553  0.16664464  0.75086662  1
  Fe  Fe166  1  0.75043683  0.50022936  0.12544117  1
  Fe  Fe167  1  0.74972821  0.16688527  0.12483672  1
  Fe  Fe168  1  0.75026702  0.50018839  0.37515978  1
  Fe  Fe169  1  0.74978825  0.00045070  0.37442987  1
  Fe  Fe170  1  0.00016497  0.49934600  0.75147672  1
  Fe  Fe171  1  0.00012449  0.49899325  0.00019287  1
  Fe  Fe172  1  0.50074214  0.66697466  0.75010930  1
  Fe  Fe173  1  0.50061509  0.83363407  0.74936670  1
  Fe  Fe174  1  0.50077088  0.16660519  0.49927571  1
  Fe  Fe175  1  0.24940989  0.00010807  0.12486775  1
  Fe  Fe176  1  0.74958108  0.49988735  0.87563604  1
  Fe  Fe177  1  0.75029916  0.00025472  0.62457182  1
  Fe  Fe178  1  0.75076832  0.16597847  0.62446230  1
  Fe  Fe179  1  0.24958795  0.66646042  0.12538091  1
  Fe  Fe180  1  -0.00046337  -0.00015691  -0.00008605  1
  Fe  Fe181  1  -0.00048685  0.83335691  0.75046729  1
  Fe  Fe182  1  0.24999772  0.50008171  0.37457622  1
  Fe  Fe183  1  0.74990075  0.16619706  0.87497341  1
  Fe  Fe184  1  -0.00059554  0.00015165  0.25009687  1
  Fe  Fe185  1  0.25021041  0.33356038  0.37441182  1
  Fe  Fe186  1  0.75022332  0.66725426  0.37500540  1
  Fe  Fe187  1  -0.00025963  0.33298566  -0.00002097  1
  Fe  Fe188  1  0.24983521  0.33336547  0.62399914  1
  Fe  Fe189  1  0.75025005  0.00033363  0.87519488  1
  Fe  Fe190  1  0.50026193  0.33383509  0.00008981  1
  Fe  Fe191  1  0.50031733  0.16640873  0.74921138  1
  P  P192  1  0.04117444  0.25009977  0.10143765  1
  P  P193  1  0.04336868  0.24998123  0.35308319  1
  P  P194  1  0.04237778  0.25014361  0.60485597  1
  P  P195  1  0.04054249  0.24948167  0.85305799  1
  P  P196  1  0.04150945  0.58136934  0.10263264  1
  P  P197  1  0.04161486  0.58233946  0.35260558  1
  P  P198  1  0.04304642  0.58321560  0.60440760  1
  P  P199  1  0.04231746  0.58129018  0.85335919  1
  P  P200  1  0.04134623  0.91820731  0.10270909  1
  P  P201  1  0.04172229  0.91776059  0.35261228  1
  P  P202  1  0.04202044  0.91514275  0.60307773  1
  P  P203  1  0.04160200  0.91570341  0.85312028  1
  P  P204  1  0.54256152  0.25205680  0.10230216  1
  P  P205  1  0.54315267  0.25069710  0.35203434  1
  P  P206  1  0.54291690  0.24829321  0.60186689  1
  P  P207  1  0.54282406  0.24860477  0.85200657  1
  P  P208  1  0.54249772  0.58321113  0.10387204  1
  P  P209  1  0.54282078  0.58244919  0.35191967  1
  P  P210  1  0.54369197  0.58403153  0.60348472  1
  P  P211  1  0.54215780  0.58412671  0.85247421  1
  P  P212  1  0.54279833  0.91683819  0.10314734  1
  P  P213  1  0.54211622  0.91645434  0.35264454  1
  P  P214  1  0.54246103  0.91805169  0.60228983  1
  P  P215  1  0.54307295  0.91562131  0.85147590  1
  P  P216  1  0.45686534  0.08411601  0.14628821  1
  P  P217  1  0.45873081  0.08360700  0.39808422  1
  P  P218  1  0.45815074  0.08478654  0.64604182  1
  P  P219  1  0.45726183  0.08353580  0.89560111  1
  P  P220  1  0.45915896  0.41638081  0.14835865  1
  P  P221  1  0.45863539  0.41675434  0.39545015  1
  P  P222  1  0.45734691  0.41629567  0.64624402  1
  P  P223  1  0.45783153  0.41505892  0.89738629  1
  P  P224  1  0.45712865  0.75187338  0.14787270  1
  P  P225  1  0.45749578  0.75049224  0.39618732  1
  P  P226  1  0.45918676  0.75022517  0.64825932  1
  P  P227  1  0.45736643  0.74986744  0.89581845  1
  P  P228  1  0.95770774  0.08202676  0.14681908  1
  P  P229  1  0.95695431  0.08327148  0.39677991  1
  P  P230  1  0.95747361  0.08432479  0.64840498  1
  P  P231  1  0.95810513  0.08332474  0.89864251  1
  P  P232  1  0.95790394  0.41753544  0.14697031  1
  P  P233  1  0.95730497  0.41695649  0.39714433  1
  P  P234  1  0.95811381  0.41679686  0.65001274  1
  P  P235  1  0.95839102  0.41588046  0.89831640  1
  P  P236  1  0.95593724  0.74964634  0.14683276  1
  P  P237  1  0.95752147  0.75146077  0.39787170  1
  P  P238  1  0.95771226  0.75166015  0.64771890  1
  P  P239  1  0.95656015  0.74983884  0.89646609  1
  P  P240  1  0.20771386  0.08189480  0.22787375  1
  P  P241  1  0.20762873  0.08167778  0.47765511  1
  P  P242  1  0.20661577  0.08326588  0.72818391  1
  P  P243  1  0.20667232  0.08308484  0.97856592  1
  P  P244  1  0.20797582  0.41838235  0.22818935  1
  P  P245  1  0.20857034  0.41628989  0.47616239  1
  P  P246  1  0.20802564  0.41485944  0.72730489  1
  P  P247  1  0.20783553  0.41595549  0.97763884  1
  P  P248  1  0.20712599  0.74822388  0.22791312  1
  P  P249  1  0.20755635  0.74863965  0.47740079  1
  P  P250  1  0.20797774  0.75111947  0.72779870  1
  P  P251  1  0.20739871  0.75090354  0.97813310  1
  P  P252  1  0.70861572  0.08355111  0.22630405  1
  P  P253  1  0.70837171  0.08234117  0.47736205  1
  P  P254  1  0.70905108  0.08317223  0.72668244  1
  P  P255  1  0.70870385  0.08328775  0.97714210  1
  P  P256  1  0.70950939  0.41714071  0.22730023  1
  P  P257  1  0.70912419  0.41630126  0.47635527  1
  P  P258  1  0.70763820  0.41673267  0.72885402  1
  P  P259  1  0.70822768  0.41778335  0.97849042  1
  P  P260  1  0.70806813  0.75177760  0.22846852  1
  P  P261  1  0.70894312  0.75056408  0.47659164  1
  P  P262  1  0.70846396  0.74856244  0.72764710  1
  P  P263  1  0.70741675  0.74900621  0.97791584  1
  P  P264  1  0.29266883  0.25054316  0.02149285  1
  P  P265  1  0.29257596  0.25135111  0.27245094  1
  P  P266  1  0.29214625  0.25119609  0.52145430  1
  P  P267  1  0.29182619  0.25155926  0.77187946  1
  P  P268  1  0.29165186  0.58339272  0.02382168  1
  P  P269  1  0.29093789  0.58350910  0.27258291  1
  P  P270  1  0.29301118  0.58297946  0.52053899  1
  P  P271  1  0.29340483  0.58311862  0.77165660  1
  P  P272  1  0.29187352  0.91754243  0.02258873  1
  P  P273  1  0.29188971  0.91799630  0.27231499  1
  P  P274  1  0.29244340  0.91497404  0.52225839  1
  P  P275  1  0.29196450  0.91454883  0.77234345  1
  P  P276  1  0.79097202  0.24966568  0.02332973  1
  P  P277  1  0.79229250  0.25149919  0.27127052  1
  P  P278  1  0.79253642  0.24885178  0.52232224  1
  P  P279  1  0.79211805  0.24811236  0.77286544  1
  P  P280  1  0.79185498  0.58208431  0.02248358  1
  P  P281  1  0.79124985  0.58349443  0.27362017  1
  P  P282  1  0.79264201  0.58491208  0.52215651  1
  P  P283  1  0.79134893  0.58344314  0.77390993  1
  P  P284  1  0.79082630  0.91651273  0.02340363  1
  P  P285  1  0.79074926  0.91688301  0.27263609  1
  P  P286  1  0.79210293  0.91785809  0.52208446  1
  P  P287  1  0.79198990  0.91824252  0.77260076  1
  O  O288  1  0.03677962  0.24995314  0.18142895  1
  O  O289  1  0.03848936  0.25016083  0.43307363  1
  O  O290  1  0.03696922  0.24990714  0.68477890  1
  O  O291  1  0.03544172  0.24987476  0.93297188  1
  O  O292  1  0.03606540  0.58139861  0.18258380  1
  O  O293  1  0.03694729  0.58301012  0.43261452  1
  O  O294  1  0.03780714  0.58269518  0.68435857  1
  O  O295  1  0.03679734  0.58110825  0.93327955  1
  O  O296  1  0.03622434  0.91852909  0.18266773  1
  O  O297  1  0.03657657  0.91688382  0.43258391  1
  O  O298  1  0.03671223  0.91498498  0.68302137  1
  O  O299  1  0.03601290  0.91669854  0.93300828  1
  O  O300  1  0.53755496  0.25222522  0.18226577  1
  O  O301  1  0.53820400  0.24986568  0.43198590  1
  O  O302  1  0.53776977  0.24800590  0.68181520  1
  O  O303  1  0.53765468  0.24951242  0.93191004  1
  O  O304  1  0.53738126  0.58269950  0.18382525  1
  O  O305  1  0.53839839  0.58265495  0.43195599  1
  O  O306  1  0.53821369  0.58462440  0.68343643  1
  O  O307  1  0.53687345  0.58381778  0.93246702  1
  O  O308  1  0.53749423  0.91650236  0.18310874  1
  O  O309  1  0.53680308  0.91754942  0.43258245  1
  O  O310  1  0.53739197  0.91737288  0.68222490  1
  O  O311  1  0.53805632  0.91604553  0.93144292  1
  O  O312  1  0.46182118  0.08402467  0.06632979  1
  O  O313  1  0.46320437  0.08345789  0.31803676  1
  O  O314  1  0.46387975  0.08438583  0.56615690  1
  O  O315  1  0.46252395  0.08390350  0.81563784  1
  O  O316  1  0.46389592  0.41599715  0.06833154  1
  O  O317  1  0.46416569  0.41680680  0.31553438  1
  O  O318  1  0.46264043  0.41638276  0.56631648  1
  O  O319  1  0.46274427  0.41532458  0.81744606  1
  O  O320  1  0.46214294  0.75136094  0.06787602  1
  O  O321  1  0.46253840  0.75106444  0.31626720  1
  O  O322  1  0.46415633  0.75024927  0.56825912  1
  O  O323  1  0.46290768  0.74959499  0.81590619  1
  O  O324  1  0.96302949  0.08205195  0.06692276  1
  O  O325  1  0.96211572  0.08271259  0.31681964  1
  O  O326  1  0.96253219  0.08396580  0.56848014  1
  O  O327  1  0.96308215  0.08387045  0.81869739  1
  O  O328  1  0.96332781  0.41733837  0.06708289  1
  O  O329  1  0.96234602  0.41733404  0.31717980  1
  O  O330  1  0.96279907  0.41663312  0.56998824  1
  O  O331  1  0.96358304  0.41596334  0.81841731  1
  O  O332  1  0.96083142  0.74939083  0.06686501  1
  O  O333  1  0.96225900  0.75093732  0.31787765  1
  O  O334  1  0.96332680  0.75185804  0.56776642  1
  O  O335  1  0.96211907  0.75027462  0.81653120  1
  O  O336  1  0.21200148  0.08268325  0.05850625  1
  O  O337  1  0.21313540  0.08194695  0.30782014  1
  O  O338  1  0.21265054  0.08210658  0.55760391  1
  O  O339  1  0.21163568  0.08343172  0.80812784  1
  O  O340  1  0.21281146  0.41690264  0.05755820  1
  O  O341  1  0.21346054  0.41803561  0.30802687  1
  O  O342  1  0.21386252  0.41572057  0.55610720  1
  O  O343  1  0.21324897  0.41484473  0.80723658  1
  O  O344  1  0.21261853  0.75028505  0.05807596  1
  O  O345  1  0.21243801  0.74796064  0.30783162  1
  O  O346  1  0.21312572  0.74956690  0.55728832  1
  O  O347  1  0.21309281  0.75133132  0.80776550  1
  O  O348  1  0.71351310  0.08355055  0.05700938  1
  O  O349  1  0.71324446  0.08352137  0.30623671  1
  O  O350  1  0.71377048  0.08256780  0.55716742  1
  O  O351  1  0.71395090  0.08339988  0.80657779  1
  O  O352  1  0.71371011  0.41790575  0.05834236  1
  O  O353  1  0.71467094  0.41667183  0.30717532  1
  O  O354  1  0.71390210  0.41660758  0.55634453  1
  O  O355  1  0.71272303  0.41687014  0.80879565  1
  O  O356  1  0.71286577  0.74980616  0.05780689  1
  O  O357  1  0.71365480  0.75183152  0.30828140  1
  O  O358  1  0.71394983  0.74987538  0.55652336  1
  O  O359  1  0.71342616  0.74846516  0.80755639  1
  O  O360  1  0.28744930  0.25101954  0.19251505  1
  O  O361  1  0.28674793  0.25098455  0.44153182  1
  O  O362  1  0.28651811  0.25158069  0.69192736  1
  O  O363  1  0.28733971  0.25086706  0.94156574  1
  O  O364  1  0.28562145  0.58350449  0.19267499  1
  O  O365  1  0.28732370  0.58315380  0.44066720  1
  O  O366  1  0.28860815  0.58297603  0.69171190  1
  O  O367  1  0.28694163  0.58332909  0.94382075  1
  O  O368  1  0.28653977  0.91830700  0.19241458  1
  O  O369  1  0.28709902  0.91565795  0.44232087  1
  O  O370  1  0.28680955  0.91412818  0.69239419  1
  O  O371  1  0.28651258  0.91651426  0.94268359  1
  O  O372  1  0.78653411  0.25126454  0.19148442  1
  O  O373  1  0.78743900  0.24964604  0.44237820  1
  O  O374  1  0.78727150  0.24785910  0.69291468  1
  O  O375  1  0.78629314  0.24937726  0.94339007  1
  O  O376  1  0.78654690  0.58292334  0.19366417  1
  O  O377  1  0.78730003  0.58460855  0.44231325  1
  O  O378  1  0.78673992  0.58338382  0.69395217  1
  O  O379  1  0.78634218  0.58218671  0.94266921  1
  O  O380  1  0.78543927  0.91657818  0.19279132  1
  O  O381  1  0.78683400  0.91744182  0.44225040  1
  O  O382  1  0.78683195  0.91830446  0.69268826  1
  O  O383  1  0.78603707  0.91704350  0.94345905  1
  O  O384  1  0.22834303  0.25033086  0.05691856  1
  O  O385  1  0.22822629  0.25120330  0.30795367  1
  O  O386  1  0.22792925  0.25151700  0.55751031  1
  O  O387  1  0.22756481  0.25203520  0.80786120  1
  O  O388  1  0.22732568  0.58303755  0.05952889  1
  O  O389  1  0.22699723  0.58326790  0.30933643  1
  O  O390  1  0.22891057  0.58299267  0.55661812  1
  O  O391  1  0.22894664  0.58310985  0.80668988  1
  O  O392  1  0.22760868  0.91789858  0.05852197  1
  O  O393  1  0.22766613  0.91788615  0.30824189  1
  O  O394  1  0.22813055  0.91411551  0.55807696  1
  O  O395  1  0.22764492  0.91446235  0.80813513  1
  O  O396  1  0.72688163  0.24965591  0.05926020  1
  O  O397  1  0.72831000  0.25173937  0.30793895  1
  O  O398  1  0.72823621  0.24821886  0.55806180  1
  O  O399  1  0.72779313  0.24854904  0.80839782  1
  O  O400  1  0.72781532  0.58191872  0.05892699  1
  O  O401  1  0.72715814  0.58378768  0.30957715  1
  O  O402  1  0.72842834  0.58505586  0.55826458  1
  O  O403  1  0.72715713  0.58388792  0.80994722  1
  O  O404  1  0.72672173  0.91605392  0.05948460  1
  O  O405  1  0.72688133  0.91635699  0.30949229  1
  O  O406  1  0.72798118  0.91814338  0.55831050  1
  O  O407  1  0.72778125  0.91853336  0.80854549  1
  O  O408  1  0.27196301  0.08186740  0.19197934  1
  O  O409  1  0.27197193  0.08174533  0.44206576  1
  O  O410  1  0.27103110  0.08309533  0.69305166  1
  O  O411  1  0.27092937  0.08342008  0.94299474  1
  O  O412  1  0.27212913  0.41883336  0.19200580  1
  O  O413  1  0.27264438  0.41653832  0.43981607  1
  O  O414  1  0.27229020  0.41433999  0.69139048  1
  O  O415  1  0.27222098  0.41490046  0.94205319  1
  O  O416  1  0.27137806  0.74859795  0.19211051  1
  O  O417  1  0.27172195  0.74819804  0.44134081  1
  O  O418  1  0.27231251  0.75140814  0.69199227  1
  O  O419  1  0.27167954  0.75171694  0.94226047  1
  O  O420  1  0.77274304  0.08365479  0.19037363  1
  O  O421  1  0.77243595  0.08238907  0.44099050  1
  O  O422  1  0.77315393  0.08287014  0.69030047  1
  O  O423  1  0.77284774  0.08279604  0.94087582  1
  O  O424  1  0.77341904  0.41750482  0.19065580  1
  O  O425  1  0.77329376  0.41596578  0.44045119  1
  O  O426  1  0.77195657  0.41654561  0.69341614  1
  O  O427  1  0.77230916  0.41778239  0.94219636  1
  O  O428  1  0.77205834  0.75190272  0.19191937  1
  O  O429  1  0.77304985  0.75125375  0.44049887  1
  O  O430  1  0.77270190  0.74870507  0.69177310  1
  O  O431  1  0.77159386  0.74856173  0.94182936  1
  O  O432  1  0.02183466  0.08134231  0.18300549  1
  O  O433  1  0.02128876  0.08315403  0.43203902  1
  O  O434  1  0.02174418  0.08455639  0.68393466  1
  O  O435  1  0.02220566  0.08284668  0.93451624  1
  O  O436  1  0.02204983  0.41820886  0.18313262  1
  O  O437  1  0.02173266  0.41680369  0.43221967  1
  O  O438  1  0.02242280  0.41703130  0.68540366  1
  O  O439  1  0.02245684  0.41529451  0.93456158  1
  O  O440  1  0.02041741  0.74976285  0.18157887  1
  O  O441  1  0.02192799  0.75195899  0.43316448  1
  O  O442  1  0.02186415  0.75150249  0.68370229  1
  O  O443  1  0.02075755  0.74973549  0.93201366  1
  O  O444  1  0.52137532  0.08378417  0.18105772  1
  O  O445  1  0.52308226  0.08355280  0.43341563  1
  O  O446  1  0.52225018  0.08492216  0.68231963  1
  O  O447  1  0.52162156  0.08368685  0.93084441  1
  O  O448  1  0.52345354  0.41644759  0.18398380  1
  O  O449  1  0.52282672  0.41637796  0.43117109  1
  O  O450  1  0.52171642  0.41639275  0.68131663  1
  O  O451  1  0.52226127  0.41521017  0.93264535  1
  O  O452  1  0.52152514  0.75212689  0.18315463  1
  O  O453  1  0.52193023  0.75069594  0.43119815  1
  O  O454  1  0.52338123  0.75042267  0.68404303  1
  O  O455  1  0.52162538  0.74965968  0.93143935  1
  O  O456  1  0.47823483  0.25218811  0.06677888  1
  O  O457  1  0.47873446  0.25164115  0.31681253  1
  O  O458  1  0.47860738  0.24830700  0.56633020  1
  O  O459  1  0.47849939  0.24784823  0.81635570  1
  O  O460  1  0.47813194  0.58305413  0.06869139  1
  O  O461  1  0.47836748  0.58226668  0.31698735  1
  O  O462  1  0.47935318  0.58359536  0.56816946  1
  O  O463  1  0.47794609  0.58462101  0.81685350  1
  O  O464  1  0.47842921  0.91719843  0.06791525  1
  O  O465  1  0.47783884  0.91566413  0.31694794  1
  O  O466  1  0.47814019  0.91851626  0.56686014  1
  O  O467  1  0.47867336  0.91536717  0.81623677  1
  O  O468  1  0.97688380  0.25071805  0.06602684  1
  O  O469  1  0.97888568  0.25001150  0.31829042  1
  O  O470  1  0.97810902  0.25022628  0.56919429  1
  O  O471  1  0.97658706  0.24911211  0.81669823  1
  O  O472  1  0.97728886  0.58107381  0.06691879  1
  O  O473  1  0.97717602  0.58166938  0.31744883  1
  O  O474  1  0.97865668  0.58378326  0.56927675  1
  O  O475  1  0.97808805  0.58146860  0.81759823  1
  O  O476  1  0.97700559  0.91826924  0.06724504  1
  O  O477  1  0.97737713  0.91846993  0.31703135  1
  O  O478  1  0.97771416  0.91502214  0.56741365  1
  O  O479  1  0.97741840  0.91536702  0.81723275  1
  O  O480  1  0.07253241  0.31345606  0.07344492  1
  O  O481  1  0.07437049  0.31333166  0.32464380  1
  O  O482  1  0.07342455  0.31367459  0.57655476  1
  O  O483  1  0.07109090  0.31326327  0.82434046  1
  O  O484  1  0.07229043  0.64530418  0.07493683  1
  O  O485  1  0.07216853  0.64612354  0.32436105  1
  O  O486  1  0.07426117  0.64670378  0.57639358  1
  O  O487  1  0.07350248  0.64500153  0.82584162  1
  O  O488  1  0.07244708  0.98118622  0.07353059  1
  O  O489  1  0.07258922  0.98133073  0.32449002  1
  O  O490  1  0.07277733  0.97916832  0.57558897  1
  O  O491  1  0.07283843  0.97908893  0.82485256  1
  O  O492  1  0.57344914  0.31529702  0.07335217  1
  O  O493  1  0.57425258  0.31410708  0.32370079  1
  O  O494  1  0.57388529  0.31223242  0.57448752  1
  O  O495  1  0.57375004  0.31215257  0.82367517  1
  O  O496  1  0.57321806  0.64713279  0.07623761  1
  O  O497  1  0.57367818  0.64616901  0.32410987  1
  O  O498  1  0.57468483  0.64728719  0.57464026  1
  O  O499  1  0.57321975  0.64753316  0.82422328  1
  O  O500  1  0.57384565  0.98040702  0.07501522  1
  O  O501  1  0.57310191  0.97992272  0.32425356  1
  O  O502  1  0.57315693  0.98167830  0.57384626  1
  O  O503  1  0.57399183  0.97925868  0.82356182  1
  O  O504  1  0.42554478  0.02098125  0.17474945  1
  O  O505  1  0.42806324  0.01997414  0.42656256  1
  O  O506  1  0.42678340  0.02129839  0.67406315  1
  O  O507  1  0.42653637  0.01965498  0.92338877  1
  O  O508  1  0.42815334  0.35304988  0.17699829  1
  O  O509  1  0.42716112  0.35347073  0.42369080  1
  O  O510  1  0.42644232  0.35265479  0.67408512  1
  O  O511  1  0.42746545  0.35143778  0.92604531  1
  O  O512  1  0.42626361  0.68807234  0.17559041  1
  O  O513  1  0.42693987  0.68658123  0.42411956  1
  O  O514  1  0.42843783  0.68648631  0.67624071  1
  O  O515  1  0.42589415  0.68683741  0.92477222  1
  O  O516  1  0.92628630  0.01903934  0.17573305  1
  O  O517  1  0.92552822  0.02025705  0.42552157  1
  O  O518  1  0.92664531  0.02052117  0.67619593  1
  O  O519  1  0.92694880  0.01966467  0.92639170  1
  O  O520  1  0.92713746  0.35367006  0.17480299  1
  O  O521  1  0.92645133  0.35328775  0.42532200  1
  O  O522  1  0.92768507  0.35295679  0.67845043  1
  O  O523  1  0.92699706  0.35252053  0.92666130  1
  O  O524  1  0.92500856  0.68621194  0.17522579  1
  O  O525  1  0.92686704  0.68776638  0.42610168  1
  O  O526  1  0.92661960  0.68783183  0.67514646  1
  O  O527  1  0.92559131  0.68608349  0.92412392  1
  O  O528  1  0.17671341  0.01864875  0.19911449  1
  O  O529  1  0.17714839  0.01783603  0.44951828  1
  O  O530  1  0.17558916  0.01961901  0.70038864  1
  O  O531  1  0.17551975  0.01982108  0.95005142  1
  O  O532  1  0.17691147  0.35470633  0.20007781  1
  O  O533  1  0.17753561  0.35280976  0.44776105  1
  O  O534  1  0.17661111  0.35189205  0.69852485  1
  O  O535  1  0.17671136  0.35247725  0.94948786  1
  O  O536  1  0.17633820  0.68497005  0.19881305  1
  O  O537  1  0.17661796  0.68492164  0.44957231  1
  O  O538  1  0.17736533  0.68697999  0.70029654  1
  O  O539  1  0.17663969  0.68720772  0.94981217  1
  O  O540  1  0.67770200  0.01998666  0.19787521  1
  O  O541  1  0.67761062  0.01880870  0.44854282  1
  O  O542  1  0.67785234  0.01967056  0.69834805  1
  O  O543  1  0.67747671  0.01987576  0.94863700  1
  O  O544  1  0.67892044  0.35344517  0.19836328  1
  O  O545  1  0.67809949  0.35274529  0.44828941  1
  O  O546  1  0.67663152  0.35309765  0.70069297  1
  O  O547  1  0.67703743  0.35409302  0.95070416  1
  O  O548  1  0.67700358  0.68797414  0.20068435  1
  O  O549  1  0.67847733  0.68685731  0.44768303  1
  O  O550  1  0.67764189  0.68536596  0.69858763  1
  O  O551  1  0.67660430  0.68528662  0.94992640  1
  O  O552  1  0.32391524  0.31377420  0.05003171  1
  O  O553  1  0.32311670  0.31509523  0.30061917  1
  O  O554  1  0.32331547  0.31450512  0.54974296  1
  O  O555  1  0.32316092  0.31459740  0.80068292  1
  O  O556  1  0.32204747  0.64736839  0.05193192  1
  O  O557  1  0.32182477  0.64719898  0.30084732  1
  O  O558  1  0.32444577  0.64619968  0.54910534  1
  O  O559  1  0.32424648  0.64664572  0.79991757  1
  O  O560  1  0.32254643  0.98142459  0.05040474  1
  O  O561  1  0.32292929  0.98109511  0.30145184  1
  O  O562  1  0.32317239  0.97862059  0.55065331  1
  O  O563  1  0.32269946  0.97876262  0.79953526  1
  O  O564  1  0.82142544  0.31370614  0.05149690  1
  O  O565  1  0.82345518  0.31478243  0.29997027  1
  O  O566  1  0.82346200  0.31231711  0.55098888  1
  O  O567  1  0.82329556  0.31176801  0.80068028  1
  O  O568  1  0.82294758  0.64575617  0.05053181  1
  O  O569  1  0.82204729  0.64744225  0.30138428  1
  O  O570  1  0.82337646  0.64842654  0.55099642  1
  O  O571  1  0.82263233  0.64677762  0.80221681  1
  O  O572  1  0.82127353  0.98027525  0.05221099  1
  O  O573  1  0.82095356  0.98113393  0.30075913  1
  O  O574  1  0.82323422  0.98117400  0.55075655  1
  O  O575  1  0.82319972  0.98132979  0.80152051  1
  O  O576  1  0.42624913  0.14786613  0.17454413  1
  O  O577  1  0.42810339  0.14751694  0.42604789  1
  O  O578  1  0.42715655  0.14819516  0.67471778  1
  O  O579  1  0.42573644  0.14660571  0.92409035  1
  O  O580  1  0.42861629  0.48042393  0.17637132  1
  O  O581  1  0.42751923  0.48019064  0.42384848  1
  O  O582  1  0.42616873  0.47967124  0.67452222  1
  O  O583  1  0.42668245  0.47864582  0.92548184  1
  O  O584  1  0.42640403  0.81541449  0.17625599  1
  O  O585  1  0.42598238  0.81348209  0.42499123  1
  O  O586  1  0.42842160  0.81411854  0.67614195  1
  O  O587  1  0.42640244  0.81350857  0.92406916  1
  O  O588  1  0.92713082  0.14608802  0.17471975  1
  O  O589  1  0.92618328  0.14713388  0.42464522  1
  O  O590  1  0.92660807  0.14772175  0.67699394  1
  O  O591  1  0.92765590  0.14704124  0.92761102  1
  O  O592  1  0.92666793  0.48069342  0.17598820  1
  O  O593  1  0.92610527  0.48011897  0.42598074  1
  O  O594  1  0.92709251  0.48042721  0.67810243  1
  O  O595  1  0.92787151  0.47973218  0.92678858  1
  O  O596  1  0.92497122  0.81321499  0.17492021  1
  O  O597  1  0.92670253  0.81508976  0.42607590  1
  O  O598  1  0.92664572  0.81495430  0.67639683  1
  O  O599  1  0.92505238  0.81298972  0.92485456  1
  O  O600  1  0.07120050  0.18596905  0.07299347  1
  O  O601  1  0.07423181  0.18643114  0.32473318  1
  O  O602  1  0.07362831  0.18690476  0.57606506  1
  O  O603  1  0.07187215  0.18601005  0.82487475  1
  O  O604  1  0.07281398  0.51822517  0.07391099  1
  O  O605  1  0.07254151  0.51886658  0.32420159  1
  O  O606  1  0.07401241  0.51984065  0.57567973  1
  O  O607  1  0.07321908  0.51785811  0.82476124  1
  O  O608  1  0.07212935  0.85407349  0.07537837  1
  O  O609  1  0.07267173  0.85423250  0.32410966  1
  O  O610  1  0.07310110  0.85207293  0.57395646  1
  O  O611  1  0.07240407  0.85198149  0.82510204  1
  O  O612  1  0.57334263  0.18813835  0.07451148  1
  O  O613  1  0.57382331  0.18703650  0.32345340  1
  O  O614  1  0.57387638  0.18514880  0.57268638  1
  O  O615  1  0.57370896  0.18501678  0.82365716  1
  O  O616  1  0.57394876  0.52018955  0.07506167  1
  O  O617  1  0.57352615  0.51891986  0.32326803  1
  O  O618  1  0.57490713  0.52038090  0.57569739  1
  O  O619  1  0.57300875  0.52025831  0.82480223  1
  O  O620  1  0.57391353  0.85350916  0.07466026  1
  O  O621  1  0.57295896  0.85275576  0.32458600  1
  O  O622  1  0.57363692  0.85455886  0.57410578  1
  O  O623  1  0.57383821  0.85203601  0.82310150  1
  O  O624  1  0.32375689  0.18697047  0.04940636  1
  O  O625  1  0.32378302  0.18779896  0.30018635  1
  O  O626  1  0.32280613  0.18727885  0.54931089  1
  O  O627  1  0.32241104  0.18747733  0.79940288  1
  O  O628  1  0.32255276  0.51981751  0.05206027  1
  O  O629  1  0.32214016  0.51999477  0.30074304  1
  O  O630  1  0.32427476  0.51947439  0.54845848  1
  O  O631  1  0.32436293  0.51965346  0.79992459  1
  O  O632  1  0.32313313  0.85427923  0.05103296  1
  O  O633  1  0.32276532  0.85397000  0.29949240  1
  O  O634  1  0.32352630  0.85144655  0.55023568  1
  O  O635  1  0.32304970  0.85163833  0.80155197  1
  O  O636  1  0.82216443  0.18634001  0.05174056  1
  O  O637  1  0.82343716  0.18782579  0.29905498  1
  O  O638  1  0.82334485  0.18518892  0.55039506  1
  O  O639  1  0.82269294  0.18477089  0.80199149  1
  O  O640  1  0.82299483  0.51883573  0.05119688  1
  O  O641  1  0.82198013  0.52000033  0.30238743  1
  O  O642  1  0.82378109  0.52137571  0.55041383  1
  O  O643  1  0.82146702  0.51932574  0.80229460  1
  O  O644  1  0.82190367  0.85288745  0.05123928  1
  O  O645  1  0.82250815  0.85395145  0.30124654  1
  O  O646  1  0.82306688  0.85431623  0.55054521  1
  O  O647  1  0.82261620  0.85425957  0.80025636  1
  O  O648  1  0.17677322  0.14583043  0.20036994  1
  O  O649  1  0.17638666  0.14517047  0.44979622  1
  O  O650  1  0.17568193  0.14670218  0.69997123  1
  O  O651  1  0.17553651  0.14668700  0.95080874  1
  O  O652  1  0.17686420  0.48161722  0.19946385  1
  O  O653  1  0.17775347  0.48023598  0.44863516  1
  O  O654  1  0.17762784  0.47899336  0.69960690  1
  O  O655  1  0.17730561  0.47961360  0.94912885  1
  O  O656  1  0.17592656  0.81206554  0.20072536  1
  O  O657  1  0.17630809  0.81195030  0.44905870  1
  O  O658  1  0.17677657  0.81408690  0.69881152  1
  O  O659  1  0.17630176  0.81438140  0.95004698  1
  O  O660  1  0.67791008  0.14735090  0.19808571  1
  O  O661  1  0.67702170  0.14569281  0.44911227  1
  O  O662  1  0.67854396  0.14683307  0.69775750  1
  O  O663  1  0.67829753  0.14707602  0.94830795  1
  O  O664  1  0.67817509  0.48063200  0.19935660  1
  O  O665  1  0.67880826  0.48033270  0.44816534  1
  O  O666  1  0.67644795  0.47995032  0.70042944  1
  O  O667  1  0.67711274  0.48100836  0.94966631  1
  O  O668  1  0.67688406  0.81492386  0.19962077  1
  O  O669  1  0.67762708  0.81417934  0.44907632  1
  O  O670  1  0.67765403  0.81249248  0.69995372  1
  O  O671  1  0.67639270  0.81243508  0.94953725  1
