# generated using pymatgen
data_Na2MnFe(PO4)2
_symmetry_space_group_name_H-M   'P 1'
_cell_length_a   22.34456406
_cell_length_b   20.09078490
_cell_length_c   19.44844833
_cell_angle_alpha   90.02495920
_cell_angle_beta   89.99857389
_cell_angle_gamma   90.00123138
_symmetry_Int_Tables_number   1
_chemical_formula_structural   Na2MnFe(PO4)2
_chemical_formula_sum   'Na96 Mn48 Fe48 P96 O384'
_cell_volume   8730.79328410
_cell_formula_units_Z   48
loop_
 _symmetry_equiv_pos_site_id
 _symmetry_equiv_pos_as_xyz
  1  'x, y, z'
loop_
 _atom_site_type_symbol
 _atom_site_label
 _atom_site_symmetry_multiplicity
 _atom_site_fract_x
 _atom_site_fract_y
 _atom_site_fract_z
 _atom_site_occupancy
  Na  Na0  1  0.13940478  0.24993947  0.24474280  1
  Na  Na1  1  0.13986052  0.24999551  0.49303508  1
  Na  Na2  1  0.14009809  0.24941657  0.74311469  1
  Na  Na3  1  0.13999638  0.24981493  0.99306714  1
  Na  Na4  1  0.14030694  0.58489792  0.24350695  1
  Na  Na5  1  0.14037135  0.58284535  0.49425285  1
  Na  Na6  1  0.14041267  0.58258348  0.74274562  1
  Na  Na7  1  0.14093666  0.58421204  0.99320857  1
  Na  Na8  1  0.14084803  0.91806100  0.24365485  1
  Na  Na9  1  0.14039899  0.91790245  0.49410149  1
  Na  Na10  1  0.13994801  0.91620499  0.74374203  1
  Na  Na11  1  0.14000025  0.91730504  0.99355598  1
  Na  Na12  1  0.63974614  0.24909510  0.24261080  1
  Na  Na13  1  0.64036942  0.24833266  0.49253124  1
  Na  Na14  1  0.64008717  0.24898018  0.74463069  1
  Na  Na15  1  0.63956041  0.24987531  0.99371888  1
  Na  Na16  1  0.64096199  0.58373106  0.24410718  1
  Na  Na17  1  0.64061918  0.58380926  0.49346887  1
  Na  Na18  1  0.64050975  0.58479407  0.74422606  1
  Na  Na19  1  0.64082658  0.58278910  0.99414772  1
  Na  Na20  1  0.64071986  0.91610122  0.24385003  1
  Na  Na21  1  0.64065375  0.91499425  0.49425460  1
  Na  Na22  1  0.64053339  0.91685286  0.74332760  1
  Na  Na23  1  0.64060726  0.91580764  0.99427472  1
  Na  Na24  1  0.35936018  0.08344045  0.00632802  1
  Na  Na25  1  0.35913580  0.08541814  0.25643570  1
  Na  Na26  1  0.35974645  0.08494581  0.50548030  1
  Na  Na27  1  0.35942801  0.08290521  0.75617018  1
  Na  Na28  1  0.35915637  0.41528142  0.00656818  1
  Na  Na29  1  0.35922230  0.41572892  0.25590435  1
  Na  Na30  1  0.35928329  0.41598320  0.50536959  1
  Na  Na31  1  0.35910159  0.41536550  0.75579749  1
  Na  Na32  1  0.35998130  0.75110308  0.00669445  1
  Na  Na33  1  0.36020340  0.75152962  0.25612592  1
  Na  Na34  1  0.36012327  0.75096599  0.50678018  1
  Na  Na35  1  0.36028214  0.74996206  0.75702592  1
  Na  Na36  1  0.85944550  0.08372341  0.00657072  1
  Na  Na37  1  0.85973193  0.08347373  0.25601686  1
  Na  Na38  1  0.85950678  0.08241491  0.50731484  1
  Na  Na39  1  0.85999149  0.08385171  0.75627003  1
  Na  Na40  1  0.85975992  0.41572685  0.00506138  1
  Na  Na41  1  0.85912585  0.41671912  0.25618238  1
  Na  Na42  1  0.85933408  0.41591500  0.50615189  1
  Na  Na43  1  0.85958177  0.41665640  0.75661650  1
  Na  Na44  1  0.85997020  0.75025723  0.00613008  1
  Na  Na45  1  0.86032419  0.75022617  0.25784691  1
  Na  Na46  1  0.86060818  0.75025373  0.50731775  1
  Na  Na47  1  0.86041334  0.75078397  0.75621790  1
  Na  Na48  1  0.10943850  0.08516371  0.11878364  1
  Na  Na49  1  0.10998768  0.08407860  0.36898084  1
  Na  Na50  1  0.10980571  0.08302370  0.61830858  1
  Na  Na51  1  0.10910158  0.08230330  0.86800612  1
  Na  Na52  1  0.10937667  0.41667627  0.11859831  1
  Na  Na53  1  0.10944548  0.41628779  0.36948683  1
  Na  Na54  1  0.10970520  0.41673282  0.61792263  1
  Na  Na55  1  0.10960162  0.41549060  0.86704723  1
  Na  Na56  1  0.11035075  0.75084152  0.11839038  1
  Na  Na57  1  0.10988114  0.75035947  0.36924761  1
  Na  Na58  1  0.10940229  0.75022933  0.61969137  1
  Na  Na59  1  0.10973814  0.75024549  0.86830029  1
  Na  Na60  1  0.60915085  0.08317958  0.11842682  1
  Na  Na61  1  0.60982366  0.08276061  0.36828125  1
  Na  Na62  1  0.61004108  0.08214699  0.61774327  1
  Na  Na63  1  0.60958550  0.08342361  0.86902963  1
  Na  Na64  1  0.60940227  0.41476870  0.11876818  1
  Na  Na65  1  0.60953444  0.41680659  0.36752914  1
  Na  Na66  1  0.60950412  0.41620317  0.61901865  1
  Na  Na67  1  0.60917730  0.41604081  0.86934516  1
  Na  Na68  1  0.61055326  0.75009513  0.11959386  1
  Na  Na69  1  0.61004178  0.75026168  0.36880593  1
  Na  Na70  1  0.60997281  0.75016927  0.61960627  1
  Na  Na71  1  0.60998201  0.75012275  0.86887322  1
  Na  Na72  1  0.38962966  0.24927805  0.13097860  1
  Na  Na73  1  0.38967274  0.25039801  0.38083053  1
  Na  Na74  1  0.38994020  0.24949500  0.63037802  1
  Na  Na75  1  0.38945427  0.24969253  0.88213665  1
  Na  Na76  1  0.39066810  0.58376908  0.13158721  1
  Na  Na77  1  0.39067352  0.58461595  0.38053108  1
  Na  Na78  1  0.39055972  0.58343945  0.63166999  1
  Na  Na79  1  0.39079147  0.58389848  0.88137455  1
  Na  Na80  1  0.39051967  0.91606302  0.13160905  1
  Na  Na81  1  0.39044941  0.91789758  0.38118796  1
  Na  Na82  1  0.39045525  0.91627463  0.63123718  1
  Na  Na83  1  0.39047480  0.91631684  0.88124804  1
  Na  Na84  1  0.88991963  0.25083477  0.13020775  1
  Na  Na85  1  0.89012436  0.24950139  0.38173643  1
  Na  Na86  1  0.89001135  0.24918940  0.63172438  1
  Na  Na87  1  0.88977846  0.24874602  0.88127086  1
  Na  Na88  1  0.89074001  0.58343321  0.13137652  1
  Na  Na89  1  0.89046543  0.58404164  0.38211791  1
  Na  Na90  1  0.89083088  0.58429981  0.63106151  1
  Na  Na91  1  0.89089482  0.58293751  0.88042522  1
  Na  Na92  1  0.89011291  0.91767889  0.13231516  1
  Na  Na93  1  0.89061411  0.91702533  0.38216954  1
  Na  Na94  1  0.89093963  0.91618595  0.63222195  1
  Na  Na95  1  0.89030179  0.91645029  0.88059840  1
  Mn  Mn96  1  0.75053050  0.49912527  0.12435791  1
  Mn  Mn97  1  0.24941395  0.00101418  0.12439021  1
  Mn  Mn98  1  -0.00077268  0.83416879  -0.00032920  1
  Mn  Mn99  1  0.49974509  0.50000952  0.24967179  1
  Mn  Mn100  1  0.49993142  0.33231628  0.49887453  1
  Mn  Mn101  1  0.50031862  0.66806842  0.50079934  1
  Mn  Mn102  1  0.49973552  -0.00004059  0.24986623  1
  Mn  Mn103  1  0.74968204  0.16658258  0.12525233  1
  Mn  Mn104  1  0.25025550  0.66710931  0.37497008  1
  Mn  Mn105  1  0.74995090  0.50027733  0.62549966  1
  Mn  Mn106  1  0.25004390  0.66607394  0.62541015  1
  Mn  Mn107  1  0.49976590  0.16611914  0.74989159  1
  Mn  Mn108  1  0.50035308  0.49935799  0.00087027  1
  Mn  Mn109  1  -0.00008054  0.50064638  0.49980866  1
  Mn  Mn110  1  0.75069659  0.83323670  0.87487274  1
  Mn  Mn111  1  -0.00037687  0.16644173  -0.00042110  1
  Mn  Mn112  1  0.00097174  0.49929281  -0.00017222  1
  Mn  Mn113  1  0.00086776  0.83331547  0.25051343  1
  Mn  Mn114  1  0.25028695  0.49909960  0.87466379  1
  Mn  Mn115  1  0.50017803  -0.00054217  0.00016075  1
  Mn  Mn116  1  0.75001330  0.33300837  0.37519476  1
  Mn  Mn117  1  0.24999979  -0.00032859  0.87588214  1
  Mn  Mn118  1  -0.00061995  0.33297395  0.24993368  1
  Mn  Mn119  1  -0.00021694  0.33268235  0.74896334  1
  Mn  Mn120  1  0.74990540  0.16485196  0.37412664  1
  Mn  Mn121  1  0.24958259  0.16693376  0.62494513  1
  Mn  Mn122  1  0.24987371  0.83494287  0.37537241  1
  Mn  Mn123  1  0.50075102  0.66753886  0.00088473  1
  Mn  Mn124  1  0.74890519  0.33225848  0.62521410  1
  Mn  Mn125  1  0.49957991  0.50031189  0.75023329  1
  Mn  Mn126  1  0.50021903  -0.00029743  0.49933707  1
  Mn  Mn127  1  0.25052401  0.66727453  0.87459377  1
  Mn  Mn128  1  0.75154539  0.66693048  0.12533246  1
  Mn  Mn129  1  0.75120148  0.83378091  0.37547786  1
  Mn  Mn130  1  0.50021841  0.50043822  0.49946718  1
  Mn  Mn131  1  0.75116085  0.66744244  0.62428275  1
  Mn  Mn132  1  0.49985916  0.33264425  0.74969904  1
  Mn  Mn133  1  0.25011572  0.83438912  0.62507047  1
  Mn  Mn134  1  0.74971074  0.50010215  0.87525114  1
  Mn  Mn135  1  0.49967673  -0.00099897  0.74956060  1
  Mn  Mn136  1  0.00031810  0.00133271  0.25126837  1
  Mn  Mn137  1  0.24895551  0.33216943  0.12541241  1
  Mn  Mn138  1  -0.00031760  0.50088397  0.25003367  1
  Mn  Mn139  1  0.25030299  0.49953943  0.37415774  1
  Mn  Mn140  1  0.24924574  0.50043998  0.12502911  1
  Mn  Mn141  1  0.00047043  0.66646740  -0.00081402  1
  Mn  Mn142  1  0.75055283  0.00068428  0.87457678  1
  Mn  Mn143  1  0.00015275  0.00007868  0.50051346  1
  Fe  Fe144  1  0.25003494  0.83363796  0.87517022  1
  Fe  Fe145  1  -0.00046886  0.33327231  0.50008016  1
  Fe  Fe146  1  -0.00022912  0.33297224  -0.00069080  1
  Fe  Fe147  1  0.49971122  0.16691081  0.24911701  1
  Fe  Fe148  1  0.75044310  0.66675159  0.37520944  1
  Fe  Fe149  1  0.74941206  0.16647144  0.87518807  1
  Fe  Fe150  1  0.24907091  0.33328899  0.37527322  1
  Fe  Fe151  1  0.00059586  0.66745010  0.50111559  1
  Fe  Fe152  1  0.74954707  0.33301547  0.12472739  1
  Fe  Fe153  1  -0.00021011  0.49974450  0.74915308  1
  Fe  Fe154  1  0.50043370  0.66745855  0.25043836  1
  Fe  Fe155  1  0.00009119  0.83311731  0.75002664  1
  Fe  Fe156  1  0.75008354  0.00006304  0.62518030  1
  Fe  Fe157  1  0.25032993  0.83420861  0.12508362  1
  Fe  Fe158  1  0.00016835  0.66659845  0.74973975  1
  Fe  Fe159  1  0.24947154  0.16706866  0.12549621  1
  Fe  Fe160  1  0.74984790  -0.00005152  0.12489363  1
  Fe  Fe161  1  0.25044901  0.49896807  0.62446868  1
  Fe  Fe162  1  0.75053110  0.83352653  0.12574647  1
  Fe  Fe163  1  0.75021164  -0.00090397  0.37569035  1
  Fe  Fe164  1  -0.00038982  0.16720366  0.24995070  1
  Fe  Fe165  1  0.25017233  0.00136237  0.37434137  1
  Fe  Fe166  1  -0.00027103  0.00002250  -0.00064232  1
  Fe  Fe167  1  0.24968185  0.16720083  0.37553157  1
  Fe  Fe168  1  0.24991331  0.33282230  0.62487646  1
  Fe  Fe169  1  0.49909940  0.33260455  0.00008214  1
  Fe  Fe170  1  0.49938436  0.16657663  0.00009972  1
  Fe  Fe171  1  0.74968924  0.49948600  0.37487033  1
  Fe  Fe172  1  0.24941572  0.33276240  0.87479678  1
  Fe  Fe173  1  -0.00060737  0.16649925  0.50049604  1
  Fe  Fe174  1  0.24931823  0.16638623  0.87471208  1
  Fe  Fe175  1  0.75029722  0.66715413  0.87503926  1
  Fe  Fe176  1  0.00057868  0.83313539  0.50100663  1
  Fe  Fe177  1  -0.00003111  -0.00041398  0.74954058  1
  Fe  Fe178  1  0.50057011  0.83304776  0.75057389  1
  Fe  Fe179  1  0.49936076  0.33263727  0.24940138  1
  Fe  Fe180  1  0.50050396  0.83336957  0.25034630  1
  Fe  Fe181  1  0.25021671  0.00063726  0.62524809  1
  Fe  Fe182  1  0.00041133  0.66738017  0.25049947  1
  Fe  Fe183  1  0.50034913  0.16664003  0.49894212  1
  Fe  Fe184  1  -0.00003700  0.16619162  0.75009408  1
  Fe  Fe185  1  0.49975227  0.83318412  0.50027743  1
  Fe  Fe186  1  0.74993832  0.16615529  0.62522799  1
  Fe  Fe187  1  0.75001684  0.83335288  0.62487404  1
  Fe  Fe188  1  0.50044969  0.66720584  0.75063906  1
  Fe  Fe189  1  0.25073424  0.66792833  0.12431292  1
  Fe  Fe190  1  0.74947415  0.33271428  0.87494975  1
  Fe  Fe191  1  0.50031188  0.83313124  0.00037895  1
  P  P192  1  0.04197257  0.25113593  0.10214323  1
  P  P193  1  0.04136172  0.24873876  0.35350485  1
  P  P194  1  0.04100375  0.24950936  0.60171042  1
  P  P195  1  0.04175000  0.24856884  0.85222483  1
  P  P196  1  0.04336307  0.58390884  0.10321105  1
  P  P197  1  0.04226397  0.58544144  0.35314724  1
  P  P198  1  0.04217174  0.58473173  0.60333820  1
  P  P199  1  0.04190245  0.58270992  0.85080529  1
  P  P200  1  0.04196821  0.91860132  0.10231182  1
  P  P201  1  0.04312494  0.91677128  0.35412033  1
  P  P202  1  0.04211148  0.91537135  0.60362250  1
  P  P203  1  0.04110123  0.91670595  0.85155771  1
  P  P204  1  0.54063307  0.24955620  0.10210453  1
  P  P205  1  0.54149181  0.24951313  0.35100309  1
  P  P206  1  0.54264640  0.24829178  0.60172971  1
  P  P207  1  0.54191876  0.24957031  0.85411661  1
  P  P208  1  0.54319104  0.58359557  0.10416586  1
  P  P209  1  0.54239848  0.58494313  0.35226794  1
  P  P210  1  0.54298587  0.58397897  0.60372982  1
  P  P211  1  0.54238136  0.58458239  0.85292977  1
  P  P212  1  0.54226578  0.91499176  0.10312799  1
  P  P213  1  0.54233442  0.91543522  0.35275396  1
  P  P214  1  0.54223502  0.91484469  0.60260769  1
  P  P215  1  0.54262066  0.91523815  0.85295211  1
  P  P216  1  0.45762187  0.08449092  0.14700036  1
  P  P217  1  0.45809746  0.08487780  0.39644933  1
  P  P218  1  0.45713449  0.08294722  0.64596146  1
  P  P219  1  0.45743741  0.08382263  0.89785168  1
  P  P220  1  0.45749512  0.41470385  0.14707601  1
  P  P221  1  0.45724817  0.41646054  0.39581620  1
  P  P222  1  0.45711844  0.41634027  0.64655918  1
  P  P223  1  0.45732442  0.41557211  0.89795099  1
  P  P224  1  0.45910108  0.75058821  0.14853979  1
  P  P225  1  0.45789131  0.75180237  0.39704236  1
  P  P226  1  0.45850669  0.75050465  0.64885654  1
  P  P227  1  0.45820543  0.75135466  0.89739057  1
  P  P228  1  0.95769405  0.08489027  0.14742137  1
  P  P229  1  0.95765461  0.08482876  0.39783633  1
  P  P230  1  0.95897407  0.08337877  0.64818066  1
  P  P231  1  0.95753696  0.08158113  0.89650540  1
  P  P232  1  0.95707329  0.41666389  0.14649838  1
  P  P233  1  0.95758209  0.41575103  0.39773562  1
  P  P234  1  0.95760757  0.41748612  0.64674790  1
  P  P235  1  0.95818105  0.41522745  0.89650858  1
  P  P236  1  0.95798033  0.74933361  0.14791342  1
  P  P237  1  0.95907728  0.75016813  0.39895269  1
  P  P238  1  0.95895722  0.75002668  0.64801842  1
  P  P239  1  0.95759940  0.74994700  0.89568962  1
  P  P240  1  0.20744757  0.08513312  0.22816079  1
  P  P241  1  0.20864989  0.08347397  0.47685967  1
  P  P242  1  0.20766992  0.08239433  0.72782700  1
  P  P243  1  0.20718957  0.08488873  0.97757854  1
  P  P244  1  0.20653775  0.41627798  0.22847512  1
  P  P245  1  0.20773531  0.41573529  0.47810078  1
  P  P246  1  0.20833852  0.41559680  0.72644188  1
  P  P247  1  0.20732810  0.41517030  0.97705209  1
  P  P248  1  0.20893508  0.75103023  0.22645450  1
  P  P249  1  0.20746232  0.75062726  0.47829842  1
  P  P250  1  0.20757693  0.75047228  0.72856884  1
  P  P251  1  0.20825917  0.75180186  0.97805347  1
  P  P252  1  0.70749032  0.08120172  0.22755106  1
  P  P253  1  0.70794139  0.08093033  0.47819273  1
  P  P254  1  0.70834688  0.08359598  0.72683225  1
  P  P255  1  0.70769252  0.08407064  0.97789191  1
  P  P256  1  0.70774374  0.41560256  0.22764761  1
  P  P257  1  0.70711190  0.41741283  0.47744126  1
  P  P258  1  0.70717212  0.41615462  0.72883091  1
  P  P259  1  0.70764986  0.41483436  0.97764851  1
  P  P260  1  0.70904892  0.75098386  0.22829291  1
  P  P261  1  0.70862794  0.74940359  0.47756956  1
  P  P262  1  0.70843556  0.75119184  0.72762642  1
  P  P263  1  0.70830646  0.74915746  0.97796523  1
  P  P264  1  0.29134037  0.24823835  0.02183605  1
  P  P265  1  0.29051975  0.25008675  0.27352682  1
  P  P266  1  0.29154903  0.25118892  0.52175128  1
  P  P267  1  0.29094996  0.24981684  0.77316332  1
  P  P268  1  0.29234037  0.58461941  0.02255336  1
  P  P269  1  0.29282221  0.58427030  0.27090976  1
  P  P270  1  0.29247943  0.58188637  0.52254200  1
  P  P271  1  0.29285418  0.58231200  0.77137444  1
  P  P272  1  0.29221513  0.91591603  0.02245039  1
  P  P273  1  0.29226921  0.91878671  0.27202212  1
  P  P274  1  0.29231544  0.91949133  0.52213448  1
  P  P275  1  0.29233348  0.91594300  0.77260401  1
  P  P276  1  0.79145928  0.25101787  0.02175382  1
  P  P277  1  0.79242797  0.24977186  0.27141372  1
  P  P278  1  0.79184766  0.24804540  0.52275453  1
  P  P279  1  0.79110494  0.24909183  0.77320594  1
  P  P280  1  0.79338057  0.58341587  0.02136386  1
  P  P281  1  0.79179870  0.58290019  0.27377810  1
  P  P282  1  0.79280764  0.58286008  0.52081822  1
  P  P283  1  0.79243748  0.58494576  0.77271816  1
  P  P284  1  0.79169637  0.91656680  0.02366529  1
  P  P285  1  0.79276526  0.91824173  0.27218057  1
  P  P286  1  0.79202568  0.91671857  0.52376320  1
  P  P287  1  0.79264534  0.91713951  0.77080821  1
  O  O288  1  0.03685491  0.25055059  0.18207644  1
  O  O289  1  0.03582768  0.24907097  0.43336735  1
  O  O290  1  0.03631967  0.24919712  0.68172215  1
  O  O291  1  0.03649429  0.24946910  0.93211582  1
  O  O292  1  0.03820860  0.58443610  0.18319197  1
  O  O293  1  0.03696900  0.58564106  0.43310968  1
  O  O294  1  0.03652951  0.58415189  0.68320366  1
  O  O295  1  0.03714342  0.58251487  0.93084333  1
  O  O296  1  0.03724947  0.91840657  0.18231019  1
  O  O297  1  0.03789894  0.91630850  0.43405904  1
  O  O298  1  0.03650340  0.91544794  0.68348105  1
  O  O299  1  0.03604562  0.91752760  0.93152154  1
  O  O300  1  0.53542139  0.24970756  0.18204375  1
  O  O301  1  0.53682878  0.24898651  0.43103200  1
  O  O302  1  0.53767152  0.24855752  0.68171271  1
  O  O303  1  0.53640834  0.24966936  0.93402692  1
  O  O304  1  0.53778131  0.58414732  0.18407409  1
  O  O305  1  0.53729917  0.58483999  0.43226761  1
  O  O306  1  0.53773103  0.58426828  0.68370213  1
  O  O307  1  0.53733430  0.58419763  0.93293227  1
  O  O308  1  0.53679014  0.91522169  0.18304313  1
  O  O309  1  0.53693067  0.91544342  0.43267595  1
  O  O310  1  0.53701574  0.91483307  0.68258358  1
  O  O311  1  0.53745157  0.91530790  0.93292932  1
  O  O312  1  0.46297064  0.08456152  0.06706588  1
  O  O313  1  0.46341231  0.08487627  0.31650220  1
  O  O314  1  0.46242661  0.08327688  0.56600901  1
  O  O315  1  0.46237241  0.08323649  0.81784416  1
  O  O316  1  0.46290713  0.41441561  0.06711531  1
  O  O317  1  0.46236817  0.41596342  0.31584005  1
  O  O318  1  0.46229929  0.41635513  0.56659253  1
  O  O319  1  0.46243441  0.41597734  0.81795865  1
  O  O320  1  0.46401680  0.75097174  0.06857169  1
  O  O321  1  0.46349041  0.75127585  0.31718394  1
  O  O322  1  0.46332086  0.75103703  0.56883387  1
  O  O323  1  0.46368406  0.75085719  0.81751851  1
  O  O324  1  0.96275294  0.08408385  0.06748307  1
  O  O325  1  0.96287999  0.08521504  0.31789325  1
  O  O326  1  0.96368767  0.08363938  0.56819435  1
  O  O327  1  0.96296546  0.08177527  0.81664975  1
  O  O328  1  0.96243331  0.41623765  0.06653675  1
  O  O329  1  0.96261660  0.41601007  0.31778141  1
  O  O330  1  0.96301163  0.41695799  0.56683182  1
  O  O331  1  0.96337063  0.41594093  0.81652263  1
  O  O332  1  0.96265555  0.74969164  0.06790158  1
  O  O333  1  0.96405302  0.74981611  0.31894595  1
  O  O334  1  0.96445018  0.74998496  0.56811142  1
  O  O335  1  0.96307499  0.74994712  0.81580161  1
  O  O336  1  0.21219431  0.08518367  0.05754387  1
  O  O337  1  0.21299550  0.08456896  0.30802072  1
  O  O338  1  0.21333247  0.08339324  0.55684794  1
  O  O339  1  0.21276159  0.08302139  0.80775935  1
  O  O340  1  0.21212679  0.41547592  0.05702954  1
  O  O341  1  0.21181176  0.41586535  0.30841930  1
  O  O342  1  0.21351712  0.41613911  0.55795948  1
  O  O343  1  0.21314087  0.41533960  0.80645358  1
  O  O344  1  0.21405051  0.75157823  0.05795292  1
  O  O345  1  0.21371089  0.75093619  0.30648118  1
  O  O346  1  0.21265361  0.75049603  0.55821743  1
  O  O347  1  0.21272252  0.75094359  0.80853009  1
  O  O348  1  0.71295104  0.08336916  0.05780943  1
  O  O349  1  0.71250190  0.08092553  0.30752603  1
  O  O350  1  0.71333338  0.08142756  0.55808353  1
  O  O351  1  0.71326037  0.08428914  0.80681999  1
  O  O352  1  0.71291691  0.41470095  0.05762563  1
  O  O353  1  0.71315165  0.41647111  0.30760979  1
  O  O354  1  0.71203107  0.41701870  0.55745733  1
  O  O355  1  0.71263778  0.41563740  0.80875689  1
  O  O356  1  0.71377343  0.74990733  0.05788145  1
  O  O357  1  0.71443330  0.75043134  0.30822247  1
  O  O358  1  0.71358093  0.75014251  0.55752889  1
  O  O359  1  0.71363282  0.75044554  0.80757112  1
  O  O360  1  0.28572881  0.24911815  0.19356353  1
  O  O361  1  0.28624930  0.25103726  0.44190861  1
  O  O362  1  0.28597565  0.25032111  0.69316942  1
  O  O363  1  0.28592840  0.24842998  0.94197780  1
  O  O364  1  0.28734489  0.58503151  0.19098107  1
  O  O365  1  0.28752162  0.58219092  0.44251781  1
  O  O366  1  0.28753327  0.58163167  0.69143387  1
  O  O367  1  0.28742714  0.58428659  0.94253950  1
  O  O368  1  0.28671491  0.91792089  0.19210354  1
  O  O369  1  0.28695699  0.91966829  0.44218134  1
  O  O370  1  0.28713709  0.91685395  0.69266832  1
  O  O371  1  0.28711561  0.91557489  0.94250085  1
  O  O372  1  0.78712587  0.25037490  0.19147948  1
  O  O373  1  0.78698206  0.24815671  0.44278916  1
  O  O374  1  0.78605995  0.24851601  0.69320165  1
  O  O375  1  0.78596962  0.25058639  0.94186294  1
  O  O376  1  0.78731162  0.58298390  0.19371119  1
  O  O377  1  0.78727386  0.58279088  0.44092979  1
  O  O378  1  0.78736953  0.58466955  0.69273713  1
  O  O379  1  0.78786658  0.58406835  0.94147621  1
  O  O380  1  0.78737126  0.91795314  0.19232040  1
  O  O381  1  0.78720537  0.91717419  0.44374047  1
  O  O382  1  0.78712990  0.91699321  0.69098012  1
  O  O383  1  0.78702531  0.91665390  0.94363924  1
  O  O384  1  0.22716464  0.24781010  0.05802122  1
  O  O385  1  0.22644106  0.25074003  0.30955463  1
  O  O386  1  0.22740763  0.25150679  0.55789934  1
  O  O387  1  0.22673324  0.24975755  0.80898531  1
  O  O388  1  0.22798829  0.58515196  0.05783919  1
  O  O389  1  0.22855723  0.58369383  0.30648471  1
  O  O390  1  0.22814696  0.58189248  0.55791176  1
  O  O391  1  0.22855257  0.58289674  0.80677022  1
  O  O392  1  0.22789702  0.91594213  0.05802051  1
  O  O393  1  0.22809322  0.91945535  0.30805600  1
  O  O394  1  0.22808249  0.91928504  0.55800270  1
  O  O395  1  0.22806143  0.91544680  0.80839884  1
  O  O396  1  0.72738750  0.25108924  0.05813252  1
  O  O397  1  0.72811709  0.24943200  0.30677247  1
  O  O398  1  0.72741329  0.24764419  0.55796591  1
  O  O399  1  0.72697276  0.24896270  0.80929780  1
  O  O400  1  0.72917730  0.58343971  0.05701045  1
  O  O401  1  0.72753949  0.58275467  0.30936803  1
  O  O402  1  0.72862710  0.58351093  0.55664068  1
  O  O403  1  0.72812621  0.58504374  0.80825387  1
  O  O404  1  0.72748548  0.91578406  0.05938560  1
  O  O405  1  0.72859882  0.91798955  0.30833834  1
  O  O406  1  0.72779624  0.91665190  0.55958711  1
  O  O407  1  0.72858083  0.91706159  0.80689374  1
  O  O408  1  0.27154348  0.08522819  0.19181960  1
  O  O409  1  0.27278149  0.08317206  0.44092596  1
  O  O410  1  0.27192388  0.08255031  0.69206690  1
  O  O411  1  0.27152411  0.08472708  0.94205975  1
  O  O412  1  0.27080477  0.41623917  0.19301598  1
  O  O413  1  0.27173156  0.41489291  0.44153451  1
  O  O414  1  0.27254906  0.41514977  0.69057727  1
  O  O415  1  0.27178118  0.41471752  0.94189441  1
  O  O416  1  0.27318566  0.75135526  0.19077788  1
  O  O417  1  0.27187031  0.75088642  0.44323574  1
  O  O418  1  0.27188202  0.75026422  0.69322108  1
  O  O419  1  0.27236317  0.75221762  0.94172547  1
  O  O420  1  0.77177995  0.08182262  0.19201158  1
  O  O421  1  0.77214792  0.08084805  0.44211951  1
  O  O422  1  0.77258662  0.08325797  0.69099442  1
  O  O423  1  0.77192194  0.08511298  0.94202280  1
  O  O424  1  0.77194908  0.41476957  0.19172097  1
  O  O425  1  0.77154872  0.41774333  0.44218135  1
  O  O426  1  0.77141019  0.41591404  0.69325502  1
  O  O427  1  0.77180616  0.41518385  0.94179783  1
  O  O428  1  0.77323700  0.75176428  0.19237851  1
  O  O429  1  0.77295757  0.74896469  0.44215273  1
  O  O430  1  0.77269295  0.75198805  0.69188103  1
  O  O431  1  0.77254295  0.74855852  0.94206131  1
  O  O432  1  0.02195828  0.08558348  0.18322007  1
  O  O433  1  0.02191865  0.08477397  0.43357553  1
  O  O434  1  0.02309574  0.08407078  0.68405303  1
  O  O435  1  0.02166993  0.08160200  0.93271109  1
  O  O436  1  0.02132839  0.41698450  0.18199800  1
  O  O437  1  0.02183968  0.41582706  0.43327492  1
  O  O438  1  0.02184869  0.41762499  0.68253695  1
  O  O439  1  0.02241820  0.41455444  0.93234931  1
  O  O440  1  0.02247450  0.74866760  0.18311020  1
  O  O441  1  0.02322475  0.75074690  0.43497333  1
  O  O442  1  0.02281647  0.75011804  0.68477590  1
  O  O443  1  0.02176242  0.75066882  0.93153500  1
  O  O444  1  0.52182490  0.08439082  0.18283389  1
  O  O445  1  0.52228099  0.08466969  0.43241207  1
  O  O446  1  0.52147087  0.08263289  0.68129944  1
  O  O447  1  0.52175987  0.08404235  0.93326657  1
  O  O448  1  0.52166429  0.41470632  0.18297552  1
  O  O449  1  0.52160608  0.41638625  0.43108543  1
  O  O450  1  0.52148408  0.41652568  0.68177082  1
  O  O451  1  0.52165812  0.41492649  0.93341325  1
  O  O452  1  0.52328646  0.75049853  0.18446369  1
  O  O453  1  0.52208760  0.75223375  0.43317626  1
  O  O454  1  0.52273756  0.75018698  0.68476029  1
  O  O455  1  0.52243533  0.75187600  0.93342822  1
  O  O456  1  0.47659556  0.24944898  0.06576092  1
  O  O457  1  0.47713108  0.24974959  0.31548799  1
  O  O458  1  0.47819324  0.24795481  0.56645612  1
  O  O459  1  0.47769810  0.24953361  0.81834534  1
  O  O460  1  0.47892109  0.58350972  0.06868477  1
  O  O461  1  0.47812013  0.58507939  0.31671296  1
  O  O462  1  0.47865060  0.58396057  0.56836393  1
  O  O463  1  0.47809216  0.58510194  0.81736303  1
  O  O464  1  0.47808511  0.91492418  0.06713453  1
  O  O465  1  0.47812314  0.91540013  0.31688234  1
  O  O466  1  0.47800711  0.91508019  0.56676877  1
  O  O467  1  0.47829583  0.91489152  0.81734755  1
  O  O468  1  0.97770860  0.25146177  0.06636521  1
  O  O469  1  0.97730104  0.24825278  0.31709505  1
  O  O470  1  0.97674321  0.24920096  0.56607456  1
  O  O471  1  0.97752570  0.24821840  0.81636387  1
  O  O472  1  0.97900735  0.58313553  0.06795138  1
  O  O473  1  0.97802087  0.58568111  0.31724158  1
  O  O474  1  0.97815422  0.58483560  0.56696341  1
  O  O475  1  0.97767129  0.58267159  0.81508848  1
  O  O476  1  0.97753067  0.91894488  0.06700296  1
  O  O477  1  0.97881466  0.91685938  0.31878088  1
  O  O478  1  0.97808476  0.91522913  0.56722112  1
  O  O479  1  0.97706883  0.91594396  0.81542114  1
  O  O480  1  0.07263861  0.31477331  0.07372027  1
  O  O481  1  0.07241208  0.31238399  0.32543423  1
  O  O482  1  0.07090585  0.31381976  0.57344379  1
  O  O483  1  0.07302141  0.31175019  0.82361948  1
  O  O484  1  0.07416865  0.64729063  0.07439163  1
  O  O485  1  0.07341270  0.64857305  0.32424082  1
  O  O486  1  0.07313442  0.64830691  0.57508766  1
  O  O487  1  0.07256336  0.64668870  0.82317752  1
  O  O488  1  0.07280809  0.98201975  0.07375403  1
  O  O489  1  0.07396460  0.98052729  0.32621829  1
  O  O490  1  0.07323856  0.97909270  0.57583074  1
  O  O491  1  0.07157859  0.98040075  0.82263269  1
  O  O492  1  0.57152944  0.31313312  0.07357995  1
  O  O493  1  0.57211961  0.31341304  0.32296692  1
  O  O494  1  0.57347228  0.31205602  0.57384759  1
  O  O495  1  0.57315133  0.31285529  0.82552883  1
  O  O496  1  0.57463760  0.64669517  0.07567461  1
  O  O497  1  0.57315433  0.64858402  0.32409246  1
  O  O498  1  0.57421525  0.64733450  0.57539239  1
  O  O499  1  0.57325170  0.64810843  0.82466094  1
  O  O500  1  0.57314698  0.97885078  0.07536760  1
  O  O501  1  0.57316985  0.97930242  0.32500058  1
  O  O502  1  0.57330686  0.97852673  0.57479432  1
  O  O503  1  0.57318927  0.97925443  0.82504981  1
  O  O504  1  0.42663342  0.02064492  0.17455897  1
  O  O505  1  0.42701667  0.02111785  0.42398143  1
  O  O506  1  0.42613430  0.01938663  0.67418409  1
  O  O507  1  0.42648435  0.02013723  0.92578661  1
  O  O508  1  0.42632257  0.35150573  0.17578223  1
  O  O509  1  0.42594430  0.35326130  0.42434644  1
  O  O510  1  0.42627311  0.35262417  0.67449387  1
  O  O511  1  0.42620802  0.35215560  0.92614215  1
  O  O512  1  0.42852201  0.68658695  0.17641492  1
  O  O513  1  0.42686306  0.68824944  0.42545637  1
  O  O514  1  0.42791716  0.68653351  0.67678299  1
  O  O515  1  0.42723953  0.68775451  0.92576837  1
  O  O516  1  0.92683781  0.02142012  0.17600857  1
  O  O517  1  0.92685419  0.02082231  0.42534151  1
  O  O518  1  0.92905788  0.01900049  0.67619787  1
  O  O519  1  0.92676781  0.01815413  0.92545870  1
  O  O520  1  0.92575854  0.35346980  0.17489654  1
  O  O521  1  0.92708412  0.35200690  0.42615763  1
  O  O522  1  0.92621598  0.35407365  0.67472528  1
  O  O523  1  0.92735263  0.35152376  0.92461677  1
  O  O524  1  0.92698843  0.68600707  0.17649099  1
  O  O525  1  0.92836498  0.68657749  0.42747467  1
  O  O526  1  0.92802246  0.68632839  0.67623627  1
  O  O527  1  0.92688411  0.68628665  0.92399981  1
  O  O528  1  0.17616678  0.02173977  0.19967378  1
  O  O529  1  0.17722139  0.02036995  0.44830532  1
  O  O530  1  0.17739075  0.01849513  0.69946006  1
  O  O531  1  0.17638456  0.02081535  0.95014016  1
  O  O532  1  0.17513187  0.35308578  0.20007101  1
  O  O533  1  0.17628416  0.35245392  0.44980027  1
  O  O534  1  0.17692103  0.35232010  0.69804298  1
  O  O535  1  0.17655575  0.35172211  0.94839701  1
  O  O536  1  0.17849795  0.68723184  0.19796445  1
  O  O537  1  0.17654940  0.68708583  0.45009223  1
  O  O538  1  0.17661428  0.68672790  0.70075752  1
  O  O539  1  0.17723667  0.68806232  0.95002556  1
  O  O540  1  0.67693124  0.01781271  0.19841246  1
  O  O541  1  0.67708889  0.01736001  0.44973527  1
  O  O542  1  0.67751142  0.01971606  0.69903946  1
  O  O543  1  0.67717622  0.02024313  0.94953799  1
  O  O544  1  0.67673635  0.35197213  0.19963280  1
  O  O545  1  0.67633264  0.35354545  0.44960784  1
  O  O546  1  0.67556698  0.35305858  0.70035468  1
  O  O547  1  0.67680727  0.35154068  0.94873585  1
  O  O548  1  0.67807737  0.68740795  0.20020137  1
  O  O549  1  0.67786058  0.68579648  0.44907844  1
  O  O550  1  0.67749009  0.68769394  0.69931901  1
  O  O551  1  0.67743005  0.68552979  0.94969561  1
  O  O552  1  0.32216651  0.31199165  0.05011638  1
  O  O553  1  0.32160374  0.31384098  0.30106745  1
  O  O554  1  0.32282198  0.31430381  0.55061966  1
  O  O555  1  0.32185711  0.31327636  0.80187910  1
  O  O556  1  0.32333229  0.64817079  0.05079717  1
  O  O557  1  0.32388944  0.64749178  0.29981037  1
  O  O558  1  0.32369111  0.64551466  0.55031903  1
  O  O559  1  0.32410522  0.64591056  0.79911377  1
  O  O560  1  0.32301162  0.97996760  0.04982478  1
  O  O561  1  0.32327667  0.98244413  0.29988213  1
  O  O562  1  0.32310067  0.98278002  0.55115240  1
  O  O563  1  0.32343727  0.97941341  0.80096393  1
  O  O564  1  0.82232301  0.31450946  0.05033378  1
  O  O565  1  0.82374651  0.31286678  0.30016358  1
  O  O566  1  0.82249304  0.31196227  0.55055716  1
  O  O567  1  0.82165551  0.31320897  0.80088289  1
  O  O568  1  0.82501335  0.64634485  0.05012125  1
  O  O569  1  0.82220401  0.64692077  0.30192608  1
  O  O570  1  0.82446801  0.64612319  0.54905173  1
  O  O571  1  0.82306161  0.64862196  0.80091850  1
  O  O572  1  0.82171190  0.98082415  0.05170027  1
  O  O573  1  0.82347789  0.98165594  0.30118072  1
  O  O574  1  0.82318050  0.97999436  0.55242640  1
  O  O575  1  0.82370341  0.98067733  0.79917174  1
  O  O576  1  0.42660970  0.14775481  0.17580910  1
  O  O577  1  0.42734685  0.14832118  0.42517289  1
  O  O578  1  0.42585308  0.14618566  0.67447800  1
  O  O579  1  0.42660742  0.14736873  0.92609614  1
  O  O580  1  0.42654181  0.47868257  0.17438313  1
  O  O581  1  0.42647263  0.48028027  0.42371817  1
  O  O582  1  0.42598717  0.47967654  0.67487566  1
  O  O583  1  0.42667829  0.47944331  0.92592193  1
  O  O584  1  0.42802116  0.81399845  0.17702204  1
  O  O585  1  0.42676592  0.81516718  0.42565220  1
  O  O586  1  0.42758420  0.81400888  0.67730669  1
  O  O587  1  0.42709515  0.81468734  0.92602721  1
  O  O588  1  0.92681019  0.14861683  0.17538141  1
  O  O589  1  0.92648917  0.14782863  0.42695071  1
  O  O590  1  0.92732413  0.14642670  0.67667415  1
  O  O591  1  0.92628432  0.14510814  0.92461143  1
  O  O592  1  0.92602877  0.48029382  0.17462295  1
  O  O593  1  0.92634392  0.47933632  0.42536180  1
  O  O594  1  0.92697998  0.48119320  0.67513362  1
  O  O595  1  0.92720597  0.47877009  0.92473737  1
  O  O596  1  0.92761371  0.81330376  0.17603547  1
  O  O597  1  0.92808977  0.81395105  0.42692887  1
  O  O598  1  0.92777310  0.81359318  0.67607588  1
  O  O599  1  0.92594071  0.81310790  0.92417207  1
  O  O600  1  0.07307889  0.18766977  0.07388418  1
  O  O601  1  0.07242925  0.18540717  0.32472608  1
  O  O602  1  0.07252662  0.18633275  0.57330107  1
  O  O603  1  0.07237032  0.18470565  0.82424861  1
  O  O604  1  0.07472696  0.52045689  0.07516577  1
  O  O605  1  0.07292793  0.52131804  0.32575586  1
  O  O606  1  0.07349568  0.52132017  0.57501958  1
  O  O607  1  0.07266518  0.51900955  0.82251724  1
  O  O608  1  0.07260480  0.85472740  0.07432409  1
  O  O609  1  0.07446968  0.85368688  0.32534243  1
  O  O610  1  0.07320964  0.85208123  0.57491962  1
  O  O611  1  0.07249627  0.85310123  0.82404450  1
  O  O612  1  0.57168078  0.18585652  0.07400214  1
  O  O613  1  0.57239749  0.18605687  0.32226810  1
  O  O614  1  0.57338922  0.18480640  0.57313196  1
  O  O615  1  0.57314254  0.18612826  0.82579966  1
  O  O616  1  0.57405350  0.51977371  0.07632295  1
  O  O617  1  0.57339917  0.52123130  0.32461703  1
  O  O618  1  0.57395784  0.52042502  0.57541474  1
  O  O619  1  0.57320298  0.52073819  0.82526505  1
  O  O620  1  0.57337333  0.85175153  0.07461066  1
  O  O621  1  0.57349446  0.85223576  0.32406703  1
  O  O622  1  0.57304983  0.85144167  0.57393298  1
  O  O623  1  0.57388709  0.85217672  0.82412558  1
  O  O624  1  0.32251844  0.18510393  0.05076816  1
  O  O625  1  0.32102337  0.18646817  0.30254633  1
  O  O626  1  0.32242305  0.18745046  0.54992755  1
  O  O627  1  0.32166175  0.18584278  0.80089132  1
  O  O628  1  0.32304543  0.52075339  0.05035066  1
  O  O629  1  0.32403195  0.52054371  0.29830606  1
  O  O630  1  0.32302294  0.51816801  0.55086268  1
  O  O631  1  0.32385950  0.51900702  0.80007559  1
  O  O632  1  0.32330798  0.85290118  0.05158527  1
  O  O633  1  0.32323947  0.85529363  0.30037824  1
  O  O634  1  0.32339134  0.85560750  0.54955868  1
  O  O635  1  0.32313821  0.85232738  0.80072678  1
  O  O636  1  0.82280158  0.18753070  0.04985939  1
  O  O637  1  0.82335295  0.18597525  0.29909712  1
  O  O638  1  0.82277483  0.18473400  0.55146160  1
  O  O639  1  0.82224064  0.18580986  0.80189148  1
  O  O640  1  0.82411996  0.51946579  0.04899404  1
  O  O641  1  0.82263210  0.51922075  0.30180138  1
  O  O642  1  0.82363454  0.51940859  0.54959634  1
  O  O643  1  0.82345601  0.52121167  0.80032271  1
  O  O644  1  0.82300615  0.85319359  0.05178623  1
  O  O645  1  0.82423134  0.85483828  0.30039392  1
  O  O646  1  0.82244883  0.85258289  0.55148652  1
  O  O647  1  0.82408565  0.85399275  0.79934949  1
  O  O648  1  0.17655916  0.14867136  0.19982592  1
  O  O649  1  0.17848061  0.14769415  0.44869117  1
  O  O650  1  0.17621832  0.14558836  0.69942316  1
  O  O651  1  0.17621404  0.14787589  0.94827387  1
  O  O652  1  0.17569935  0.48003756  0.20058509  1
  O  O653  1  0.17684800  0.47943540  0.44991534  1
  O  O654  1  0.17825539  0.47973565  0.69813160  1
  O  O655  1  0.17661474  0.47899819  0.94912106  1
  O  O656  1  0.17788423  0.81477710  0.19874752  1
  O  O657  1  0.17637597  0.81414149  0.45030342  1
  O  O658  1  0.17632131  0.81365356  0.70005237  1
  O  O659  1  0.17697882  0.81507046  0.94952875  1
  O  O660  1  0.67615452  0.14485757  0.19999210  1
  O  O661  1  0.67677069  0.14433896  0.44963434  1
  O  O662  1  0.67749162  0.14701483  0.69800560  1
  O  O663  1  0.67640984  0.14741279  0.94978276  1
  O  O664  1  0.67685638  0.47917373  0.19935466  1
  O  O665  1  0.67631676  0.48084493  0.44891401  1
  O  O666  1  0.67642109  0.48005502  0.70116700  1
  O  O667  1  0.67637157  0.47866449  0.95037002  1
  O  O668  1  0.67807526  0.81452801  0.20006523  1
  O  O669  1  0.67752413  0.81285578  0.44935851  1
  O  O670  1  0.67751519  0.81478229  0.69938294  1
  O  O671  1  0.67729735  0.81266381  0.94968843  1
