# generated using pymatgen
data_Na2MnFe(PO4)2
_symmetry_space_group_name_H-M   'P 1'
_cell_length_a   22.34540088
_cell_length_b   20.09845980
_cell_length_c   19.44886620
_cell_angle_alpha   89.98273366
_cell_angle_beta   89.98452651
_cell_angle_gamma   90.00243856
_symmetry_Int_Tables_number   1
_chemical_formula_structural   Na2MnFe(PO4)2
_chemical_formula_sum   'Na96 Mn48 Fe48 P96 O384'
_cell_volume   8734.64342625
_cell_formula_units_Z   48
loop_
 _symmetry_equiv_pos_site_id
 _symmetry_equiv_pos_as_xyz
  1  'x, y, z'
loop_
 _atom_site_type_symbol
 _atom_site_label
 _atom_site_symmetry_multiplicity
 _atom_site_fract_x
 _atom_site_fract_y
 _atom_site_fract_z
 _atom_site_occupancy
  Na  Na0  1  0.14026932  0.25055815  0.24229236  1
  Na  Na1  1  0.13981102  0.25077833  0.49275984  1
  Na  Na2  1  0.13961685  0.24988107  0.74322093  1
  Na  Na3  1  0.14014899  0.24872480  0.99231979  1
  Na  Na4  1  0.14047410  0.58244952  0.24238417  1
  Na  Na5  1  0.14062862  0.58308773  0.49303819  1
  Na  Na6  1  0.14091395  0.58421103  0.74322636  1
  Na  Na7  1  0.14056116  0.58218271  0.99201950  1
  Na  Na8  1  0.14028536  0.91745380  0.24227981  1
  Na  Na9  1  0.14051602  0.91708108  0.49459974  1
  Na  Na10  1  0.14062611  0.91634313  0.74413314  1
  Na  Na11  1  0.14055867  0.91595476  0.99145594  1
  Na  Na12  1  0.64031722  0.25009640  0.24485365  1
  Na  Na13  1  0.64019443  0.24994213  0.49402742  1
  Na  Na14  1  0.64022536  0.25164730  0.74457669  1
  Na  Na15  1  0.63998296  0.24850257  0.99442316  1
  Na  Na16  1  0.64062896  0.58325585  0.24533091  1
  Na  Na17  1  0.64061840  0.58268290  0.49421602  1
  Na  Na18  1  0.64063074  0.58442454  0.74463043  1
  Na  Na19  1  0.64032744  0.58251253  0.99416511  1
  Na  Na20  1  0.64016118  0.91715705  0.24479249  1
  Na  Na21  1  0.64048487  0.91708134  0.49296363  1
  Na  Na22  1  0.64074742  0.91758882  0.74498159  1
  Na  Na23  1  0.64042584  0.91579869  0.99406187  1
  Na  Na24  1  0.35893678  0.08313456  0.00691086  1
  Na  Na25  1  0.35920505  0.08336674  0.25693719  1
  Na  Na26  1  0.35972806  0.08256915  0.50701082  1
  Na  Na27  1  0.35897005  0.08291437  0.75730187  1
  Na  Na28  1  0.35894023  0.41507696  0.00712668  1
  Na  Na29  1  0.35927336  0.41660251  0.25612247  1
  Na  Na30  1  0.35927948  0.41722921  0.50544802  1
  Na  Na31  1  0.35887632  0.41700347  0.75667941  1
  Na  Na32  1  0.35939367  0.74911916  0.00579425  1
  Na  Na33  1  0.35856654  0.74958303  0.25570355  1
  Na  Na34  1  0.35828556  0.75031347  0.50703910  1
  Na  Na35  1  0.35917647  0.75049605  0.75653470  1
  Na  Na36  1  0.86049553  0.08288153  0.00638365  1
  Na  Na37  1  0.86065924  0.08438604  0.25679278  1
  Na  Na38  1  0.86027291  0.08461573  0.50556964  1
  Na  Na39  1  0.86050452  0.08466647  0.75766526  1
  Na  Na40  1  0.86021232  0.41528864  0.00617064  1
  Na  Na41  1  0.86002555  0.41666577  0.25668221  1
  Na  Na42  1  0.86040018  0.41630138  0.50641208  1
  Na  Na43  1  0.86041316  0.41755163  0.75654845  1
  Na  Na44  1  0.86033068  0.74950766  0.00572044  1
  Na  Na45  1  0.86006585  0.75016075  0.25556718  1
  Na  Na46  1  0.85950859  0.74947612  0.50501702  1
  Na  Na47  1  0.85986839  0.75092725  0.75650427  1
  Na  Na48  1  0.10968784  0.08392692  0.11718531  1
  Na  Na49  1  0.10960693  0.08438091  0.36861400  1
  Na  Na50  1  0.10969812  0.08392178  0.61977584  1
  Na  Na51  1  0.11002441  0.08425560  0.86761561  1
  Na  Na52  1  0.10982178  0.41591738  0.11651051  1
  Na  Na53  1  0.11050017  0.41594922  0.36773338  1
  Na  Na54  1  0.10967888  0.41556755  0.61740866  1
  Na  Na55  1  0.10989067  0.41512711  0.86881460  1
  Na  Na56  1  0.10951194  0.75065893  0.11607089  1
  Na  Na57  1  0.10999056  0.75152852  0.36780466  1
  Na  Na58  1  0.11028186  0.74982986  0.61779464  1
  Na  Na59  1  0.11034003  0.75073824  0.86775054  1
  Na  Na60  1  0.60963412  0.08239213  0.11971534  1
  Na  Na61  1  0.60915569  0.08450341  0.36931826  1
  Na  Na62  1  0.60942823  0.08354348  0.61933993  1
  Na  Na63  1  0.60932841  0.08443336  0.87010426  1
  Na  Na64  1  0.60937174  0.41528515  0.11989160  1
  Na  Na65  1  0.60953330  0.41598669  0.36896815  1
  Na  Na66  1  0.60965651  0.41593039  0.61969408  1
  Na  Na67  1  0.60943354  0.41706982  0.86883897  1
  Na  Na68  1  0.60950034  0.74945995  0.12024709  1
  Na  Na69  1  0.60980723  0.75024530  0.36868149  1
  Na  Na70  1  0.60965639  0.74993913  0.61882165  1
  Na  Na71  1  0.60956609  0.75056346  0.86922309  1
  Na  Na72  1  0.38938829  0.24936250  0.13204971  1
  Na  Na73  1  0.38980488  0.25025485  0.38071693  1
  Na  Na74  1  0.39010415  0.24920533  0.63109761  1
  Na  Na75  1  0.38927293  0.25057444  0.88197259  1
  Na  Na76  1  0.39012683  0.58197279  0.13167808  1
  Na  Na77  1  0.38951599  0.58231803  0.38109101  1
  Na  Na78  1  0.38934315  0.58262450  0.63178738  1
  Na  Na79  1  0.38986922  0.58497744  0.88070751  1
  Na  Na80  1  0.38966576  0.91555899  0.13075210  1
  Na  Na81  1  0.38953434  0.91729356  0.38203326  1
  Na  Na82  1  0.38959648  0.91641018  0.63204990  1
  Na  Na83  1  0.38961693  0.91707517  0.88220569  1
  Na  Na84  1  0.89043551  0.24884863  0.13118533  1
  Na  Na85  1  0.89085033  0.25071460  0.38174602  1
  Na  Na86  1  0.89118608  0.24945461  0.63091335  1
  Na  Na87  1  0.89087277  0.25009382  0.88230678  1
  Na  Na88  1  0.89108224  0.58349067  0.12963645  1
  Na  Na89  1  0.89096362  0.58295614  0.38199290  1
  Na  Na90  1  0.89061051  0.58141585  0.63101176  1
  Na  Na91  1  0.89122075  0.58339671  0.88206835  1
  Na  Na92  1  0.89101007  0.91750357  0.13031017  1
  Na  Na93  1  0.89095319  0.91829964  0.38057446  1
  Na  Na94  1  0.89039182  0.91787284  0.63118261  1
  Na  Na95  1  0.89120505  0.91786424  0.88244190  1
  Mn  Mn96  1  0.75029208  0.83379000  0.62500225  1
  Mn  Mn97  1  0.49901411  0.66573298  0.24995259  1
  Mn  Mn98  1  0.00038650  0.00182732  0.50021817  1
  Mn  Mn99  1  0.24939722  0.66615413  0.12452651  1
  Mn  Mn100  1  0.75078149  0.00033096  0.12582639  1
  Mn  Mn101  1  0.25001701  0.16630240  0.62505274  1
  Mn  Mn102  1  0.75005626  0.66626044  0.12562391  1
  Mn  Mn103  1  0.49971058  0.49902107  0.50094602  1
  Mn  Mn104  1  0.75106197  0.33472101  0.62480142  1
  Mn  Mn105  1  0.25033032  0.33409956  0.62467160  1
  Mn  Mn106  1  0.00031642  0.83420196  0.49937537  1
  Mn  Mn107  1  0.49974612  0.50007877  0.75029142  1
  Mn  Mn108  1  0.00023077  0.66622078  0.74976230  1
  Mn  Mn109  1  0.49945918  0.00048248  0.75080450  1
  Mn  Mn110  1  0.49926158  0.33269479  0.00040937  1
  Mn  Mn111  1  0.49933404  0.16590254  0.25059838  1
  Mn  Mn112  1  0.00044150  0.49959767  0.24903810  1
  Mn  Mn113  1  0.24988867  -0.00036177  0.12464152  1
  Mn  Mn114  1  0.24947569  -0.00037505  0.37510389  1
  Mn  Mn115  1  0.75035306  0.49987419  0.37520788  1
  Mn  Mn116  1  0.49918019  0.83400441  0.50007703  1
  Mn  Mn117  1  0.00073277  0.66682330  0.24894520  1
  Mn  Mn118  1  0.00126262  0.49838266  0.75048012  1
  Mn  Mn119  1  0.74982822  0.33207719  0.12615287  1
  Mn  Mn120  1  0.24923004  0.66698916  0.37450997  1
  Mn  Mn121  1  0.49984484  0.66614561  0.49989965  1
  Mn  Mn122  1  0.75001338  0.66654600  0.62510169  1
  Mn  Mn123  1  0.75039875  0.49994157  0.87548228  1
  Mn  Mn124  1  -0.00015467  0.83488936  0.24837194  1
  Mn  Mn125  1  0.75027717  0.00075629  0.37469373  1
  Mn  Mn126  1  0.74968651  0.83285985  0.12481676  1
  Mn  Mn127  1  0.75008971  0.16776997  0.62598212  1
  Mn  Mn128  1  0.75051739  0.00102780  0.62438600  1
  Mn  Mn129  1  0.50072868  0.83332713  0.75025445  1
  Mn  Mn130  1  0.50053247  0.66733345  0.00134275  1
  Mn  Mn131  1  -0.00022199  0.83404352  0.74983026  1
  Mn  Mn132  1  -0.00040290  0.33253869  0.24916893  1
  Mn  Mn133  1  0.75070543  0.83349320  0.87509752  1
  Mn  Mn134  1  0.25037666  0.49961753  0.87466396  1
  Mn  Mn135  1  0.49989410  -0.00005995  0.00033804  1
  Mn  Mn136  1  0.75008096  0.16662334  0.87521240  1
  Mn  Mn137  1  0.49894059  0.16754151  0.74966516  1
  Mn  Mn138  1  0.49902094  0.33223195  0.49962892  1
  Mn  Mn139  1  0.24934399  0.16773224  0.37526975  1
  Mn  Mn140  1  -0.00000820  0.66602259  0.49907567  1
  Mn  Mn141  1  0.75037271  0.49939010  0.12518215  1
  Mn  Mn142  1  0.49934683  0.50000394  -0.00011684  1
  Mn  Mn143  1  0.49912182  0.83390851  0.25061569  1
  Fe  Fe144  1  0.00013244  0.16690134  0.50020357  1
  Fe  Fe145  1  0.49983782  0.83350691  0.00054335  1
  Fe  Fe146  1  0.00083968  0.00103023  0.24895058  1
  Fe  Fe147  1  0.25003697  0.83239947  0.87397208  1
  Fe  Fe148  1  0.49941170  -0.00000710  0.25027986  1
  Fe  Fe149  1  0.00044019  0.83428722  -0.00071263  1
  Fe  Fe150  1  0.24943659  0.33274057  0.87539787  1
  Fe  Fe151  1  0.24968770  0.50004856  0.37425808  1
  Fe  Fe152  1  0.00005934  0.33249833  -0.00050975  1
  Fe  Fe153  1  0.75024474  0.66663111  0.87477505  1
  Fe  Fe154  1  0.75062508  0.83328081  0.37481804  1
  Fe  Fe155  1  0.24978173  0.33444465  0.37346597  1
  Fe  Fe156  1  0.49942132  0.33304151  0.75043953  1
  Fe  Fe157  1  0.75012247  0.50039287  0.62523053  1
  Fe  Fe158  1  0.75011343  0.16728886  0.37550734  1
  Fe  Fe159  1  0.24928191  0.50039343  0.62452195  1
  Fe  Fe160  1  0.49976381  0.66706896  0.75055112  1
  Fe  Fe161  1  0.24977147  0.83350010  0.62560089  1
  Fe  Fe162  1  0.24998697  -0.00072302  0.87533163  1
  Fe  Fe163  1  0.00001537  0.16695983  0.75014497  1
  Fe  Fe164  1  0.75042576  0.66645712  0.37522883  1
  Fe  Fe165  1  0.00070186  0.00121550  -0.00027374  1
  Fe  Fe166  1  0.74987747  0.33329330  0.37566193  1
  Fe  Fe167  1  0.00098887  0.33263208  0.49971028  1
  Fe  Fe168  1  0.00080058  0.49896662  0.50015485  1
  Fe  Fe169  1  0.24934698  0.83278108  0.12396403  1
  Fe  Fe170  1  0.00086832  0.16685434  0.24943061  1
  Fe  Fe171  1  0.50031008  0.49903147  0.25054766  1
  Fe  Fe172  1  0.49987901  0.16633446  0.50030577  1
  Fe  Fe173  1  0.00045460  0.49945085  -0.00078060  1
  Fe  Fe174  1  0.00030040  0.00076634  0.75049070  1
  Fe  Fe175  1  0.25007157  0.66641779  0.87400853  1
  Fe  Fe176  1  0.75010109  0.00030225  0.87549423  1
  Fe  Fe177  1  0.75021215  0.16654242  0.12543647  1
  Fe  Fe178  1  0.24992514  0.49920564  0.12425727  1
  Fe  Fe179  1  0.00080405  0.66682783  -0.00070227  1
  Fe  Fe180  1  0.24972107  0.66699923  0.62456918  1
  Fe  Fe181  1  0.49982949  0.00036530  0.50060177  1
  Fe  Fe182  1  0.49984205  0.33252968  0.25038182  1
  Fe  Fe183  1  0.25017517  0.16636588  0.87520122  1
  Fe  Fe184  1  0.24946029  0.16674234  0.12437186  1
  Fe  Fe185  1  -0.00014751  0.33255422  0.74973373  1
  Fe  Fe186  1  0.00001233  0.16666829  -0.00056234  1
  Fe  Fe187  1  0.24951522  0.83360456  0.37545565  1
  Fe  Fe188  1  0.24982325  -0.00053031  0.62617541  1
  Fe  Fe189  1  0.24971571  0.33290780  0.12455352  1
  Fe  Fe190  1  0.74986438  0.33354922  0.87522722  1
  Fe  Fe191  1  0.49934603  0.16657115  0.00099786  1
  P  P192  1  0.04147323  0.24917942  0.10102003  1
  P  P193  1  0.04242421  0.24888888  0.35240834  1
  P  P194  1  0.04177476  0.24947835  0.60211813  1
  P  P195  1  0.04111392  0.24995868  0.85204848  1
  P  P196  1  0.04200807  0.58291784  0.10042073  1
  P  P197  1  0.04312657  0.58268404  0.35277896  1
  P  P198  1  0.04257731  0.58153723  0.60204939  1
  P  P199  1  0.04316853  0.58286325  0.85377192  1
  P  P200  1  0.04183627  0.91776345  0.10074821  1
  P  P201  1  0.04260082  0.91903657  0.35149041  1
  P  P202  1  0.04251489  0.91788699  0.60353660  1
  P  P203  1  0.04203547  0.91852299  0.85307789  1
  P  P204  1  0.54160797  0.24849046  0.10353732  1
  P  P205  1  0.54176709  0.25021252  0.35301317  1
  P  P206  1  0.54208205  0.24889633  0.60286833  1
  P  P207  1  0.54180939  0.25096553  0.85314820  1
  P  P208  1  0.54275551  0.58201886  0.10420777  1
  P  P209  1  0.54191335  0.58185774  0.35270820  1
  P  P210  1  0.54248128  0.58323608  0.60411166  1
  P  P211  1  0.54204222  0.58492530  0.85281855  1
  P  P212  1  0.54225902  0.91555866  0.10322998  1
  P  P213  1  0.54152683  0.91890726  0.35336432  1
  P  P214  1  0.54233175  0.91788264  0.60259005  1
  P  P215  1  0.54263476  0.91698288  0.85416228  1
  P  P216  1  0.45703841  0.08178741  0.14769777  1
  P  P217  1  0.45786971  0.08330220  0.39864531  1
  P  P218  1  0.45656951  0.08307327  0.64643489  1
  P  P219  1  0.45696633  0.08508376  0.89826740  1
  P  P220  1  0.45826618  0.41574169  0.14883948  1
  P  P221  1  0.45722793  0.41636079  0.39604021  1
  P  P222  1  0.45710435  0.41480819  0.64805126  1
  P  P223  1  0.45658125  0.41638387  0.89666585  1
  P  P224  1  0.45661760  0.75027836  0.14683918  1
  P  P225  1  0.45636594  0.75000092  0.39714463  1
  P  P226  1  0.45762512  0.74898147  0.64792695  1
  P  P227  1  0.45793732  0.75122605  0.89774063  1
  P  P228  1  0.95906596  0.08401277  0.14737474  1
  P  P229  1  0.95827791  0.08565805  0.39664172  1
  P  P230  1  0.95861990  0.08396421  0.64868967  1
  P  P231  1  0.95919080  0.08391475  0.89770970  1
  P  P232  1  0.95747584  0.41615770  0.14543738  1
  P  P233  1  0.95938128  0.41624168  0.39835082  1
  P  P234  1  0.95867998  0.41461505  0.64680324  1
  P  P235  1  0.95905643  0.41577392  0.89802562  1
  P  P236  1  0.95800507  0.75042887  0.14490966  1
  P  P237  1  0.95757826  0.75069487  0.39603014  1
  P  P238  1  0.95739988  0.74984147  0.64655202  1
  P  P239  1  0.95938110  0.75062141  0.89821924  1
  P  P240  1  0.20783008  0.08461239  0.22677915  1
  P  P241  1  0.20722300  0.08309201  0.47863898  1
  P  P242  1  0.20837095  0.08186459  0.72878051  1
  P  P243  1  0.20880432  0.08305430  0.97658333  1
  P  P244  1  0.20821380  0.41647105  0.22609632  1
  P  P245  1  0.20879281  0.41704435  0.47610209  1
  P  P246  1  0.20760898  0.41808557  0.72723056  1
  P  P247  1  0.20808580  0.41479632  0.97774369  1
  P  P248  1  0.20699507  0.75128978  0.22685335  1
  P  P249  1  0.20744930  0.75142376  0.47797794  1
  P  P250  1  0.20857749  0.75020805  0.72685541  1
  P  P251  1  0.20888487  0.74923019  0.97589110  1
  P  P252  1  0.70826805  0.08535810  0.22842684  1
  P  P253  1  0.70775698  0.08488478  0.47737306  1
  P  P254  1  0.70743286  0.08361394  0.72896091  1
  P  P255  1  0.70788751  0.08215846  0.97825491  1
  P  P256  1  0.70747622  0.41627000  0.22919048  1
  P  P257  1  0.70780858  0.41586343  0.47801031  1
  P  P258  1  0.70816030  0.41840677  0.72799631  1
  P  P259  1  0.70755005  0.41478694  0.97787831  1
  P  P260  1  0.70735946  0.74997270  0.22954293  1
  P  P261  1  0.70852581  0.74981462  0.47643808  1
  P  P262  1  0.70758599  0.75026894  0.72860448  1
  P  P263  1  0.70778656  0.74842721  0.97729557  1
  P  P264  1  0.29073278  0.24961627  0.02255927  1
  P  P265  1  0.29147825  0.25160600  0.27139825  1
  P  P266  1  0.29247920  0.25047679  0.52145326  1
  P  P267  1  0.29060818  0.25015420  0.77367662  1
  P  P268  1  0.29214203  0.58162691  0.02211456  1
  P  P269  1  0.29141806  0.58199597  0.27189473  1
  P  P270  1  0.29086632  0.58327120  0.52283787  1
  P  P271  1  0.29197147  0.58461746  0.77136688  1
  P  P272  1  0.29142973  0.91502739  0.02147221  1
  P  P273  1  0.29149541  0.91497017  0.27233622  1
  P  P274  1  0.29114411  0.91649838  0.52391499  1
  P  P275  1  0.29114463  0.91654203  0.77318430  1
  P  P276  1  0.79211685  0.24838953  0.02267484  1
  P  P277  1  0.79177133  0.25008807  0.27384128  1
  P  P278  1  0.79288836  0.25030122  0.52131982  1
  P  P279  1  0.79273981  0.25196329  0.77314542  1
  P  P280  1  0.79285591  0.58312760  0.02143064  1
  P  P281  1  0.79324614  0.58438398  0.27291211  1
  P  P282  1  0.79239046  0.58232872  0.52230129  1
  P  P283  1  0.79309289  0.58436578  0.77251064  1
  P  P284  1  0.79290446  0.91682736  0.02162551  1
  P  P285  1  0.79253820  0.91594505  0.27261993  1
  P  P286  1  0.79298372  0.91665499  0.52092276  1
  P  P287  1  0.79313023  0.91876627  0.77291111  1
  O  O288  1  0.03683859  0.24911494  0.18097866  1
  O  O289  1  0.03744834  0.24916636  0.43229408  1
  O  O290  1  0.03687226  0.25011464  0.68200245  1
  O  O291  1  0.03614951  0.24958812  0.93192362  1
  O  O292  1  0.03727773  0.58322261  0.18046533  1
  O  O293  1  0.03792509  0.58199962  0.43275558  1
  O  O294  1  0.03749214  0.58162116  0.68203733  1
  O  O295  1  0.03783060  0.58300152  0.93366650  1
  O  O296  1  0.03693406  0.91833789  0.18072460  1
  O  O297  1  0.03755199  0.91867921  0.43146075  1
  O  O298  1  0.03708693  0.91818579  0.68345818  1
  O  O299  1  0.03671730  0.91798969  0.93296897  1
  O  O300  1  0.53636080  0.24918457  0.18347786  1
  O  O301  1  0.53659429  0.24922770  0.43291452  1
  O  O302  1  0.53665590  0.25000425  0.68281199  1
  O  O303  1  0.53658327  0.25000054  0.93309974  1
  O  O304  1  0.53727663  0.58138955  0.18413317  1
  O  O305  1  0.53701333  0.58197438  0.43272465  1
  O  O306  1  0.53716943  0.58412911  0.68406150  1
  O  O307  1  0.53709578  0.58464239  0.93282115  1
  O  O308  1  0.53682885  0.91636158  0.18316254  1
  O  O309  1  0.53623148  0.91927617  0.43333611  1
  O  O310  1  0.53765855  0.91744479  0.68263436  1
  O  O311  1  0.53742713  0.91635654  0.93411391  1
  O  O312  1  0.46223552  0.08259543  0.06779034  1
  O  O313  1  0.46283490  0.08263516  0.31862114  1
  O  O314  1  0.46191250  0.08297027  0.56652324  1
  O  O315  1  0.46177258  0.08495200  0.81828524  1
  O  O316  1  0.46300269  0.41589791  0.06879675  1
  O  O317  1  0.46287377  0.41653931  0.31615130  1
  O  O318  1  0.46216573  0.41491213  0.56805082  1
  O  O319  1  0.46180789  0.41582174  0.81673058  1
  O  O320  1  0.46216838  0.75085169  0.06690792  1
  O  O321  1  0.46116868  0.75007004  0.31714775  1
  O  O322  1  0.46241315  0.74946303  0.56794167  1
  O  O323  1  0.46348274  0.75031266  0.81778639  1
  O  O324  1  0.96427793  0.08412790  0.06750047  1
  O  O325  1  0.96379826  0.08541701  0.31683077  1
  O  O326  1  0.96335586  0.08480827  0.56872883  1
  O  O327  1  0.96391774  0.08333412  0.81786350  1
  O  O328  1  0.96261748  0.41619034  0.06555441  1
  O  O329  1  0.96364411  0.41607815  0.31828989  1
  O  O330  1  0.96432017  0.41506791  0.56694634  1
  O  O331  1  0.96401275  0.41495789  0.81807590  1
  O  O332  1  0.96356836  0.75046829  0.06500283  1
  O  O333  1  0.96269661  0.75068775  0.31602043  1
  O  O334  1  0.96256197  0.74984473  0.56657692  1
  O  O335  1  0.96392994  0.75029943  0.81820098  1
  O  O336  1  0.21347858  0.08382331  0.05656976  1
  O  O337  1  0.21251840  0.08451860  0.30672807  1
  O  O338  1  0.21249040  0.08255393  0.55857861  1
  O  O339  1  0.21395723  0.08186043  0.80865215  1
  O  O340  1  0.21344711  0.41485326  0.05758192  1
  O  O341  1  0.21316180  0.41669303  0.30602985  1
  O  O342  1  0.21359960  0.41772792  0.55602967  1
  O  O343  1  0.21291283  0.41743141  0.80708074  1
  O  O344  1  0.21344917  0.74980332  0.05587120  1
  O  O345  1  0.21207452  0.75119953  0.30681498  1
  O  O346  1  0.21286697  0.75127964  0.55783425  1
  O  O347  1  0.21363011  0.74959164  0.80674264  1
  O  O348  1  0.71322208  0.08277344  0.05818344  1
  O  O349  1  0.71348973  0.08585016  0.30835473  1
  O  O350  1  0.71268356  0.08461119  0.55735794  1
  O  O351  1  0.71251790  0.08292996  0.80894352  1
  O  O352  1  0.71264363  0.41485135  0.05786061  1
  O  O353  1  0.71262874  0.41600987  0.30912511  1
  O  O354  1  0.71317271  0.41698822  0.55793929  1
  O  O355  1  0.71313949  0.41761160  0.80795199  1
  O  O356  1  0.71271446  0.74864232  0.05730456  1
  O  O357  1  0.71285627  0.75021409  0.30944292  1
  O  O358  1  0.71343349  0.74995920  0.55649405  1
  O  O359  1  0.71286868  0.74982018  0.80852398  1
  O  O360  1  0.28593445  0.25108503  0.19152273  1
  O  O361  1  0.28746552  0.25097455  0.44155239  1
  O  O362  1  0.28608493  0.24991285  0.69370963  1
  O  O363  1  0.28585228  0.24940955  0.94265091  1
  O  O364  1  0.28629949  0.58171678  0.19197942  1
  O  O365  1  0.28594756  0.58360268  0.44286900  1
  O  O366  1  0.28646011  0.58447623  0.69153547  1
  O  O367  1  0.28718538  0.58213588  0.94220611  1
  O  O368  1  0.28623209  0.91503625  0.19240225  1
  O  O369  1  0.28623789  0.91652589  0.44394251  1
  O  O370  1  0.28604095  0.91644633  0.69329893  1
  O  O371  1  0.28617285  0.91574491  0.94162041  1
  O  O372  1  0.78673792  0.24929243  0.19384520  1
  O  O373  1  0.78740453  0.25010538  0.44143082  1
  O  O374  1  0.78799313  0.25192868  0.69317669  1
  O  O375  1  0.78707188  0.24901054  0.94279038  1
  O  O376  1  0.78803303  0.58379580  0.19294056  1
  O  O377  1  0.78718667  0.58297794  0.44235530  1
  O  O378  1  0.78771854  0.58361869  0.69256084  1
  O  O379  1  0.78760017  0.58369602  0.94147860  1
  O  O380  1  0.78750874  0.91613761  0.19262363  1
  O  O381  1  0.78761318  0.91617865  0.44096616  1
  O  O382  1  0.78819385  0.91857507  0.69288287  1
  O  O383  1  0.78771592  0.91755564  0.94167369  1
  O  O384  1  0.22663260  0.25030162  0.05870283  1
  O  O385  1  0.22741900  0.25214494  0.30778038  1
  O  O386  1  0.22813871  0.25038130  0.55680586  1
  O  O387  1  0.22640020  0.25008343  0.80928787  1
  O  O388  1  0.22778818  0.58142944  0.05767371  1
  O  O389  1  0.22723374  0.58244167  0.30771896  1
  O  O390  1  0.22678956  0.58277774  0.55896659  1
  O  O391  1  0.22795841  0.58447665  0.80779204  1
  O  O392  1  0.22731318  0.91515736  0.05766503  1
  O  O393  1  0.22725484  0.91502062  0.30819320  1
  O  O394  1  0.22704365  0.91603430  0.56003480  1
  O  O395  1  0.22714047  0.91680569  0.80950634  1
  O  O396  1  0.72783174  0.24788628  0.05839029  1
  O  O397  1  0.72756515  0.25073916  0.30979619  1
  O  O398  1  0.72870332  0.25076543  0.55714556  1
  O  O399  1  0.72826517  0.25165534  0.80829402  1
  O  O400  1  0.72853242  0.58273793  0.05685508  1
  O  O401  1  0.72886239  0.58468541  0.30834160  1
  O  O402  1  0.72813802  0.58189111  0.55813055  1
  O  O403  1  0.72877462  0.58483810  0.80826235  1
  O  O404  1  0.72859728  0.91703550  0.05703455  1
  O  O405  1  0.72822194  0.91605916  0.30798348  1
  O  O406  1  0.72866247  0.91717350  0.55638855  1
  O  O407  1  0.72872501  0.91853884  0.80824150  1
  O  O408  1  0.27216338  0.08415630  0.19147920  1
  O  O409  1  0.27143985  0.08346360  0.44301909  1
  O  O410  1  0.27232915  0.08185891  0.69227284  1
  O  O411  1  0.27296116  0.08241767  0.94080214  1
  O  O412  1  0.27236500  0.41621785  0.18993664  1
  O  O413  1  0.27284119  0.41618507  0.43992893  1
  O  O414  1  0.27185641  0.41890496  0.69135138  1
  O  O415  1  0.27216288  0.41452030  0.94152406  1
  O  O416  1  0.27128313  0.75105340  0.19110923  1
  O  O417  1  0.27151516  0.75139234  0.44155780  1
  O  O418  1  0.27256827  0.75093082  0.69049473  1
  O  O419  1  0.27303346  0.74874164  0.94004272  1
  O  O420  1  0.77256718  0.08531898  0.19273605  1
  O  O421  1  0.77216259  0.08488465  0.44214569  1
  O  O422  1  0.77189747  0.08395133  0.69386963  1
  O  O423  1  0.77212697  0.08188612  0.94236306  1
  O  O424  1  0.77183578  0.41604678  0.19386501  1
  O  O425  1  0.77206357  0.41519100  0.44221217  1
  O  O426  1  0.77253269  0.41914521  0.69248732  1
  O  O427  1  0.77196153  0.41493747  0.94251769  1
  O  O428  1  0.77157598  0.74998917  0.19372050  1
  O  O429  1  0.77275272  0.74953171  0.44062689  1
  O  O430  1  0.77192398  0.75023899  0.69327070  1
  O  O431  1  0.77218474  0.74818193  0.94187775  1
  O  O432  1  0.02318839  0.08404628  0.18371877  1
  O  O433  1  0.02237407  0.08601415  0.43298171  1
  O  O434  1  0.02281249  0.08337701  0.68451595  1
  O  O435  1  0.02333097  0.08505462  0.93372442  1
  O  O436  1  0.02181814  0.41589948  0.18088340  1
  O  O437  1  0.02367668  0.41691696  0.43371675  1
  O  O438  1  0.02277844  0.41395122  0.68309231  1
  O  O439  1  0.02314903  0.41650818  0.93401793  1
  O  O440  1  0.02219374  0.75097101  0.18072281  1
  O  O441  1  0.02197861  0.75034523  0.43112367  1
  O  O442  1  0.02180948  0.75016115  0.68164962  1
  O  O443  1  0.02362071  0.75145330  0.93374343  1
  O  O444  1  0.52134117  0.08158484  0.18333280  1
  O  O445  1  0.52205050  0.08362647  0.43467542  1
  O  O446  1  0.52084812  0.08355639  0.68199597  1
  O  O447  1  0.52134003  0.08518940  0.93359968  1
  O  O448  1  0.52247999  0.41529877  0.18459296  1
  O  O449  1  0.52136396  0.41604127  0.43194849  1
  O  O450  1  0.52143536  0.41481183  0.68352880  1
  O  O451  1  0.52096279  0.41635279  0.93187176  1
  O  O452  1  0.52081696  0.74995849  0.18242124  1
  O  O453  1  0.52093940  0.75029019  0.43176902  1
  O  O454  1  0.52207560  0.74862562  0.68307475  1
  O  O455  1  0.52209799  0.75203957  0.93380020  1
  O  O456  1  0.47728849  0.24824613  0.06790719  1
  O  O457  1  0.47757265  0.25088487  0.31714698  1
  O  O458  1  0.47782585  0.24771763  0.56709343  1
  O  O459  1  0.47743510  0.25186834  0.81754606  1
  O  O460  1  0.47840926  0.58298838  0.06884420  1
  O  O461  1  0.47755668  0.58133183  0.31739942  1
  O  O462  1  0.47808263  0.58301506  0.56887089  1
  O  O463  1  0.47772691  0.58464855  0.81741348  1
  O  O464  1  0.47801479  0.91507689  0.06735247  1
  O  O465  1  0.47724217  0.91883479  0.31765670  1
  O  O466  1  0.47777636  0.91808484  0.56771397  1
  O  O467  1  0.47828151  0.91654186  0.81889727  1
  O  O468  1  0.97723347  0.24858134  0.06533332  1
  O  O469  1  0.97819360  0.24809679  0.31649353  1
  O  O470  1  0.97777951  0.24917008  0.56579954  1
  O  O471  1  0.97708402  0.25050519  0.81574680  1
  O  O472  1  0.97784898  0.58235322  0.06473129  1
  O  O473  1  0.97876516  0.58302633  0.31752372  1
  O  O474  1  0.97829598  0.58099681  0.56647798  1
  O  O475  1  0.97895498  0.58237741  0.81806560  1
  O  O476  1  0.97772025  0.91698223  0.06488499  1
  O  O477  1  0.97829987  0.91951912  0.31589084  1
  O  O478  1  0.97833441  0.91784255  0.56785574  1
  O  O479  1  0.97791879  0.91880492  0.81696407  1
  O  O480  1  0.07137509  0.31336551  0.07242930  1
  O  O481  1  0.07287074  0.31276231  0.32389339  1
  O  O482  1  0.07241247  0.31305203  0.57282598  1
  O  O483  1  0.07254891  0.31320555  0.82367456  1
  O  O484  1  0.07229607  0.64697673  0.07218890  1
  O  O485  1  0.07416898  0.64635639  0.32487952  1
  O  O486  1  0.07323837  0.64546191  0.57441456  1
  O  O487  1  0.07400800  0.64639472  0.82511403  1
  O  O488  1  0.07221273  0.98162857  0.07212626  1
  O  O489  1  0.07350882  0.98255742  0.32322540  1
  O  O490  1  0.07381441  0.98115633  0.57523418  1
  O  O491  1  0.07297247  0.98200129  0.82460246  1
  O  O492  1  0.57295110  0.31176101  0.07521770  1
  O  O493  1  0.57269753  0.31378955  0.32490310  1
  O  O494  1  0.57288613  0.31246764  0.57449985  1
  O  O495  1  0.57273446  0.31455046  0.82494261  1
  O  O496  1  0.57418219  0.64560014  0.07668482  1
  O  O497  1  0.57259274  0.64576668  0.32503578  1
  O  O498  1  0.57386724  0.64617664  0.57506716  1
  O  O499  1  0.57244001  0.64864044  0.82438226  1
  O  O500  1  0.57337377  0.97907197  0.07506908  1
  O  O501  1  0.57247693  0.98207734  0.32427102  1
  O  O502  1  0.57300048  0.98142421  0.57408567  1
  O  O503  1  0.57303536  0.98104881  0.82638258  1
  O  O504  1  0.42644276  0.01803380  0.17593578  1
  O  O505  1  0.42690659  0.01992250  0.42735740  1
  O  O506  1  0.42572995  0.01966220  0.67532889  1
  O  O507  1  0.42605292  0.02132072  0.92592729  1
  O  O508  1  0.42730719  0.35202793  0.17664564  1
  O  O509  1  0.42580446  0.35299283  0.42411310  1
  O  O510  1  0.42640007  0.35124015  0.67642897  1
  O  O511  1  0.42520031  0.35341547  0.92561058  1
  O  O512  1  0.42548626  0.68650384  0.17434945  1
  O  O513  1  0.42559937  0.68633611  0.42521223  1
  O  O514  1  0.42689725  0.68543893  0.67637429  1
  O  O515  1  0.42696814  0.68766067  0.92593167  1
  O  O516  1  0.92839966  0.02021060  0.17576729  1
  O  O517  1  0.92730625  0.02195296  0.42479725  1
  O  O518  1  0.92751223  0.02038844  0.67662043  1
  O  O519  1  0.92923795  0.02004338  0.92710488  1
  O  O520  1  0.92628654  0.35284176  0.17420622  1
  O  O521  1  0.92943561  0.35212229  0.42680317  1
  O  O522  1  0.92733583  0.35138894  0.67532829  1
  O  O523  1  0.92866439  0.35204147  0.92694512  1
  O  O524  1  0.92717562  0.68682043  0.17335858  1
  O  O525  1  0.92640474  0.68728594  0.42418229  1
  O  O526  1  0.92667423  0.68614763  0.67467183  1
  O  O527  1  0.92943623  0.68642434  0.92658609  1
  O  O528  1  0.17649164  0.02119602  0.19887003  1
  O  O529  1  0.17613205  0.01982543  0.45001330  1
  O  O530  1  0.17746534  0.01847217  0.70002767  1
  O  O531  1  0.17757840  0.01945620  0.94898692  1
  O  O532  1  0.17700440  0.35302182  0.19778153  1
  O  O533  1  0.17750902  0.35353003  0.44819612  1
  O  O534  1  0.17694464  0.35432436  0.69900465  1
  O  O535  1  0.17701840  0.35143095  0.94898203  1
  O  O536  1  0.17597236  0.68752250  0.19903734  1
  O  O537  1  0.17619466  0.68792979  0.44988384  1
  O  O538  1  0.17824062  0.68646182  0.69773568  1
  O  O539  1  0.17796413  0.68549080  0.94805270  1
  O  O540  1  0.67740556  0.02135031  0.20114399  1
  O  O541  1  0.67662386  0.02139842  0.44936752  1
  O  O542  1  0.67622858  0.02062810  0.69993709  1
  O  O543  1  0.67708745  0.01857140  0.94999989  1
  O  O544  1  0.67603350  0.35311190  0.20087731  1
  O  O545  1  0.67698061  0.35213467  0.45011512  1
  O  O546  1  0.67725525  0.35489660  0.69961124  1
  O  O547  1  0.67712059  0.35111843  0.94930320  1
  O  O548  1  0.67619483  0.68647747  0.20142075  1
  O  O549  1  0.67767570  0.68600253  0.44870205  1
  O  O550  1  0.67619285  0.68722719  0.69995488  1
  O  O551  1  0.67697874  0.68497609  0.94889462  1
  O  O552  1  0.32239027  0.31271599  0.05091037  1
  O  O553  1  0.32251200  0.31503075  0.29977264  1
  O  O554  1  0.32368084  0.31367325  0.55013646  1
  O  O555  1  0.32128617  0.31393825  0.80167343  1
  O  O556  1  0.32328696  0.64499775  0.05043326  1
  O  O557  1  0.32267699  0.64564606  0.29948153  1
  O  O558  1  0.32107962  0.64726275  0.55145374  1
  O  O559  1  0.32269688  0.64812710  0.80018323  1
  O  O560  1  0.32279628  0.97836393  0.04994210  1
  O  O561  1  0.32239325  0.97885987  0.30009972  1
  O  O562  1  0.32135055  0.98052137  0.55232685  1
  O  O563  1  0.32260438  0.97973872  0.80165900  1
  O  O564  1  0.82319933  0.31177723  0.05103795  1
  O  O565  1  0.82268951  0.31393047  0.30155854  1
  O  O566  1  0.82439139  0.31358468  0.54943628  1
  O  O567  1  0.82299838  0.31564105  0.80187669  1
  O  O568  1  0.82407140  0.64628784  0.04993842  1
  O  O569  1  0.82400671  0.64790090  0.30115562  1
  O  O570  1  0.82364695  0.64572182  0.55034930  1
  O  O571  1  0.82387043  0.64801395  0.80070313  1
  O  O572  1  0.82446862  0.97976679  0.05035937  1
  O  O573  1  0.82375013  0.97967416  0.29998362  1
  O  O574  1  0.82424644  0.98026080  0.54861581  1
  O  O575  1  0.82359977  0.98229407  0.80163138  1
  O  O576  1  0.42574085  0.14504789  0.17611441  1
  O  O577  1  0.42729287  0.14737617  0.42621178  1
  O  O578  1  0.42504636  0.14633147  0.67467721  1
  O  O579  1  0.42637966  0.14858616  0.92694809  1
  O  O580  1  0.42786224  0.47965826  0.17694305  1
  O  O581  1  0.42610543  0.47963297  0.42480054  1
  O  O582  1  0.42607683  0.47852081  0.67559367  1
  O  O583  1  0.42580923  0.48025138  0.92440802  1
  O  O584  1  0.42526621  0.81337835  0.17531352  1
  O  O585  1  0.42532899  0.81339700  0.42549816  1
  O  O586  1  0.42683026  0.81270612  0.67595102  1
  O  O587  1  0.42692544  0.81481235  0.92570749  1
  O  O588  1  0.92805743  0.14740825  0.17601374  1
  O  O589  1  0.92715268  0.14874246  0.42573252  1
  O  O590  1  0.92825401  0.14767293  0.67769222  1
  O  O591  1  0.92731977  0.14701896  0.92582095  1
  O  O592  1  0.92647560  0.47952974  0.17416861  1
  O  O593  1  0.92805714  0.47954733  0.42658378  1
  O  O594  1  0.92784272  0.47825632  0.67520309  1
  O  O595  1  0.92778996  0.47939811  0.92555912  1
  O  O596  1  0.92638023  0.81362575  0.17319771  1
  O  O597  1  0.92684086  0.81436036  0.42401652  1
  O  O598  1  0.92615778  0.81319886  0.67472319  1
  O  O599  1  0.92784944  0.81398182  0.92588065  1
  O  O600  1  0.07312754  0.18621079  0.07257167  1
  O  O601  1  0.07387717  0.18593449  0.32343573  1
  O  O602  1  0.07293682  0.18594173  0.57405208  1
  O  O603  1  0.07148389  0.18615132  0.82316934  1
  O  O604  1  0.07324259  0.51942291  0.07262448  1
  O  O605  1  0.07419656  0.51948065  0.32389279  1
  O  O606  1  0.07363005  0.51815758  0.57372739  1
  O  O607  1  0.07463324  0.51954553  0.82562247  1
  O  O608  1  0.07319197  0.85434269  0.07272409  1
  O  O609  1  0.07335537  0.85536265  0.32336634  1
  O  O610  1  0.07351318  0.85425552  0.57555985  1
  O  O611  1  0.07315835  0.85497878  0.82484039  1
  O  O612  1  0.57202433  0.18463563  0.07528350  1
  O  O613  1  0.57271507  0.18674075  0.32466322  1
  O  O614  1  0.57317873  0.18536521  0.57490600  1
  O  O615  1  0.57266583  0.18749215  0.82467149  1
  O  O616  1  0.57357315  0.51871718  0.07533082  1
  O  O617  1  0.57297368  0.51846916  0.32437774  1
  O  O618  1  0.57323832  0.51926969  0.57662385  1
  O  O619  1  0.57333438  0.52135920  0.82517445  1
  O  O620  1  0.57311204  0.85194917  0.07511005  1
  O  O621  1  0.57248436  0.85497988  0.32604439  1
  O  O622  1  0.57320188  0.85421293  0.57448161  1
  O  O623  1  0.57441986  0.85419789  0.82546309  1
  O  O624  1  0.32088402  0.18560628  0.05139879  1
  O  O625  1  0.32256915  0.18803089  0.29960199  1
  O  O626  1  0.32338140  0.18688198  0.54965389  1
  O  O627  1  0.32139377  0.18646700  0.80206302  1
  O  O628  1  0.32271857  0.51789681  0.05054719  1
  O  O629  1  0.32202112  0.51856071  0.30092797  1
  O  O630  1  0.32221455  0.51984803  0.55081827  1
  O  O631  1  0.32340970  0.52124256  0.79946547  1
  O  O632  1  0.32203627  0.85135949  0.04990743  1
  O  O633  1  0.32238866  0.85174092  0.30122725  1
  O  O634  1  0.32254925  0.85323993  0.55219198  1
  O  O635  1  0.32164956  0.85260501  0.80164926  1
  O  O636  1  0.82284141  0.18474252  0.05109185  1
  O  O637  1  0.82242265  0.18651933  0.30248560  1
  O  O638  1  0.82385293  0.18692924  0.55011481  1
  O  O639  1  0.82390233  0.18840265  0.80087224  1
  O  O640  1  0.82375217  0.51931567  0.04918910  1
  O  O641  1  0.82422525  0.52070803  0.30078831  1
  O  O642  1  0.82297374  0.51858636  0.55063516  1
  O  O643  1  0.82419269  0.52090209  0.80077155  1
  O  O644  1  0.82350867  0.85285523  0.04922050  1
  O  O645  1  0.82320222  0.85240058  0.30106472  1
  O  O646  1  0.82393498  0.85332837  0.54961732  1
  O  O647  1  0.82426611  0.85505430  0.80051290  1
  O  O648  1  0.17757058  0.14833111  0.19797231  1
  O  O649  1  0.17605553  0.14664301  0.45072333  1
  O  O650  1  0.17706832  0.14549855  0.70102878  1
  O  O651  1  0.17846185  0.14678812  0.94754244  1
  O  O652  1  0.17759158  0.48015965  0.19731386  1
  O  O653  1  0.17853515  0.48084491  0.44720945  1
  O  O654  1  0.17655187  0.48148223  0.69888525  1
  O  O655  1  0.17706917  0.47833861  0.94960204  1
  O  O656  1  0.17629043  0.81460912  0.19783948  1
  O  O657  1  0.17668756  0.81493772  0.44923467  1
  O  O658  1  0.17698698  0.81364652  0.69915604  1
  O  O659  1  0.17837782  0.81287900  0.94696971  1
  O  O660  1  0.67726787  0.14844189  0.19924754  1
  O  O661  1  0.67714588  0.14850108  0.44900059  1
  O  O662  1  0.67659155  0.14755142  0.70141852  1
  O  O663  1  0.67666109  0.14561411  0.95015126  1
  O  O664  1  0.67685030  0.48000596  0.20099631  1
  O  O665  1  0.67658991  0.47918798  0.44968261  1
  O  O666  1  0.67734552  0.48201307  0.69972398  1
  O  O667  1  0.67632079  0.47832184  0.95015747  1
  O  O668  1  0.67608674  0.81323457  0.20083180  1
  O  O669  1  0.67797977  0.81365809  0.44829310  1
  O  O670  1  0.67678853  0.81407166  0.70064298  1
  O  O671  1  0.67702975  0.81228954  0.94963523  1
