# generated using pymatgen
data_Na2MnFe(PO4)2
_symmetry_space_group_name_H-M   'P 1'
_cell_length_a   22.34351168
_cell_length_b   20.09227731
_cell_length_c   19.44999589
_cell_angle_alpha   90.04261357
_cell_angle_beta   89.98355359
_cell_angle_gamma   90.00005018
_symmetry_Int_Tables_number   1
_chemical_formula_structural   Na2MnFe(PO4)2
_chemical_formula_sum   'Na96 Mn48 Fe48 P96 O384'
_cell_volume   8731.72341761
_cell_formula_units_Z   48
loop_
 _symmetry_equiv_pos_site_id
 _symmetry_equiv_pos_as_xyz
  1  'x, y, z'
loop_
 _atom_site_type_symbol
 _atom_site_label
 _atom_site_symmetry_multiplicity
 _atom_site_fract_x
 _atom_site_fract_y
 _atom_site_fract_z
 _atom_site_occupancy
  Na  Na0  1  0.14009470  0.25194591  0.24318291  1
  Na  Na1  1  0.14041940  0.24986607  0.49504790  1
  Na  Na2  1  0.14088575  0.24903596  0.74341521  1
  Na  Na3  1  0.14047411  0.25109090  0.99305684  1
  Na  Na4  1  0.14088868  0.58391172  0.24246283  1
  Na  Na5  1  0.14033470  0.58384811  0.49339438  1
  Na  Na6  1  0.14041233  0.58156686  0.74338416  1
  Na  Na7  1  0.14075492  0.58356046  0.99362485  1
  Na  Na8  1  0.14060856  0.91551033  0.24444379  1
  Na  Na9  1  0.14044718  0.91708656  0.49441428  1
  Na  Na10  1  0.14035192  0.91661309  0.74287551  1
  Na  Na11  1  0.14094682  0.91604347  0.99305715  1
  Na  Na12  1  0.63999527  0.24881390  0.24289138  1
  Na  Na13  1  0.64026786  0.24990569  0.49367283  1
  Na  Na14  1  0.64048505  0.24900805  0.74323251  1
  Na  Na15  1  0.64004709  0.24948641  0.99488908  1
  Na  Na16  1  0.64040909  0.58352283  0.24388465  1
  Na  Na17  1  0.64019405  0.58310132  0.49399546  1
  Na  Na18  1  0.63978502  0.58299330  0.74227645  1
  Na  Na19  1  0.63994268  0.58267852  0.99379665  1
  Na  Na20  1  0.64064233  0.91702797  0.24495360  1
  Na  Na21  1  0.64013719  0.91613348  0.49376872  1
  Na  Na22  1  0.64026026  0.91714162  0.74361365  1
  Na  Na23  1  0.64047276  0.91851262  0.99527408  1
  Na  Na24  1  0.35909959  0.08325226  0.00631732  1
  Na  Na25  1  0.35930924  0.08300260  0.25640326  1
  Na  Na26  1  0.35965362  0.08392427  0.50792230  1
  Na  Na27  1  0.35971207  0.08406005  0.75690645  1
  Na  Na28  1  0.35959905  0.41789067  0.00644346  1
  Na  Na29  1  0.35996409  0.41707497  0.25620320  1
  Na  Na30  1  0.36007000  0.41709476  0.50760676  1
  Na  Na31  1  0.35953656  0.41682725  0.75625031  1
  Na  Na32  1  0.35924216  0.74954434  0.00662660  1
  Na  Na33  1  0.35976655  0.74974864  0.25600191  1
  Na  Na34  1  0.35934512  0.75068290  0.50569479  1
  Na  Na35  1  0.35915675  0.74921636  0.75654284  1
  Na  Na36  1  0.85952256  0.08456242  0.00575104  1
  Na  Na37  1  0.85959688  0.08288640  0.25645363  1
  Na  Na38  1  0.86006682  0.08230855  0.50732422  1
  Na  Na39  1  0.86013969  0.08263195  0.75563580  1
  Na  Na40  1  0.85989917  0.41533795  0.00678373  1
  Na  Na41  1  0.86026061  0.41668355  0.25598690  1
  Na  Na42  1  0.85989618  0.41705723  0.50620625  1
  Na  Na43  1  0.85949393  0.41587977  0.75546744  1
  Na  Na44  1  0.85980446  0.75029592  0.00559089  1
  Na  Na45  1  0.85931651  0.75080227  0.25638318  1
  Na  Na46  1  0.85893547  0.75028490  0.50600569  1
  Na  Na47  1  0.85950750  0.75032380  0.75552216  1
  Na  Na48  1  0.10957106  0.08413272  0.11846955  1
  Na  Na49  1  0.10952575  0.08460230  0.37078091  1
  Na  Na50  1  0.11021568  0.08308036  0.61904375  1
  Na  Na51  1  0.10955522  0.08197145  0.86720314  1
  Na  Na52  1  0.11043660  0.41786862  0.11766768  1
  Na  Na53  1  0.10965208  0.41705391  0.36887428  1
  Na  Na54  1  0.10976786  0.41568873  0.61910862  1
  Na  Na55  1  0.11029256  0.41512224  0.86856024  1
  Na  Na56  1  0.11039285  0.74988757  0.11820919  1
  Na  Na57  1  0.11032789  0.74952428  0.36783577  1
  Na  Na58  1  0.10964288  0.75019633  0.61794892  1
  Na  Na59  1  0.10978748  0.74942328  0.86801394  1
  Na  Na60  1  0.60987341  0.08372864  0.11924895  1
  Na  Na61  1  0.60954393  0.08256168  0.36855175  1
  Na  Na62  1  0.60934552  0.08415766  0.61857944  1
  Na  Na63  1  0.60982206  0.08438794  0.86981459  1
  Na  Na64  1  0.60952210  0.41503923  0.11880480  1
  Na  Na65  1  0.60927417  0.41598882  0.36955912  1
  Na  Na66  1  0.60976836  0.41709520  0.61818390  1
  Na  Na67  1  0.60949913  0.41719103  0.86822443  1
  Na  Na68  1  0.60956657  0.74922084  0.12025197  1
  Na  Na69  1  0.60983974  0.74986107  0.36831343  1
  Na  Na70  1  0.60922730  0.75026764  0.61801865  1
  Na  Na71  1  0.60914677  0.74953767  0.86849522  1
  Na  Na72  1  0.39004966  0.25007196  0.13110761  1
  Na  Na73  1  0.39067605  0.25017699  0.38136676  1
  Na  Na74  1  0.39016222  0.25198025  0.63229573  1
  Na  Na75  1  0.39013342  0.25118067  0.88113090  1
  Na  Na76  1  0.39019289  0.58254155  0.13230638  1
  Na  Na77  1  0.39023515  0.58344811  0.38088456  1
  Na  Na78  1  0.39012596  0.58364311  0.63121822  1
  Na  Na79  1  0.39023061  0.58298964  0.88082020  1
  Na  Na80  1  0.39005635  0.91587643  0.13186851  1
  Na  Na81  1  0.39000195  0.91589303  0.38136949  1
  Na  Na82  1  0.39009111  0.91803218  0.63253589  1
  Na  Na83  1  0.38959790  0.91719004  0.88210263  1
  Na  Na84  1  0.89029465  0.25125973  0.13141232  1
  Na  Na85  1  0.89071302  0.25073246  0.38098845  1
  Na  Na86  1  0.89055899  0.24929715  0.63167784  1
  Na  Na87  1  0.89013681  0.24881361  0.88095822  1
  Na  Na88  1  0.89071080  0.58306683  0.13108817  1
  Na  Na89  1  0.89040629  0.58293388  0.38067572  1
  Na  Na90  1  0.89039946  0.58295066  0.63063990  1
  Na  Na91  1  0.89051402  0.58188436  0.87998031  1
  Na  Na92  1  0.89050618  0.91723954  0.13153622  1
  Na  Na93  1  0.88987888  0.91749278  0.38254642  1
  Na  Na94  1  0.89014355  0.91761900  0.63146730  1
  Na  Na95  1  0.89053918  0.91598881  0.87992121  1
  Mn  Mn96  1  0.74915709  0.50006015  0.37512699  1
  Mn  Mn97  1  0.49995640  0.33308778  -0.00029086  1
  Mn  Mn98  1  0.24973524  0.50118574  0.37516030  1
  Mn  Mn99  1  0.74972300  0.49927681  0.87464345  1
  Mn  Mn100  1  0.50000314  0.83364719  0.75034869  1
  Mn  Mn101  1  0.49959380  0.66549424  -0.00005085  1
  Mn  Mn102  1  0.49982711  0.16734580  0.49962952  1
  Mn  Mn103  1  0.75079430  0.16558128  0.37474760  1
  Mn  Mn104  1  0.00036071  0.00090233  0.25039159  1
  Mn  Mn105  1  0.24952575  -0.00127342  0.12573757  1
  Mn  Mn106  1  0.00000457  0.49939681  -0.00024654  1
  Mn  Mn107  1  0.49936248  0.66613792  0.49981632  1
  Mn  Mn108  1  0.00060469  0.83236465  -0.00032821  1
  Mn  Mn109  1  0.49904043  0.83384301  0.50019806  1
  Mn  Mn110  1  0.75049548  0.49941500  0.12497186  1
  Mn  Mn111  1  0.24980062  0.50017541  0.62485002  1
  Mn  Mn112  1  0.50036473  0.33444388  0.75045797  1
  Mn  Mn113  1  -0.00016379  0.16737685  -0.00040409  1
  Mn  Mn114  1  0.74963635  0.66693542  0.87414709  1
  Mn  Mn115  1  0.74991948  0.33290149  0.37485243  1
  Mn  Mn116  1  0.24958767  -0.00052188  0.37545614  1
  Mn  Mn117  1  0.50024798  0.49898130  0.25050670  1
  Mn  Mn118  1  -0.00032827  0.83389872  0.49971974  1
  Mn  Mn119  1  0.24987096  0.66619398  0.87539186  1
  Mn  Mn120  1  -0.00001140  0.33254824  0.74946521  1
  Mn  Mn121  1  -0.00027235  0.33350133  0.50046829  1
  Mn  Mn122  1  0.25029677  0.33372416  0.37510375  1
  Mn  Mn123  1  0.74953911  0.83466498  0.12599132  1
  Mn  Mn124  1  0.25034704  0.16699731  0.37552527  1
  Mn  Mn125  1  -0.00022493  0.16819832  0.24978247  1
  Mn  Mn126  1  0.50004161  0.00193805  0.75125279  1
  Mn  Mn127  1  0.24917730  0.16718499  0.12469585  1
  Mn  Mn128  1  0.74954449  0.33212999  0.87521431  1
  Mn  Mn129  1  0.74966401  0.66697868  0.62445987  1
  Mn  Mn130  1  0.24985223  0.16676354  0.87494414  1
  Mn  Mn131  1  0.49942892  -0.00009021  0.24994292  1
  Mn  Mn132  1  0.49981942  0.00134065  0.00134099  1
  Mn  Mn133  1  0.74978140  0.83419906  0.87534558  1
  Mn  Mn134  1  0.00001956  0.83352338  0.25005838  1
  Mn  Mn135  1  -0.00011000  -0.00030425  -0.00097529  1
  Mn  Mn136  1  0.74983750  0.66703402  0.12501895  1
  Mn  Mn137  1  0.75025674  0.16589786  0.62433491  1
  Mn  Mn138  1  0.25003666  0.83318445  0.62519254  1
  Mn  Mn139  1  0.00033889  0.66573963  0.74909810  1
  Mn  Mn140  1  0.49980247  0.83298676  0.00036701  1
  Mn  Mn141  1  -0.00030854  0.66595430  0.24953636  1
  Mn  Mn142  1  0.75049409  0.00103875  0.87468350  1
  Mn  Mn143  1  -0.00002838  0.66558336  0.49939370  1
  Fe  Fe144  1  0.74963279  0.33268571  0.12500981  1
  Fe  Fe145  1  0.74981782  0.16669027  0.87492126  1
  Fe  Fe146  1  0.49975335  0.50054221  0.74938099  1
  Fe  Fe147  1  0.75029621  0.33265746  0.62485414  1
  Fe  Fe148  1  0.00035011  0.16686984  0.50048299  1
  Fe  Fe149  1  0.00017504  0.33351432  -0.00009773  1
  Fe  Fe150  1  0.25023367  0.83285231  0.37494476  1
  Fe  Fe151  1  -0.00027022  0.66609831  -0.00074514  1
  Fe  Fe152  1  0.25016044  0.66746477  0.37402089  1
  Fe  Fe153  1  0.74939341  -0.00065816  0.62495862  1
  Fe  Fe154  1  0.75024428  0.66675744  0.37545004  1
  Fe  Fe155  1  0.24984598  -0.00022408  0.87507393  1
  Fe  Fe156  1  0.75010016  0.83381190  0.37526358  1
  Fe  Fe157  1  0.50032591  0.66576346  0.25029448  1
  Fe  Fe158  1  0.00081531  0.33436615  0.25053856  1
  Fe  Fe159  1  0.75007650  0.16636870  0.12516660  1
  Fe  Fe160  1  0.00035818  0.49965221  0.49951893  1
  Fe  Fe161  1  0.00015411  -0.00032688  0.74932846  1
  Fe  Fe162  1  0.49966695  0.66630668  0.74981791  1
  Fe  Fe163  1  0.25063305  0.16682559  0.62604345  1
  Fe  Fe164  1  0.50043646  0.83291171  0.25067399  1
  Fe  Fe165  1  0.49998222  0.33355496  0.50011558  1
  Fe  Fe166  1  0.50016953  0.49997020  0.49994057  1
  Fe  Fe167  1  0.49979109  0.33281869  0.24995853  1
  Fe  Fe168  1  0.00009377  0.49901646  0.75022140  1
  Fe  Fe169  1  0.25028648  0.33383126  0.87477494  1
  Fe  Fe170  1  0.25070693  -0.00019726  0.62524387  1
  Fe  Fe171  1  0.25046408  0.83274980  0.12467150  1
  Fe  Fe172  1  0.75043415  0.49960371  0.62445135  1
  Fe  Fe173  1  0.49980710  0.16793401  0.74969419  1
  Fe  Fe174  1  0.25007307  0.49992383  0.87500764  1
  Fe  Fe175  1  0.00079004  0.49995026  0.24936465  1
  Fe  Fe176  1  0.75086025  0.00049403  0.12537919  1
  Fe  Fe177  1  0.49936133  0.16666253  0.25062141  1
  Fe  Fe178  1  0.24954622  0.33336866  0.62583940  1
  Fe  Fe179  1  0.74980971  -0.00023793  0.37541822  1
  Fe  Fe180  1  0.49966423  0.00035077  0.49983979  1
  Fe  Fe181  1  0.00036660  0.16600347  0.75022214  1
  Fe  Fe182  1  0.49956482  0.16721574  0.00050446  1
  Fe  Fe183  1  0.25029038  0.50043790  0.12454173  1
  Fe  Fe184  1  -0.00009306  0.83277416  0.74939635  1
  Fe  Fe185  1  0.24981507  0.83317124  0.87516483  1
  Fe  Fe186  1  0.00039061  0.00062413  0.50102132  1
  Fe  Fe187  1  0.50036676  0.49999111  0.00000574  1
  Fe  Fe188  1  0.74957479  0.83338479  0.62433095  1
  Fe  Fe189  1  0.25027956  0.66703495  0.12473914  1
  Fe  Fe190  1  0.24962524  0.66708062  0.62466963  1
  Fe  Fe191  1  0.25051120  0.33429769  0.12418792  1
  P  P192  1  0.04256961  0.25232665  0.10264610  1
  P  P193  1  0.04247291  0.25151693  0.35310193  1
  P  P194  1  0.04216733  0.24841650  0.60315543  1
  P  P195  1  0.04257909  0.24865662  0.85236294  1
  P  P196  1  0.04228401  0.58417424  0.10206807  1
  P  P197  1  0.04279107  0.58151073  0.35217023  1
  P  P198  1  0.04227674  0.58133047  0.60243791  1
  P  P199  1  0.04242420  0.58147342  0.85242812  1
  P  P200  1  0.04322887  0.91677856  0.10266125  1
  P  P201  1  0.04261255  0.91756806  0.35402148  1
  P  P202  1  0.04192751  0.91790496  0.60328171  1
  P  P203  1  0.04136170  0.91585184  0.85068327  1
  P  P204  1  0.54170346  0.24881815  0.10344783  1
  P  P205  1  0.54156325  0.25016247  0.35191665  1
  P  P206  1  0.54207962  0.25166064  0.60256129  1
  P  P207  1  0.54221234  0.24916437  0.85272883  1
  P  P208  1  0.54218883  0.58168344  0.10309690  1
  P  P209  1  0.54231236  0.58355646  0.35290059  1
  P  P210  1  0.54179995  0.58219417  0.60294497  1
  P  P211  1  0.54142824  0.58284602  0.85147508  1
  P  P212  1  0.54229492  0.91636272  0.10422680  1
  P  P213  1  0.54171025  0.91596969  0.35301117  1
  P  P214  1  0.54164682  0.91859918  0.60263941  1
  P  P215  1  0.54272301  0.91750570  0.85377220  1
  P  P216  1  0.45731384  0.08519426  0.14770853  1
  P  P217  1  0.45738209  0.08248249  0.39739080  1
  P  P218  1  0.45761218  0.08543836  0.64750992  1
  P  P219  1  0.45739986  0.08567924  0.89780496  1
  P  P220  1  0.45790583  0.41509903  0.14745115  1
  P  P221  1  0.45833401  0.41619414  0.39837299  1
  P  P222  1  0.45786999  0.41831426  0.64698888  1
  P  P223  1  0.45799511  0.41843994  0.89730927  1
  P  P224  1  0.45889758  0.74920062  0.14900043  1
  P  P225  1  0.45753383  0.74981889  0.39605154  1
  P  P226  1  0.45754488  0.74902347  0.64787753  1
  P  P227  1  0.45702839  0.74922191  0.89652776  1
  P  P228  1  0.95717484  0.08427387  0.14679164  1
  P  P229  1  0.95839590  0.08402910  0.39908003  1
  P  P230  1  0.95930152  0.08344150  0.64784001  1
  P  P231  1  0.95742213  0.08325026  0.89558689  1
  P  P232  1  0.95900325  0.41661604  0.14802703  1
  P  P233  1  0.95804341  0.41786287  0.39675394  1
  P  P234  1  0.95789105  0.41768999  0.64711431  1
  P  P235  1  0.95756841  0.41480249  0.89711716  1
  P  P236  1  0.95718202  0.74963423  0.14628213  1
  P  P237  1  0.95717320  0.74956689  0.39676179  1
  P  P238  1  0.95779556  0.75088816  0.64705848  1
  P  P239  1  0.95804968  0.74826036  0.89646877  1
  P  P240  1  0.20670399  0.08321560  0.22828188  1
  P  P241  1  0.20809142  0.08350234  0.47968781  1
  P  P242  1  0.20934808  0.08260811  0.72711858  1
  P  P243  1  0.20737521  0.08214755  0.97717423  1
  P  P244  1  0.20910723  0.41730286  0.22603102  1
  P  P245  1  0.20753979  0.41683312  0.47860081  1
  P  P246  1  0.20789230  0.41549968  0.72826165  1
  P  P247  1  0.20906505  0.41711349  0.97703613  1
  P  P248  1  0.20867380  0.74996328  0.22684375  1
  P  P249  1  0.20837919  0.74984899  0.47658855  1
  P  P250  1  0.20763024  0.74872205  0.72755859  1
  P  P251  1  0.20790630  0.75099611  0.97779774  1
  P  P252  1  0.70866548  0.08267526  0.22714488  1
  P  P253  1  0.70779132  0.08156830  0.47785801  1
  P  P254  1  0.70767900  0.08231291  0.72720535  1
  P  P255  1  0.70819175  0.08530929  0.97836803  1
  P  P256  1  0.70755178  0.41521585  0.22737131  1
  P  P257  1  0.70751633  0.41622925  0.47919463  1
  P  P258  1  0.70851452  0.41591602  0.72613113  1
  P  P259  1  0.70710267  0.41556973  0.97859431  1
  P  P260  1  0.70755684  0.75049079  0.22960840  1
  P  P261  1  0.70841502  0.75043807  0.47674199  1
  P  P262  1  0.70709165  0.75144475  0.72683195  1
  P  P263  1  0.70672797  0.75047155  0.97818091  1
  P  P264  1  0.29191538  0.25182703  0.02189186  1
  P  P265  1  0.29269178  0.25061434  0.27138235  1
  P  P266  1  0.29150855  0.25056553  0.52434327  1
  P  P267  1  0.29189274  0.25132169  0.77210699  1
  P  P268  1  0.29156625  0.58356880  0.02315002  1
  P  P269  1  0.29202280  0.58498054  0.27152546  1
  P  P270  1  0.29198131  0.58544814  0.52212064  1
  P  P271  1  0.29181703  0.58196059  0.77243264  1
  P  P272  1  0.29220356  0.91511384  0.02192684  1
  P  P273  1  0.29215687  0.91467464  0.27244159  1
  P  P274  1  0.29243144  0.91718064  0.52268269  1
  P  P275  1  0.29109142  0.91675077  0.77335870  1
  P  P276  1  0.79156522  0.24950453  0.02337892  1
  P  P277  1  0.79252104  0.24937482  0.27084100  1
  P  P278  1  0.79286080  0.25058137  0.52247487  1
  P  P279  1  0.79207102  0.24851365  0.77197149  1
  P  P280  1  0.79299316  0.58322688  0.02160349  1
  P  P281  1  0.79211052  0.58440686  0.27281759  1
  P  P282  1  0.79198564  0.58264038  0.52203148  1
  P  P283  1  0.79222106  0.58272131  0.77069258  1
  P  P284  1  0.79272092  0.91855658  0.02285734  1
  P  P285  1  0.79187584  0.91739768  0.27362269  1
  P  P286  1  0.79113714  0.91648518  0.52267977  1
  P  P287  1  0.79236169  0.91680639  0.77077920  1
  O  O288  1  0.03755332  0.25273727  0.18265218  1
  O  O289  1  0.03706284  0.25082062  0.43303499  1
  O  O290  1  0.03690898  0.24823590  0.68306013  1
  O  O291  1  0.03737349  0.24953529  0.93228192  1
  O  O292  1  0.03708398  0.58346946  0.18199624  1
  O  O293  1  0.03768287  0.58135275  0.43214242  1
  O  O294  1  0.03687757  0.58132757  0.68235425  1
  O  O295  1  0.03699645  0.58243099  0.93233410  1
  O  O296  1  0.03817640  0.91694333  0.18266046  1
  O  O297  1  0.03717134  0.91804690  0.43397074  1
  O  O298  1  0.03653774  0.91724922  0.68317525  1
  O  O299  1  0.03670842  0.91583218  0.93067243  1
  O  O300  1  0.53623530  0.24912082  0.18330446  1
  O  O301  1  0.53640323  0.25075740  0.43191043  1
  O  O302  1  0.53711167  0.25129381  0.68249679  1
  O  O303  1  0.53681515  0.24897491  0.93265441  1
  O  O304  1  0.53708501  0.58236014  0.18305410  1
  O  O305  1  0.53707092  0.58302050  0.43280813  1
  O  O306  1  0.53649576  0.58270212  0.68285660  1
  O  O307  1  0.53645947  0.58244497  0.93149122  1
  O  O308  1  0.53680460  0.91584383  0.18417167  1
  O  O309  1  0.53639580  0.91680260  0.43295282  1
  O  O310  1  0.53675055  0.91851912  0.68261606  1
  O  O311  1  0.53769858  0.91740419  0.93373926  1
  O  O312  1  0.46258639  0.08539560  0.06775870  1
  O  O313  1  0.46246356  0.08297196  0.31744794  1
  O  O314  1  0.46264348  0.08461487  0.56757024  1
  O  O315  1  0.46269215  0.08585804  0.81784244  1
  O  O316  1  0.46301518  0.41584508  0.06755492  1
  O  O317  1  0.46352486  0.41533184  0.31840553  1
  O  O318  1  0.46303539  0.41784794  0.56712085  1
  O  O319  1  0.46317619  0.41869318  0.81736885  1
  O  O320  1  0.46382591  0.74913719  0.06898212  1
  O  O321  1  0.46330989  0.74977906  0.31620947  1
  O  O322  1  0.46240542  0.74931244  0.56787497  1
  O  O323  1  0.46225695  0.74875018  0.81658074  1
  O  O324  1  0.96218599  0.08411093  0.06683584  1
  O  O325  1  0.96320222  0.08406887  0.31907982  1
  O  O326  1  0.96443899  0.08328893  0.56794941  1
  O  O327  1  0.96279269  0.08328491  0.81566278  1
  O  O328  1  0.96370863  0.41604432  0.06802234  1
  O  O329  1  0.96381565  0.41751727  0.31689510  1
  O  O330  1  0.96314316  0.41785684  0.56717947  1
  O  O331  1  0.96259988  0.41522251  0.81717639  1
  O  O332  1  0.96240397  0.74910396  0.06629378  1
  O  O333  1  0.96209254  0.74964696  0.31679581  1
  O  O334  1  0.96281083  0.75065627  0.56712076  1
  O  O335  1  0.96356355  0.74892175  0.81653424  1
  O  O336  1  0.21226793  0.08233734  0.05714205  1
  O  O337  1  0.21211462  0.08331792  0.30824725  1
  O  O338  1  0.21377095  0.08341700  0.55956163  1
  O  O339  1  0.21398578  0.08252338  0.80712561  1
  O  O340  1  0.21432666  0.41720371  0.05693838  1
  O  O341  1  0.21361078  0.41764624  0.30602578  1
  O  O342  1  0.21253615  0.41639183  0.55853627  1
  O  O343  1  0.21348132  0.41576927  0.80811001  1
  O  O344  1  0.21335025  0.75093115  0.05764153  1
  O  O345  1  0.21385687  0.74987781  0.30676942  1
  O  O346  1  0.21337319  0.74938027  0.55656310  1
  O  O347  1  0.21263681  0.74926935  0.80744830  1
  O  O348  1  0.71382649  0.08530048  0.05820555  1
  O  O349  1  0.71371325  0.08217546  0.30713183  1
  O  O350  1  0.71287498  0.08160103  0.55778680  1
  O  O351  1  0.71265863  0.08328565  0.80713994  1
  O  O352  1  0.71233387  0.41521186  0.05852730  1
  O  O353  1  0.71242972  0.41570955  0.30737512  1
  O  O354  1  0.71318554  0.41619763  0.55907417  1
  O  O355  1  0.71327668  0.41595837  0.80619869  1
  O  O356  1  0.71178697  0.75051720  0.05818773  1
  O  O357  1  0.71326170  0.75022112  0.30949442  1
  O  O358  1  0.71357500  0.75088398  0.55673388  1
  O  O359  1  0.71202524  0.75098299  0.80680793  1
  O  O360  1  0.28745634  0.25106483  0.19145329  1
  O  O361  1  0.28704636  0.25019594  0.44430653  1
  O  O362  1  0.28639513  0.25107660  0.69224546  1
  O  O363  1  0.28653191  0.25177666  0.94195136  1
  O  O364  1  0.28683447  0.58475360  0.19164815  1
  O  O365  1  0.28669289  0.58574341  0.44217018  1
  O  O366  1  0.28667842  0.58245188  0.69257245  1
  O  O367  1  0.28659923  0.58268400  0.94321975  1
  O  O368  1  0.28690146  0.91448594  0.19248924  1
  O  O369  1  0.28730536  0.91644236  0.44278235  1
  O  O370  1  0.28636528  0.91716777  0.69333928  1
  O  O371  1  0.28670723  0.91537259  0.94203441  1
  O  O372  1  0.78697597  0.24931868  0.19094591  1
  O  O373  1  0.78797122  0.25009561  0.44250645  1
  O  O374  1  0.78687961  0.24941112  0.69203493  1
  O  O375  1  0.78664892  0.24909274  0.94335387  1
  O  O376  1  0.78705942  0.58403204  0.19284890  1
  O  O377  1  0.78664618  0.58333939  0.44210277  1
  O  O378  1  0.78697340  0.58225426  0.69071544  1
  O  O379  1  0.78781591  0.58299832  0.94160181  1
  O  O380  1  0.78673039  0.91806919  0.19366780  1
  O  O381  1  0.78597396  0.91655583  0.44274439  1
  O  O382  1  0.78690814  0.91656223  0.69087465  1
  O  O383  1  0.78758375  0.91832444  0.94290328  1
  O  O384  1  0.22773225  0.25232236  0.05787161  1
  O  O385  1  0.22832832  0.25040802  0.30673712  1
  O  O386  1  0.22726892  0.25071540  0.55993031  1
  O  O387  1  0.22785009  0.25142982  0.80840868  1
  O  O388  1  0.22744043  0.58449121  0.05913057  1
  O  O389  1  0.22786935  0.58511074  0.30765265  1
  O  O390  1  0.22775324  0.58512417  0.55799272  1
  O  O391  1  0.22760695  0.58169476  0.80831347  1
  O  O392  1  0.22805146  0.91454796  0.05805609  1
  O  O393  1  0.22797940  0.91458718  0.30840383  1
  O  O394  1  0.22815783  0.91776548  0.55839346  1
  O  O395  1  0.22690660  0.91675857  0.80922606  1
  O  O396  1  0.72741383  0.24963667  0.05943868  1
  O  O397  1  0.72834457  0.24888927  0.30672827  1
  O  O398  1  0.72842599  0.25092905  0.55767780  1
  O  O399  1  0.72777059  0.24790760  0.80771025  1
  O  O400  1  0.72854912  0.58292291  0.05665080  1
  O  O401  1  0.72777419  0.58503144  0.30831367  1
  O  O402  1  0.72782704  0.58226720  0.55789485  1
  O  O403  1  0.72787199  0.58291807  0.80606421  1
  O  O404  1  0.72836086  0.91924867  0.05840275  1
  O  O405  1  0.72770699  0.91712059  0.30976076  1
  O  O406  1  0.72701986  0.91640243  0.55897375  1
  O  O407  1  0.72819876  0.91731492  0.80668197  1
  O  O408  1  0.27103731  0.08328293  0.19296394  1
  O  O409  1  0.27217347  0.08314979  0.44352206  1
  O  O410  1  0.27348756  0.08235119  0.69125323  1
  O  O411  1  0.27175132  0.08213647  0.94179478  1
  O  O412  1  0.27337386  0.41661513  0.19048233  1
  O  O413  1  0.27189644  0.41737872  0.44330954  1
  O  O414  1  0.27194090  0.41537554  0.69190234  1
  O  O415  1  0.27305460  0.41730710  0.94050380  1
  O  O416  1  0.27273915  0.74954259  0.19032235  1
  O  O417  1  0.27252865  0.75015952  0.44045101  1
  O  O418  1  0.27197654  0.74836407  0.69195522  1
  O  O419  1  0.27203128  0.75116184  0.94164256  1
  O  O420  1  0.77281876  0.08282409  0.19107231  1
  O  O421  1  0.77219260  0.08134766  0.44240840  1
  O  O422  1  0.77199228  0.08164374  0.69161441  1
  O  O423  1  0.77224054  0.08550538  0.94186643  1
  O  O424  1  0.77195547  0.41471411  0.19206316  1
  O  O425  1  0.77163324  0.41660726  0.44322993  1
  O  O426  1  0.77276747  0.41573282  0.69042122  1
  O  O427  1  0.77144782  0.41571072  0.94326293  1
  O  O428  1  0.77163595  0.75078822  0.19346387  1
  O  O429  1  0.77250848  0.75041344  0.44059284  1
  O  O430  1  0.77147876  0.75160578  0.69145565  1
  O  O431  1  0.77122361  0.75023583  0.94319801  1
  O  O432  1  0.02163041  0.08447786  0.18175705  1
  O  O433  1  0.02264005  0.08415490  0.43489347  1
  O  O434  1  0.02327140  0.08368793  0.68432077  1
  O  O435  1  0.02168040  0.08346297  0.93119993  1
  O  O436  1  0.02327026  0.41721381  0.18383075  1
  O  O437  1  0.02209424  0.41771076  0.43319590  1
  O  O438  1  0.02210750  0.41750738  0.68294569  1
  O  O439  1  0.02195018  0.41476426  0.93259417  1
  O  O440  1  0.02156789  0.74976839  0.18152188  1
  O  O441  1  0.02163753  0.74973954  0.43161529  1
  O  O442  1  0.02214003  0.75080481  0.68245413  1
  O  O443  1  0.02226695  0.74773335  0.93241360  1
  O  O444  1  0.52152848  0.08496179  0.18348258  1
  O  O445  1  0.52168809  0.08241295  0.43302308  1
  O  O446  1  0.52192879  0.08584155  0.68315127  1
  O  O447  1  0.52167328  0.08574851  0.93356028  1
  O  O448  1  0.52213690  0.41473605  0.18327060  1
  O  O449  1  0.52245316  0.41648839  0.43452113  1
  O  O450  1  0.52208330  0.41856706  0.68296430  1
  O  O451  1  0.52221988  0.41815096  0.93310149  1
  O  O452  1  0.52302464  0.74918696  0.18492250  1
  O  O453  1  0.52155403  0.75007106  0.43220038  1
  O  O454  1  0.52189489  0.74901864  0.68316812  1
  O  O455  1  0.52134408  0.74916224  0.93188313  1
  O  O456  1  0.47765033  0.24865866  0.06702128  1
  O  O457  1  0.47737007  0.25013447  0.31594537  1
  O  O458  1  0.47777933  0.25173884  0.56695883  1
  O  O459  1  0.47799412  0.24964359  0.81685413  1
  O  O460  1  0.47785888  0.58115331  0.06747680  1
  O  O461  1  0.47810821  0.58370829  0.31710001  1
  O  O462  1  0.47766359  0.58158321  0.56686319  1
  O  O463  1  0.47721452  0.58298680  0.81558656  1
  O  O464  1  0.47804275  0.91682573  0.06867546  1
  O  O465  1  0.47756233  0.91543339  0.31719415  1
  O  O466  1  0.47725879  0.91877609  0.56733474  1
  O  O467  1  0.47828780  0.91754648  0.81876767  1
  O  O468  1  0.97821444  0.25212950  0.06709352  1
  O  O469  1  0.97827579  0.25239513  0.31718839  1
  O  O470  1  0.97798121  0.24845057  0.56726472  1
  O  O471  1  0.97830341  0.24803514  0.81667884  1
  O  O472  1  0.97805877  0.58444803  0.06626000  1
  O  O473  1  0.97844323  0.58107888  0.31667361  1
  O  O474  1  0.97805333  0.58113429  0.56654861  1
  O  O475  1  0.97823483  0.58134236  0.81646772  1
  O  O476  1  0.97874281  0.91631320  0.06777741  1
  O  O477  1  0.97829877  0.91728436  0.31859367  1
  O  O478  1  0.97780359  0.91825863  0.56719949  1
  O  O479  1  0.97715145  0.91574621  0.81508864  1
  O  O480  1  0.07326661  0.31559266  0.07343706  1
  O  O481  1  0.07363716  0.31497357  0.32492787  1
  O  O482  1  0.07303557  0.31232588  0.57566308  1
  O  O483  1  0.07358132  0.31211842  0.82402784  1
  O  O484  1  0.07294490  0.64777492  0.07368408  1
  O  O485  1  0.07337051  0.64556956  0.32454496  1
  O  O486  1  0.07293022  0.64541013  0.57479489  1
  O  O487  1  0.07398524  0.64456688  0.82398827  1
  O  O488  1  0.07391544  0.98034960  0.07425271  1
  O  O489  1  0.07386241  0.98084885  0.32571681  1
  O  O490  1  0.07288799  0.98145062  0.57494332  1
  O  O491  1  0.07189784  0.97975281  0.82257944  1
  O  O492  1  0.57276783  0.31235408  0.07513002  1
  O  O493  1  0.57269583  0.31343340  0.32330059  1
  O  O494  1  0.57264132  0.31526972  0.57398923  1
  O  O495  1  0.57348835  0.31294414  0.82537869  1
  O  O496  1  0.57323053  0.64514085  0.07475549  1
  O  O497  1  0.57287060  0.64725466  0.32449538  1
  O  O498  1  0.57281435  0.64586072  0.57484733  1
  O  O499  1  0.57193018  0.64682547  0.82338244  1
  O  O500  1  0.57332546  0.98017500  0.07666977  1
  O  O501  1  0.57294221  0.97934321  0.32474669  1
  O  O502  1  0.57235045  0.98203810  0.57394143  1
  O  O503  1  0.57376381  0.98108458  0.82590473  1
  O  O504  1  0.42612167  0.02133096  0.17496639  1
  O  O505  1  0.42694981  0.01874434  0.42589677  1
  O  O506  1  0.42643137  0.02215669  0.67606572  1
  O  O507  1  0.42660901  0.02174241  0.92551204  1
  O  O508  1  0.42718371  0.35147934  0.17571563  1
  O  O509  1  0.42735854  0.35282892  0.42713501  1
  O  O510  1  0.42692093  0.35481378  0.67559752  1
  O  O511  1  0.42692292  0.35458865  0.92468684  1
  O  O512  1  0.42811024  0.68533912  0.17678394  1
  O  O513  1  0.42631581  0.68636298  0.42420744  1
  O  O514  1  0.42700376  0.68530144  0.67610506  1
  O  O515  1  0.42569153  0.68607265  0.92519452  1
  O  O516  1  0.92630863  0.02081785  0.17518220  1
  O  O517  1  0.92785394  0.02022268  0.42733813  1
  O  O518  1  0.92870636  0.01960368  0.67635277  1
  O  O519  1  0.92635681  0.01968264  0.92374342  1
  O  O520  1  0.92836257  0.35316698  0.17692719  1
  O  O521  1  0.92650390  0.35452439  0.42489231  1
  O  O522  1  0.92691681  0.35373256  0.67443472  1
  O  O523  1  0.92708286  0.35111097  0.92567700  1
  O  O524  1  0.92583730  0.68648026  0.17477139  1
  O  O525  1  0.92645953  0.68585780  0.42477488  1
  O  O526  1  0.92663123  0.68724095  0.67464084  1
  O  O527  1  0.92728329  0.68456359  0.92458599  1
  O  O528  1  0.17576787  0.01950856  0.20052807  1
  O  O529  1  0.17652647  0.02029811  0.45135057  1
  O  O530  1  0.17800290  0.01937432  0.69869214  1
  O  O531  1  0.17676857  0.01857951  0.94851299  1
  O  O532  1  0.17782643  0.35393528  0.19790181  1
  O  O533  1  0.17656223  0.35345013  0.44999543  1
  O  O534  1  0.17685443  0.35202758  0.69972306  1
  O  O535  1  0.17815125  0.35347710  0.94864154  1
  O  O536  1  0.17742979  0.68657774  0.19830130  1
  O  O537  1  0.17746572  0.68643555  0.44785104  1
  O  O538  1  0.17686017  0.68513798  0.69905718  1
  O  O539  1  0.17681853  0.68728898  0.94986363  1
  O  O540  1  0.67767249  0.01924345  0.19857650  1
  O  O541  1  0.67665843  0.01843291  0.44903723  1
  O  O542  1  0.67681381  0.01867911  0.69898916  1
  O  O543  1  0.67700807  0.02165428  0.95049884  1
  O  O544  1  0.67670096  0.35165454  0.19916308  1
  O  O545  1  0.67647642  0.35273508  0.45077132  1
  O  O546  1  0.67770848  0.35205996  0.69833499  1
  O  O547  1  0.67587988  0.35229865  0.95004715  1
  O  O548  1  0.67630573  0.68718390  0.20104536  1
  O  O549  1  0.67781995  0.68630302  0.44915279  1
  O  O550  1  0.67608945  0.68781185  0.69880025  1
  O  O551  1  0.67568119  0.68700012  0.94986695  1
  O  O552  1  0.32324457  0.31503187  0.05036761  1
  O  O553  1  0.32380419  0.31391013  0.30009722  1
  O  O554  1  0.32239067  0.31429324  0.55224241  1
  O  O555  1  0.32297608  0.31470180  0.80073210  1
  O  O556  1  0.32298510  0.64708996  0.05081233  1
  O  O557  1  0.32294416  0.64834104  0.30035985  1
  O  O558  1  0.32269323  0.64879675  0.55118733  1
  O  O559  1  0.32293776  0.64541598  0.80069811  1
  O  O560  1  0.32305477  0.97887995  0.05014898  1
  O  O561  1  0.32304173  0.97864140  0.29993511  1
  O  O562  1  0.32343717  0.98063065  0.55111424  1
  O  O563  1  0.32219870  0.98014057  0.80200072  1
  O  O564  1  0.82207966  0.31356014  0.05135522  1
  O  O565  1  0.82348482  0.31292947  0.29915808  1
  O  O566  1  0.82372974  0.31401139  0.55095275  1
  O  O567  1  0.82307567  0.31198126  0.80047745  1
  O  O568  1  0.82379252  0.64683255  0.04968044  1
  O  O569  1  0.82323309  0.64773711  0.30123031  1
  O  O570  1  0.82331330  0.64611074  0.55001295  1
  O  O571  1  0.82311539  0.64657418  0.79841363  1
  O  O572  1  0.82385845  0.98191794  0.05115910  1
  O  O573  1  0.82278107  0.98084030  0.30235007  1
  O  O574  1  0.82201582  0.98011000  0.55121416  1
  O  O575  1  0.82385834  0.98007559  0.79904078  1
  O  O576  1  0.42643881  0.14842081  0.17671088  1
  O  O577  1  0.42609234  0.14595405  0.42545948  1
  O  O578  1  0.42712266  0.14932320  0.67569524  1
  O  O579  1  0.42625638  0.14888712  0.92647311  1
  O  O580  1  0.42681361  0.47852177  0.17594565  1
  O  O581  1  0.42768224  0.48031443  0.42587018  1
  O  O582  1  0.42677987  0.48166764  0.67566925  1
  O  O583  1  0.42724463  0.48169603  0.92650687  1
  O  O584  1  0.42819748  0.81305127  0.17694198  1
  O  O585  1  0.42601796  0.81303994  0.42453527  1
  O  O586  1  0.42639832  0.81268846  0.67566070  1
  O  O587  1  0.42620613  0.81297963  0.92452505  1
  O  O588  1  0.92626390  0.14784125  0.17494113  1
  O  O589  1  0.92759190  0.14780690  0.42709561  1
  O  O590  1  0.92795879  0.14683304  0.67615939  1
  O  O591  1  0.92613264  0.14649445  0.92426186  1
  O  O592  1  0.92810279  0.48051994  0.17575844  1
  O  O593  1  0.92726233  0.48141872  0.42533537  1
  O  O594  1  0.92705754  0.48090829  0.67615034  1
  O  O595  1  0.92631510  0.47818612  0.92540246  1
  O  O596  1  0.92628930  0.81337056  0.17436053  1
  O  O597  1  0.92590741  0.81288227  0.42494914  1
  O  O598  1  0.92725111  0.81455578  0.67552799  1
  O  O599  1  0.92688579  0.81179663  0.92456655  1
  O  O600  1  0.07355931  0.18847153  0.07505826  1
  O  O601  1  0.07328595  0.18785588  0.32484582  1
  O  O602  1  0.07320208  0.18519390  0.57436154  1
  O  O603  1  0.07354671  0.18506328  0.82416711  1
  O  O604  1  0.07345457  0.52063106  0.07402302  1
  O  O605  1  0.07407003  0.51852107  0.32306561  1
  O  O606  1  0.07350601  0.51819481  0.57381956  1
  O  O607  1  0.07276486  0.51739773  0.82451293  1
  O  O608  1  0.07445089  0.85337603  0.07451223  1
  O  O609  1  0.07361058  0.85383606  0.32613071  1
  O  O610  1  0.07321545  0.85445415  0.57493584  1
  O  O611  1  0.07232671  0.85221118  0.82256502  1
  O  O612  1  0.57277290  0.18544138  0.07485876  1
  O  O613  1  0.57203432  0.18594015  0.32431618  1
  O  O614  1  0.57335218  0.18824745  0.57431022  1
  O  O615  1  0.57285712  0.18585080  0.82359884  1
  O  O616  1  0.57290147  0.51802661  0.07465500  1
  O  O617  1  0.57369426  0.52011702  0.32491774  1
  O  O618  1  0.57288491  0.51889425  0.57416222  1
  O  O619  1  0.57254340  0.51946775  0.82293935  1
  O  O620  1  0.57353540  0.85312835  0.07581482  1
  O  O621  1  0.57257504  0.85225701  0.32494268  1
  O  O622  1  0.57246538  0.85470911  0.57495603  1
  O  O623  1  0.57370469  0.85406533  0.82532384  1
  O  O624  1  0.32243971  0.18773537  0.04946849  1
  O  O625  1  0.32368874  0.18706324  0.29955755  1
  O  O626  1  0.32198302  0.18675003  0.55285757  1
  O  O627  1  0.32309970  0.18775331  0.80008649  1
  O  O628  1  0.32185878  0.51983447  0.05217997  1
  O  O629  1  0.32314233  0.52137725  0.29972723  1
  O  O630  1  0.32312666  0.52167904  0.54954436  1
  O  O631  1  0.32255493  0.51837510  0.80086495  1
  O  O632  1  0.32354483  0.85192799  0.05061750  1
  O  O633  1  0.32316783  0.85146430  0.30117810  1
  O  O634  1  0.32329398  0.85360135  0.55107373  1
  O  O635  1  0.32156229  0.85267196  0.80119222  1
  O  O636  1  0.82272775  0.18621803  0.05182299  1
  O  O637  1  0.82405828  0.18619101  0.29929210  1
  O  O638  1  0.82362203  0.18679755  0.55034438  1
  O  O639  1  0.82281093  0.18486772  0.80011696  1
  O  O640  1  0.82420215  0.51982116  0.04983069  1
  O  O641  1  0.82271787  0.52041459  0.30039677  1
  O  O642  1  0.82277888  0.51898965  0.55025654  1
  O  O643  1  0.82348541  0.51954123  0.79922544  1
  O  O644  1  0.82322591  0.85464328  0.05075239  1
  O  O645  1  0.82268890  0.85355437  0.30140946  1
  O  O646  1  0.82212184  0.85286268  0.55092480  1
  O  O647  1  0.82330803  0.85335539  0.79938778  1
  O  O648  1  0.17553806  0.14659155  0.20008971  1
  O  O649  1  0.17707027  0.14708149  0.45146460  1
  O  O650  1  0.17922448  0.14687285  0.69906534  1
  O  O651  1  0.17636462  0.14585294  0.94950000  1
  O  O652  1  0.17902555  0.48137110  0.19752492  1
  O  O653  1  0.17644389  0.48034592  0.45050343  1
  O  O654  1  0.17662891  0.47892730  0.70012312  1
  O  O655  1  0.17801027  0.48072772  0.94876122  1
  O  O656  1  0.17803472  0.81375167  0.19858965  1
  O  O657  1  0.17768848  0.81382665  0.44886565  1
  O  O658  1  0.17674988  0.81224835  0.69912686  1
  O  O659  1  0.17687925  0.81419042  0.94872557  1
  O  O660  1  0.67795938  0.14657154  0.19933892  1
  O  O661  1  0.67712998  0.14550576  0.44996086  1
  O  O662  1  0.67665209  0.14569659  0.69866125  1
  O  O663  1  0.67725081  0.14859260  0.94935716  1
  O  O664  1  0.67677462  0.47902928  0.19962930  1
  O  O665  1  0.67595847  0.47944410  0.45091954  1
  O  O666  1  0.67797251  0.47975874  0.69803686  1
  O  O667  1  0.67607216  0.47912039  0.95046542  1
  O  O668  1  0.67628430  0.81400898  0.20165779  1
  O  O669  1  0.67724448  0.81382064  0.44845884  1
  O  O670  1  0.67634671  0.81496657  0.69847485  1
  O  O671  1  0.67594402  0.81418074  0.95031063  1
