# generated using pymatgen
data_Na2MnFe(PO4)2
_symmetry_space_group_name_H-M   'P 1'
_cell_length_a   22.34646775
_cell_length_b   20.09648402
_cell_length_c   19.44585622
_cell_angle_alpha   90.03450255
_cell_angle_beta   90.02748548
_cell_angle_gamma   89.95956002
_symmetry_Int_Tables_number   1
_chemical_formula_structural   Na2MnFe(PO4)2
_chemical_formula_sum   'Na96 Mn48 Fe48 P96 O384'
_cell_volume   8732.84597865
_cell_formula_units_Z   48
loop_
 _symmetry_equiv_pos_site_id
 _symmetry_equiv_pos_as_xyz
  1  'x, y, z'
loop_
 _atom_site_type_symbol
 _atom_site_label
 _atom_site_symmetry_multiplicity
 _atom_site_fract_x
 _atom_site_fract_y
 _atom_site_fract_z
 _atom_site_occupancy
  Na  Na0  1  0.14055549  0.25030633  0.24396561  1
  Na  Na1  1  0.14031790  0.24841851  0.49452411  1
  Na  Na2  1  0.14038628  0.24965172  0.74333181  1
  Na  Na3  1  0.14074590  0.24965520  0.99345573  1
  Na  Na4  1  0.13960475  0.58359238  0.24442195  1
  Na  Na5  1  0.13964954  0.58372004  0.49392649  1
  Na  Na6  1  0.14054173  0.58394190  0.74303930  1
  Na  Na7  1  0.14055365  0.58187835  0.99448059  1
  Na  Na8  1  0.14023880  0.91742607  0.24494126  1
  Na  Na9  1  0.14039477  0.91655340  0.49468798  1
  Na  Na10  1  0.14046920  0.91717508  0.74319870  1
  Na  Na11  1  0.13972172  0.91577762  0.99287212  1
  Na  Na12  1  0.64035993  0.24964881  0.24308093  1
  Na  Na13  1  0.63974147  0.24960859  0.49301979  1
  Na  Na14  1  0.63991109  0.25154614  0.74274634  1
  Na  Na15  1  0.64044973  0.24875937  0.99357573  1
  Na  Na16  1  0.64009040  0.58267901  0.24271558  1
  Na  Na17  1  0.64020978  0.58219008  0.49309688  1
  Na  Na18  1  0.63998136  0.58368211  0.74422174  1
  Na  Na19  1  0.63983454  0.58350645  0.99375610  1
  Na  Na20  1  0.64049120  0.91693199  0.24256049  1
  Na  Na21  1  0.63996389  0.91615085  0.49282529  1
  Na  Na22  1  0.64049015  0.91882266  0.74390126  1
  Na  Na23  1  0.64053406  0.91692865  0.99510702  1
  Na  Na24  1  0.36017136  0.08305679  0.00482930  1
  Na  Na25  1  0.36004453  0.08316202  0.25667281  1
  Na  Na26  1  0.35978206  0.08347594  0.50799860  1
  Na  Na27  1  0.36015801  0.08443196  0.75631466  1
  Na  Na28  1  0.35999560  0.41628771  0.00637909  1
  Na  Na29  1  0.36081654  0.41716999  0.25645564  1
  Na  Na30  1  0.36035546  0.41645464  0.50751017  1
  Na  Na31  1  0.35952281  0.41690956  0.75581383  1
  Na  Na32  1  0.35961514  0.74821532  0.00602778  1
  Na  Na33  1  0.35962204  0.75083723  0.25613317  1
  Na  Na34  1  0.35959739  0.75093945  0.50698627  1
  Na  Na35  1  0.35952268  0.75045551  0.75584822  1
  Na  Na36  1  0.85949829  0.08291112  0.00758682  1
  Na  Na37  1  0.85996383  0.08350662  0.25542931  1
  Na  Na38  1  0.85988025  0.08256333  0.50582680  1
  Na  Na39  1  0.85930205  0.08466965  0.75592755  1
  Na  Na40  1  0.85961957  0.41571377  0.00664117  1
  Na  Na41  1  0.85956511  0.41741892  0.25650462  1
  Na  Na42  1  0.85974489  0.41662764  0.50603890  1
  Na  Na43  1  0.85959230  0.41676416  0.75572250  1
  Na  Na44  1  0.85936147  0.75109243  0.00782763  1
  Na  Na45  1  0.85958211  0.74951941  0.25694340  1
  Na  Na46  1  0.85941699  0.74820837  0.50600713  1
  Na  Na47  1  0.85948676  0.75112106  0.75546752  1
  Na  Na48  1  0.10968636  0.08377658  0.11840436  1
  Na  Na49  1  0.11020180  0.08269023  0.37014962  1
  Na  Na50  1  0.10977302  0.08211504  0.61760143  1
  Na  Na51  1  0.10957718  0.08285578  0.86807612  1
  Na  Na52  1  0.10974873  0.41748235  0.11935546  1
  Na  Na53  1  0.10940939  0.41751086  0.36892281  1
  Na  Na54  1  0.10931278  0.41531312  0.61849869  1
  Na  Na55  1  0.10985957  0.41570569  0.86903490  1
  Na  Na56  1  0.10921849  0.75006539  0.11911327  1
  Na  Na57  1  0.10916307  0.74914109  0.37036154  1
  Na  Na58  1  0.10953635  0.74947671  0.61734479  1
  Na  Na59  1  0.10946894  0.75037163  0.86879453  1
  Na  Na60  1  0.60989114  0.08280941  0.11845698  1
  Na  Na61  1  0.60943060  0.08347959  0.36784188  1
  Na  Na62  1  0.60980174  0.08466686  0.61858774  1
  Na  Na63  1  0.61001397  0.08477279  0.86811159  1
  Na  Na64  1  0.60965487  0.41609718  0.11843249  1
  Na  Na65  1  0.60966014  0.41667515  0.36878648  1
  Na  Na66  1  0.60941762  0.41589030  0.61802351  1
  Na  Na67  1  0.60961679  0.41734992  0.86878408  1
  Na  Na68  1  0.60968267  0.74977090  0.11858215  1
  Na  Na69  1  0.60942862  0.74951506  0.36698281  1
  Na  Na70  1  0.60904068  0.74863378  0.61880593  1
  Na  Na71  1  0.60952928  0.75030527  0.86987631  1
  Na  Na72  1  0.39120129  0.24966711  0.13090467  1
  Na  Na73  1  0.39119821  0.25112913  0.38199804  1
  Na  Na74  1  0.39043775  0.24967207  0.63197079  1
  Na  Na75  1  0.39059443  0.25136283  0.88008009  1
  Na  Na76  1  0.39062306  0.58253427  0.13104262  1
  Na  Na77  1  0.39060311  0.58226082  0.38121952  1
  Na  Na78  1  0.39069700  0.58228768  0.63164556  1
  Na  Na79  1  0.39021040  0.58392882  0.88141935  1
  Na  Na80  1  0.39037536  0.91685497  0.13121456  1
  Na  Na81  1  0.39049889  0.91810230  0.38167654  1
  Na  Na82  1  0.39045663  0.91715641  0.63281017  1
  Na  Na83  1  0.39042547  0.91784523  0.88038738  1
  Na  Na84  1  0.89042765  0.25112129  0.13122640  1
  Na  Na85  1  0.89072800  0.24927729  0.38055468  1
  Na  Na86  1  0.89010763  0.24882587  0.63099640  1
  Na  Na87  1  0.89007407  0.25025213  0.88160120  1
  Na  Na88  1  0.89029692  0.58409652  0.13247107  1
  Na  Na89  1  0.88982350  0.58376374  0.38170556  1
  Na  Na90  1  0.88987541  0.58193336  0.63012302  1
  Na  Na91  1  0.89065514  0.58320788  0.88143876  1
  Na  Na92  1  0.89034960  0.91705424  0.13180723  1
  Na  Na93  1  0.89037963  0.91673532  0.38190952  1
  Na  Na94  1  0.89011021  0.91622579  0.62978365  1
  Na  Na95  1  0.89008469  0.91724660  0.88279323  1
  Mn  Mn96  1  0.25105055  0.33377238  0.12491666  1
  Mn  Mn97  1  0.75026378  0.00096847  0.62440376  1
  Mn  Mn98  1  0.50051013  0.33365192  -0.00015106  1
  Mn  Mn99  1  0.75012796  0.49985987  0.12503636  1
  Mn  Mn100  1  0.50021166  0.49984436  0.74994806  1
  Mn  Mn101  1  0.49979772  0.66624833  0.24974974  1
  Mn  Mn102  1  0.74999046  0.33375873  0.62422137  1
  Mn  Mn103  1  -0.00036980  -0.00054811  0.74953692  1
  Mn  Mn104  1  0.25021034  0.50031206  0.37627954  1
  Mn  Mn105  1  0.00021306  0.49967987  0.00034778  1
  Mn  Mn106  1  -0.00057884  0.16655704  0.75011724  1
  Mn  Mn107  1  0.50009891  0.16713781  0.25026272  1
  Mn  Mn108  1  0.50018822  0.83351012  -0.00021714  1
  Mn  Mn109  1  0.25082076  0.16596519  0.37537535  1
  Mn  Mn110  1  0.00036304  0.16744955  -0.00039319  1
  Mn  Mn111  1  0.00050601  0.66737214  0.00065052  1
  Mn  Mn112  1  0.75076352  0.33302647  0.37472040  1
  Mn  Mn113  1  0.24961064  0.83448899  0.37640260  1
  Mn  Mn114  1  0.25005598  0.49961004  0.87426646  1
  Mn  Mn115  1  0.74949480  0.83474320  0.87605037  1
  Mn  Mn116  1  0.00033062  0.33376354  0.25073428  1
  Mn  Mn117  1  0.75052865  0.49963630  0.87542314  1
  Mn  Mn118  1  0.25011606  0.66726533  0.37514612  1
  Mn  Mn119  1  -0.00015171  0.33258143  0.49898981  1
  Mn  Mn120  1  0.25030554  0.16629107  0.12476567  1
  Mn  Mn121  1  0.00048368  0.49845913  0.75055220  1
  Mn  Mn122  1  0.24955366  0.66560562  0.12560965  1
  Mn  Mn123  1  0.25012752  0.83305469  0.87416972  1
  Mn  Mn124  1  0.50083364  0.00090992  0.50034922  1
  Mn  Mn125  1  0.74921178  0.66585201  0.62519051  1
  Mn  Mn126  1  0.24996135  -0.00022526  0.12480142  1
  Mn  Mn127  1  0.75012388  0.16730223  0.87551092  1
  Mn  Mn128  1  0.49998007  0.83335242  0.50019132  1
  Mn  Mn129  1  0.74933634  0.83346795  0.62447787  1
  Mn  Mn130  1  0.74974930  0.83287464  0.37427520  1
  Mn  Mn131  1  0.75051084  0.16546319  0.37352343  1
  Mn  Mn132  1  0.24949004  0.50030522  0.62552568  1
  Mn  Mn133  1  0.00057361  0.00060331  0.25066741  1
  Mn  Mn134  1  0.00008570  0.83333332  0.74945386  1
  Mn  Mn135  1  0.00069630  0.83276288  0.25096797  1
  Mn  Mn136  1  0.50058682  0.00116129  0.00007029  1
  Mn  Mn137  1  0.25005088  0.16647734  0.87428281  1
  Mn  Mn138  1  -0.00043853  0.66633521  0.74981276  1
  Mn  Mn139  1  0.24992112  0.83318552  0.12439016  1
  Mn  Mn140  1  0.75021182  0.66722144  0.87515798  1
  Mn  Mn141  1  0.50032508  0.83290345  0.75051988  1
  Mn  Mn142  1  0.25004562  0.33335234  0.37543656  1
  Mn  Mn143  1  0.49960898  0.66521565  0.49851176  1
  Fe  Fe144  1  0.49961503  0.16698738  0.50026657  1
  Fe  Fe145  1  0.49952516  0.83347096  0.24941725  1
  Fe  Fe146  1  0.74927990  0.66619732  0.37485979  1
  Fe  Fe147  1  -0.00054012  0.83273842  0.49976833  1
  Fe  Fe148  1  0.50015404  0.49951002  0.24996514  1
  Fe  Fe149  1  0.74966981  0.33324961  0.87513477  1
  Fe  Fe150  1  -0.00038189  0.66578022  0.49977941  1
  Fe  Fe151  1  0.75031311  0.83363102  0.12584350  1
  Fe  Fe152  1  0.74960902  0.49965812  0.37441283  1
  Fe  Fe153  1  0.25007449  0.16675667  0.62549295  1
  Fe  Fe154  1  0.50027376  0.49886762  0.50035908  1
  Fe  Fe155  1  0.50069661  0.16767504  0.74947884  1
  Fe  Fe156  1  0.00049960  0.16689461  0.24970247  1
  Fe  Fe157  1  0.00005267  0.00037266  0.00033207  1
  Fe  Fe158  1  0.24964107  0.33330610  0.62548264  1
  Fe  Fe159  1  0.75017966  0.00055095  0.87583574  1
  Fe  Fe160  1  0.75003168  0.66660141  0.12515922  1
  Fe  Fe161  1  0.25044956  0.49946681  0.12477891  1
  Fe  Fe162  1  0.74954887  0.16715455  0.62461986  1
  Fe  Fe163  1  0.00020254  0.33372959  0.00078529  1
  Fe  Fe164  1  -0.00054550  0.49953380  0.49978771  1
  Fe  Fe165  1  0.25004449  0.33306269  0.87493802  1
  Fe  Fe166  1  0.24962860  0.66664712  0.87445068  1
  Fe  Fe167  1  0.75020272  0.00012587  0.12520022  1
  Fe  Fe168  1  -0.00042880  0.66654315  0.25071564  1
  Fe  Fe169  1  0.74993497  -0.00018858  0.37417899  1
  Fe  Fe170  1  0.74966772  0.33298591  0.12512783  1
  Fe  Fe171  1  0.25031022  -0.00020244  0.37630647  1
  Fe  Fe172  1  0.25003821  0.00007468  0.87396703  1
  Fe  Fe173  1  0.74966367  0.50001895  0.62478193  1
  Fe  Fe174  1  0.24983373  0.83411785  0.62559428  1
  Fe  Fe175  1  -0.00059587  0.83347870  0.00053892  1
  Fe  Fe176  1  0.50006064  0.33306598  0.49987437  1
  Fe  Fe177  1  0.75003441  0.16639167  0.12448923  1
  Fe  Fe178  1  0.50065549  0.00105386  0.75027619  1
  Fe  Fe179  1  -0.00036278  0.50068492  0.25009020  1
  Fe  Fe180  1  0.49966859  0.33334693  0.74965606  1
  Fe  Fe181  1  0.49986708  0.66610110  0.75005068  1
  Fe  Fe182  1  0.00002536  0.16617739  0.50019950  1
  Fe  Fe183  1  0.50046656  0.33398109  0.25073310  1
  Fe  Fe184  1  -0.00030382  -0.00008718  0.49964545  1
  Fe  Fe185  1  0.49967918  0.66677810  0.00032674  1
  Fe  Fe186  1  0.25030810  0.00026648  0.62526557  1
  Fe  Fe187  1  0.49962400  0.00050839  0.25003222  1
  Fe  Fe188  1  -0.00030910  0.33251601  0.74948627  1
  Fe  Fe189  1  0.25027517  0.66727881  0.62509978  1
  Fe  Fe190  1  0.49999082  0.16725072  -0.00046757  1
  Fe  Fe191  1  0.49980350  0.50024944  -0.00027422  1
  P  P192  1  0.04268092  0.25149660  0.10293593  1
  P  P193  1  0.04247880  0.24815297  0.35291384  1
  P  P194  1  0.04187627  0.24872369  0.60252723  1
  P  P195  1  0.04213552  0.25131093  0.85267829  1
  P  P196  1  0.04255657  0.58348738  0.10434291  1
  P  P197  1  0.04087143  0.58328599  0.35275903  1
  P  P198  1  0.04106846  0.58221180  0.60146326  1
  P  P199  1  0.04314252  0.58309177  0.85313677  1
  P  P200  1  0.04144539  0.91668114  0.10182877  1
  P  P201  1  0.04237848  0.91648519  0.35462831  1
  P  P202  1  0.04108963  0.91611519  0.60082446  1
  P  P203  1  0.04231620  0.91656850  0.85384313  1
  P  P204  1  0.54249749  0.24882634  0.10247835  1
  P  P205  1  0.54255751  0.25172708  0.35314878  1
  P  P206  1  0.54128996  0.24999468  0.60200989  1
  P  P207  1  0.54172672  0.25063766  0.85141207  1
  P  P208  1  0.54129223  0.58281407  0.10184617  1
  P  P209  1  0.54217226  0.58113760  0.35231731  1
  P  P210  1  0.54207336  0.58170385  0.60235948  1
  P  P211  1  0.54198898  0.58459549  0.85326673  1
  P  P212  1  0.54231371  0.91682462  0.10397164  1
  P  P213  1  0.54138510  0.91693784  0.35109113  1
  P  P214  1  0.54277969  0.91716702  0.60382486  1
  P  P215  1  0.54238979  0.91834055  0.85241134  1
  P  P216  1  0.45780054  0.08278112  0.14747916  1
  P  P217  1  0.45781773  0.08476930  0.39764219  1
  P  P218  1  0.45907477  0.08436929  0.64832454  1
  P  P219  1  0.45866152  0.08552371  0.89628091  1
  P  P220  1  0.45916761  0.41640517  0.14816676  1
  P  P221  1  0.45859333  0.41653857  0.39811949  1
  P  P222  1  0.45796046  0.41495642  0.64691574  1
  P  P223  1  0.45783898  0.41794812  0.89722427  1
  P  P224  1  0.45782022  0.75060627  0.14701194  1
  P  P225  1  0.45708026  0.75036885  0.39606132  1
  P  P226  1  0.45787009  0.74828963  0.64759392  1
  P  P227  1  0.45796497  0.74872183  0.89726096  1
  P  P228  1  0.95848511  0.08456672  0.14715676  1
  P  P229  1  0.95880617  0.08385116  0.39791834  1
  P  P230  1  0.95731448  0.08300094  0.64582274  1
  P  P231  1  0.95755349  0.08246796  0.89794251  1
  P  P232  1  0.95776227  0.41783177  0.14782864  1
  P  P233  1  0.95766724  0.41813306  0.39688107  1
  P  P234  1  0.95763801  0.41495698  0.64688597  1
  P  P235  1  0.95775820  0.41478788  0.89754903  1
  P  P236  1  0.95790964  0.74944623  0.14801849  1
  P  P237  1  0.95840373  0.74919275  0.39830913  1
  P  P238  1  0.95722864  0.74958354  0.64557847  1
  P  P239  1  0.95720721  0.75129382  0.89805409  1
  P  P240  1  0.20711194  0.08317474  0.22867309  1
  P  P241  1  0.20862284  0.08202348  0.47900532  1
  P  P242  1  0.20852733  0.08314844  0.72667553  1
  P  P243  1  0.20754911  0.08185562  0.97664670  1
  P  P244  1  0.20796264  0.41806904  0.22765930  1
  P  P245  1  0.20702779  0.41614728  0.47932422  1
  P  P246  1  0.20755480  0.41541288  0.72790961  1
  P  P247  1  0.20801769  0.41537033  0.97749130  1
  P  P248  1  0.20684989  0.75053158  0.22837001  1
  P  P249  1  0.20749995  0.75033234  0.47974982  1
  P  P250  1  0.20829812  0.75018456  0.72654924  1
  P  P251  1  0.20757511  0.74835993  0.97694854  1
  P  P252  1  0.70846091  0.08310887  0.22622728  1
  P  P253  1  0.70751633  0.08217001  0.47675135  1
  P  P254  1  0.70784161  0.08551059  0.72749686  1
  P  P255  1  0.70813813  0.08238641  0.97845552  1
  P  P256  1  0.70798651  0.41578457  0.22755529  1
  P  P257  1  0.70805643  0.41761088  0.47717768  1
  P  P258  1  0.70743832  0.41797946  0.72735594  1
  P  P259  1  0.70779690  0.41482068  0.97805522  1
  P  P260  1  0.70867083  0.74951485  0.22684965  1
  P  P261  1  0.70696022  0.74836510  0.47682877  1
  P  P262  1  0.70672105  0.75065457  0.72820407  1
  P  P263  1  0.70754273  0.75037919  0.97965379  1
  P  P264  1  0.29333395  0.24979791  0.02116025  1
  P  P265  1  0.29355897  0.25012969  0.27225978  1
  P  P266  1  0.29136169  0.25000765  0.52404114  1
  P  P267  1  0.29194724  0.25142049  0.77156631  1
  P  P268  1  0.29224769  0.58162564  0.02217627  1
  P  P269  1  0.29289125  0.58293909  0.27184233  1
  P  P270  1  0.29244429  0.58463833  0.52327870  1
  P  P271  1  0.29211344  0.58512115  0.77193583  1
  P  P272  1  0.29291335  0.91651096  0.02073082  1
  P  P273  1  0.29236157  0.91805359  0.27325443  1
  P  P274  1  0.29204877  0.91717418  0.52402464  1
  P  P275  1  0.29211001  0.91814492  0.77130586  1
  P  P276  1  0.79150312  0.24995654  0.02319261  1
  P  P277  1  0.79290026  0.24966657  0.27039734  1
  P  P278  1  0.79229775  0.24848044  0.52206298  1
  P  P279  1  0.79185559  0.25165198  0.77231052  1
  P  P280  1  0.79248295  0.58424047  0.02300780  1
  P  P281  1  0.79086404  0.58363056  0.27308362  1
  P  P282  1  0.79148259  0.58168084  0.52148873  1
  P  P283  1  0.79294878  0.58312471  0.77167314  1
  P  P284  1  0.79134425  0.91720797  0.02391816  1
  P  P285  1  0.79219378  0.91783803  0.27164440  1
  P  P286  1  0.79226643  0.91655056  0.52080369  1
  P  P287  1  0.79222984  0.91888248  0.77298710  1
  O  O288  1  0.03754662  0.25073608  0.18289314  1
  O  O289  1  0.03694199  0.24794598  0.43285108  1
  O  O290  1  0.03638904  0.24956176  0.68245728  1
  O  O291  1  0.03713189  0.25142192  0.93267866  1
  O  O292  1  0.03697389  0.58361128  0.18428200  1
  O  O293  1  0.03561730  0.58284978  0.43270034  1
  O  O294  1  0.03652588  0.58240834  0.68147605  1
  O  O295  1  0.03827072  0.58326169  0.93311565  1
  O  O296  1  0.03666791  0.91688924  0.18186907  1
  O  O297  1  0.03666873  0.91633301  0.43444914  1
  O  O298  1  0.03648795  0.91637248  0.68085096  1
  O  O299  1  0.03716169  0.91665864  0.93378744  1
  O  O300  1  0.53747595  0.24927312  0.18235487  1
  O  O301  1  0.53706152  0.25153168  0.43299999  1
  O  O302  1  0.53612842  0.24987070  0.68190869  1
  O  O303  1  0.53662907  0.25025761  0.93135580  1
  O  O304  1  0.53637498  0.58267783  0.18184070  1
  O  O305  1  0.53714362  0.58082006  0.43226134  1
  O  O306  1  0.53681348  0.58254273  0.68230644  1
  O  O307  1  0.53649919  0.58434702  0.93315013  1
  O  O308  1  0.53679522  0.91674325  0.18386464  1
  O  O309  1  0.53672037  0.91702898  0.43119614  1
  O  O310  1  0.53747403  0.91768456  0.68375169  1
  O  O311  1  0.53742901  0.91831899  0.93239528  1
  O  O312  1  0.46296480  0.08337376  0.06754716  1
  O  O313  1  0.46281808  0.08397171  0.31768592  1
  O  O314  1  0.46382104  0.08441589  0.56831215  1
  O  O315  1  0.46431723  0.08519464  0.81641347  1
  O  O316  1  0.46402412  0.41707958  0.06819944  1
  O  O317  1  0.46364377  0.41642880  0.31819381  1
  O  O318  1  0.46319657  0.41500729  0.56703684  1
  O  O319  1  0.46298776  0.41740489  0.81732141  1
  O  O320  1  0.46322986  0.74994740  0.06706067  1
  O  O321  1  0.46225151  0.75098863  0.31607696  1
  O  O322  1  0.46308561  0.74855692  0.56760524  1
  O  O323  1  0.46332932  0.74844968  0.81730551  1
  O  O324  1  0.96377368  0.08373806  0.06721506  1
  O  O325  1  0.96386021  0.08419176  0.31794301  1
  O  O326  1  0.96267395  0.08320526  0.56589611  1
  O  O327  1  0.96226509  0.08262335  0.81791319  1
  O  O328  1  0.96287151  0.41711875  0.06786460  1
  O  O329  1  0.96318417  0.41848213  0.31698187  1
  O  O330  1  0.96285286  0.41576313  0.56690672  1
  O  O331  1  0.96295857  0.41431743  0.81756159  1
  O  O332  1  0.96300628  0.75034251  0.06805638  1
  O  O333  1  0.96358776  0.74851786  0.31835418  1
  O  O334  1  0.96253290  0.74958414  0.56566087  1
  O  O335  1  0.96210514  0.75099079  0.81803034  1
  O  O336  1  0.21256282  0.08231862  0.05664874  1
  O  O337  1  0.21218282  0.08297764  0.30867177  1
  O  O338  1  0.21402950  0.08247624  0.55890427  1
  O  O339  1  0.21323068  0.08296599  0.80668146  1
  O  O340  1  0.21354136  0.41626014  0.05742778  1
  O  O341  1  0.21272710  0.41771503  0.30770396  1
  O  O342  1  0.21191965  0.41575930  0.55932865  1
  O  O343  1  0.21308271  0.41535519  0.80784184  1
  O  O344  1  0.21261220  0.74877866  0.05693825  1
  O  O345  1  0.21194858  0.75089869  0.30837220  1
  O  O346  1  0.21278085  0.75033529  0.55967953  1
  O  O347  1  0.21341125  0.74957405  0.80655262  1
  O  O348  1  0.71350794  0.08276971  0.05833061  1
  O  O349  1  0.71369541  0.08243895  0.30617052  1
  O  O350  1  0.71258583  0.08311683  0.55670069  1
  O  O351  1  0.71289296  0.08528341  0.80740605  1
  O  O352  1  0.71312744  0.41458241  0.05802384  1
  O  O353  1  0.71332171  0.41654124  0.30748601  1
  O  O354  1  0.71311307  0.41777320  0.55715258  1
  O  O355  1  0.71263914  0.41732566  0.80730230  1
  O  O356  1  0.71305089  0.75009802  0.05957509  1
  O  O357  1  0.71324843  0.74918668  0.30689945  1
  O  O358  1  0.71183531  0.74865238  0.55682265  1
  O  O359  1  0.71197918  0.75094333  0.80817948  1
  O  O360  1  0.28874909  0.25008859  0.19224246  1
  O  O361  1  0.28696353  0.24961286  0.44400128  1
  O  O362  1  0.28624521  0.25123245  0.69168788  1
  O  O363  1  0.28789974  0.25015147  0.94120346  1
  O  O364  1  0.28766893  0.58205535  0.19185616  1
  O  O365  1  0.28757539  0.58426506  0.44326014  1
  O  O366  1  0.28670544  0.58532959  0.69200064  1
  O  O367  1  0.28695649  0.58218600  0.94225147  1
  O  O368  1  0.28738845  0.91758009  0.19325404  1
  O  O369  1  0.28701464  0.91750863  0.44401292  1
  O  O370  1  0.28652827  0.91796165  0.69140363  1
  O  O371  1  0.28790842  0.91674916  0.94073126  1
  O  O372  1  0.78732693  0.24985018  0.19051364  1
  O  O373  1  0.78763720  0.24848830  0.44206925  1
  O  O374  1  0.78673640  0.25111645  0.69236370  1
  O  O375  1  0.78628459  0.25064762  0.94318836  1
  O  O376  1  0.78610676  0.58414504  0.19307036  1
  O  O377  1  0.78590592  0.58193150  0.44159310  1
  O  O378  1  0.78755859  0.58255389  0.69168856  1
  O  O379  1  0.78774977  0.58387639  0.94301546  1
  O  O380  1  0.78689705  0.91768949  0.19172904  1
  O  O381  1  0.78701964  0.91678494  0.44084445  1
  O  O382  1  0.78722895  0.91853627  0.69299087  1
  O  O383  1  0.78647914  0.91739965  0.94394525  1
  O  O384  1  0.22906004  0.25009023  0.05666163  1
  O  O385  1  0.22902927  0.24968767  0.30698712  1
  O  O386  1  0.22708371  0.25017051  0.55938013  1
  O  O387  1  0.22793819  0.25154518  0.80801486  1
  O  O388  1  0.22804164  0.58098860  0.05809110  1
  O  O389  1  0.22851977  0.58329014  0.30712006  1
  O  O390  1  0.22797816  0.58473937  0.55831968  1
  O  O391  1  0.22789492  0.58459794  0.80771773  1
  O  O392  1  0.22845023  0.91649846  0.05582499  1
  O  O393  1  0.22798234  0.91868803  0.30867648  1
  O  O394  1  0.22778779  0.91724361  0.55975912  1
  O  O395  1  0.22803986  0.91803465  0.80753531  1
  O  O396  1  0.72740204  0.24915626  0.05930077  1
  O  O397  1  0.72873094  0.24963302  0.30614102  1
  O  O398  1  0.72787265  0.24895101  0.55725668  1
  O  O399  1  0.72761393  0.25162436  0.80807124  1
  O  O400  1  0.72802635  0.58424791  0.05809469  1
  O  O401  1  0.72664273  0.58351992  0.30877136  1
  O  O402  1  0.72740421  0.58117263  0.55784627  1
  O  O403  1  0.72864234  0.58323741  0.80706504  1
  O  O404  1  0.72729390  0.91744857  0.05991340  1
  O  O405  1  0.72798926  0.91798699  0.30763210  1
  O  O406  1  0.72798957  0.91703873  0.55625767  1
  O  O407  1  0.72782531  0.91920158  0.80839434  1
  O  O408  1  0.27158981  0.08305099  0.19361251  1
  O  O409  1  0.27272454  0.08155667  0.44278330  1
  O  O410  1  0.27280416  0.08278046  0.69118112  1
  O  O411  1  0.27189861  0.08170575  0.94121509  1
  O  O412  1  0.27243985  0.41840234  0.19245941  1
  O  O413  1  0.27157186  0.41642484  0.44451100  1
  O  O414  1  0.27175788  0.41583418  0.69210734  1
  O  O415  1  0.27218083  0.41511889  0.94148913  1
  O  O416  1  0.27125797  0.75003682  0.19328479  1
  O  O417  1  0.27169437  0.75052294  0.44403618  1
  O  O418  1  0.27248972  0.75034275  0.69067828  1
  O  O419  1  0.27191344  0.74815642  0.94149133  1
  O  O420  1  0.77258659  0.08385914  0.19012825  1
  O  O421  1  0.77191950  0.08107620  0.44125986  1
  O  O422  1  0.77208232  0.08580982  0.69168368  1
  O  O423  1  0.77227768  0.08242811  0.94233531  1
  O  O424  1  0.77218160  0.41557362  0.19182017  1
  O  O425  1  0.77231477  0.41782546  0.44153963  1
  O  O426  1  0.77167784  0.41834370  0.69147535  1
  O  O427  1  0.77203130  0.41458652  0.94226579  1
  O  O428  1  0.77286029  0.74905576  0.19118509  1
  O  O429  1  0.77136245  0.74824919  0.44155579  1
  O  O430  1  0.77107381  0.75022927  0.69297036  1
  O  O431  1  0.77168863  0.75078499  0.94375002  1
  O  O432  1  0.02266330  0.08488995  0.18311643  1
  O  O433  1  0.02284554  0.08391589  0.43416554  1
  O  O434  1  0.02153136  0.08312126  0.68159302  1
  O  O435  1  0.02201219  0.08247196  0.93302146  1
  O  O436  1  0.02200163  0.41835700  0.18357197  1
  O  O437  1  0.02180186  0.41787911  0.43290401  1
  O  O438  1  0.02189665  0.41401860  0.68277500  1
  O  O439  1  0.02207400  0.41484696  0.93325874  1
  O  O440  1  0.02216652  0.74829515  0.18371826  1
  O  O441  1  0.02237695  0.74998885  0.43458902  1
  O  O442  1  0.02152723  0.74949871  0.68129168  1
  O  O443  1  0.02168240  0.75200672  0.93327394  1
  O  O444  1  0.52202545  0.08236057  0.18332779  1
  O  O445  1  0.52219269  0.08548892  0.43314441  1
  O  O446  1  0.52326288  0.08481081  0.68413887  1
  O  O447  1  0.52268223  0.08584461  0.93277158  1
  O  O448  1  0.52329206  0.41577263  0.18422279  1
  O  O449  1  0.52270243  0.41642919  0.43445043  1
  O  O450  1  0.52209744  0.41498628  0.68297637  1
  O  O451  1  0.52207047  0.41847884  0.93313197  1
  O  O452  1  0.52197025  0.75088613  0.18302431  1
  O  O453  1  0.52145848  0.74976566  0.43132287  1
  O  O454  1  0.52211295  0.74822820  0.68330852  1
  O  O455  1  0.52212268  0.74877177  0.93323335  1
  O  O456  1  0.47826116  0.24905122  0.06660360  1
  O  O457  1  0.47843719  0.25205756  0.31692186  1
  O  O458  1  0.47723158  0.25016221  0.56559267  1
  O  O459  1  0.47761412  0.25025332  0.81516928  1
  O  O460  1  0.47719077  0.58245133  0.06570993  1
  O  O461  1  0.47788724  0.58172842  0.31673969  1
  O  O462  1  0.47785456  0.58115014  0.56644387  1
  O  O463  1  0.47790990  0.58463263  0.81688110  1
  O  O464  1  0.47825665  0.91716568  0.06787858  1
  O  O465  1  0.47709275  0.91685502  0.31555928  1
  O  O466  1  0.47846950  0.91732987  0.56836112  1
  O  O467  1  0.47812731  0.91783980  0.81697269  1
  O  O468  1  0.97837370  0.25171930  0.06722046  1
  O  O469  1  0.97833997  0.24845137  0.31684427  1
  O  O470  1  0.97773095  0.24825889  0.56647434  1
  O  O471  1  0.97775580  0.25139436  0.81710955  1
  O  O472  1  0.97838465  0.58359383  0.06848529  1
  O  O473  1  0.97685608  0.58340383  0.31620369  1
  O  O474  1  0.97685483  0.58188102  0.56575944  1
  O  O475  1  0.97862833  0.58266809  0.81828035  1
  O  O476  1  0.97719041  0.91659698  0.06609512  1
  O  O477  1  0.97834111  0.91661695  0.31848083  1
  O  O478  1  0.97690013  0.91584441  0.56512508  1
  O  O479  1  0.97796736  0.91633995  0.81838581  1
  O  O480  1  0.07313243  0.31531267  0.07481247  1
  O  O481  1  0.07352258  0.31214216  0.32582167  1
  O  O482  1  0.07300249  0.31203465  0.57415074  1
  O  O483  1  0.07315143  0.31429343  0.82361160  1
  O  O484  1  0.07396692  0.64670799  0.07599182  1
  O  O485  1  0.07179963  0.64706418  0.32487915  1
  O  O486  1  0.07132445  0.64613422  0.57303134  1
  O  O487  1  0.07373683  0.64662745  0.82461498  1
  O  O488  1  0.07201116  0.98046816  0.07362206  1
  O  O489  1  0.07368053  0.97979509  0.32634516  1
  O  O490  1  0.07137594  0.98011148  0.57267804  1
  O  O491  1  0.07326720  0.97990792  0.82497969  1
  O  O492  1  0.57391718  0.31208282  0.07433114  1
  O  O493  1  0.57354916  0.31497370  0.32425701  1
  O  O494  1  0.57254996  0.31337261  0.57375095  1
  O  O495  1  0.57175800  0.31488818  0.82346336  1
  O  O496  1  0.57149661  0.64695068  0.07383532  1
  O  O497  1  0.57338849  0.64477957  0.32471187  1
  O  O498  1  0.57316373  0.64502246  0.57390656  1
  O  O499  1  0.57286570  0.64795523  0.82450173  1
  O  O500  1  0.57380106  0.98005163  0.07573124  1
  O  O501  1  0.57188664  0.98085941  0.32309775  1
  O  O502  1  0.57424742  0.98020636  0.57523806  1
  O  O503  1  0.57259687  0.98217550  0.82390674  1
  O  O504  1  0.42706802  0.01917818  0.17589263  1
  O  O505  1  0.42704119  0.02128062  0.42615256  1
  O  O506  1  0.42917433  0.02019665  0.67681433  1
  O  O507  1  0.42746623  0.02199291  0.92425846  1
  O  O508  1  0.42814042  0.35280515  0.17613756  1
  O  O509  1  0.42758972  0.35309859  0.42671917  1
  O  O510  1  0.42717970  0.35160111  0.67590990  1
  O  O511  1  0.42699017  0.35436501  0.92535320  1
  O  O512  1  0.42653960  0.68717823  0.17493503  1
  O  O513  1  0.42596569  0.68666856  0.42361930  1
  O  O514  1  0.42721648  0.68469966  0.67580952  1
  O  O515  1  0.42707437  0.68553456  0.92628632  1
  O  O516  1  0.92728884  0.02124668  0.17551785  1
  O  O517  1  0.92847345  0.01968178  0.42580831  1
  O  O518  1  0.92620118  0.01949882  0.67389919  1
  O  O519  1  0.92705020  0.01904999  0.92684385  1
  O  O520  1  0.92676914  0.35437252  0.17607055  1
  O  O521  1  0.92664218  0.35413107  0.42392855  1
  O  O522  1  0.92655859  0.35145073  0.67483737  1
  O  O523  1  0.92683972  0.35176637  0.92686434  1
  O  O524  1  0.92669064  0.68610462  0.17623599  1
  O  O525  1  0.92803414  0.68541260  0.42694343  1
  O  O526  1  0.92608991  0.68621917  0.67403328  1
  O  O527  1  0.92671575  0.68739169  0.92592077  1
  O  O528  1  0.17575364  0.02004286  0.20009937  1
  O  O529  1  0.17766564  0.01857578  0.45045854  1
  O  O530  1  0.17694152  0.02012917  0.69813065  1
  O  O531  1  0.17687715  0.01835401  0.94819531  1
  O  O532  1  0.17725037  0.35424468  0.19975814  1
  O  O533  1  0.17605398  0.35289666  0.45051695  1
  O  O534  1  0.17684011  0.35204240  0.69913829  1
  O  O535  1  0.17741774  0.35155182  0.94944143  1
  O  O536  1  0.17567619  0.68704226  0.20055901  1
  O  O537  1  0.17641508  0.68695661  0.45117022  1
  O  O538  1  0.17720739  0.68685220  0.69793628  1
  O  O539  1  0.17684892  0.68472360  0.94874009  1
  O  O540  1  0.67785565  0.01944431  0.19781082  1
  O  O541  1  0.67644357  0.01874220  0.44841141  1
  O  O542  1  0.67674297  0.02203573  0.69941254  1
  O  O543  1  0.67746599  0.01882086  0.94975304  1
  O  O544  1  0.67733897  0.35206475  0.19933413  1
  O  O545  1  0.67742166  0.35353438  0.44966470  1
  O  O546  1  0.67640857  0.35452962  0.69891862  1
  O  O547  1  0.67666642  0.35171629  0.94910935  1
  O  O548  1  0.67710470  0.68643464  0.19833665  1
  O  O549  1  0.67632203  0.68478298  0.44838167  1
  O  O550  1  0.67553585  0.68717442  0.70028194  1
  O  O551  1  0.67652199  0.68700681  0.95098193  1
  O  O552  1  0.32491991  0.31285695  0.04957733  1
  O  O553  1  0.32401582  0.31389035  0.30056985  1
  O  O554  1  0.32220092  0.31368552  0.55204882  1
  O  O555  1  0.32298641  0.31473158  0.80024939  1
  O  O556  1  0.32310735  0.64521528  0.05042488  1
  O  O557  1  0.32377563  0.64680696  0.29939660  1
  O  O558  1  0.32318094  0.64819569  0.55155966  1
  O  O559  1  0.32264402  0.64850444  0.80101006  1
  O  O560  1  0.32416897  0.97968581  0.04929975  1
  O  O561  1  0.32319307  0.98149001  0.30178812  1
  O  O562  1  0.32330868  0.98046470  0.55243377  1
  O  O563  1  0.32283298  0.98168750  0.79996090  1
  O  O564  1  0.82198939  0.31358849  0.05194421  1
  O  O565  1  0.82420472  0.31285954  0.29912337  1
  O  O566  1  0.82357979  0.31204270  0.54969138  1
  O  O567  1  0.82224026  0.31538583  0.80089474  1
  O  O568  1  0.82307593  0.64774690  0.05165752  1
  O  O569  1  0.82187886  0.64694639  0.30191930  1
  O  O570  1  0.82229287  0.64547446  0.54954159  1
  O  O571  1  0.82392071  0.64684835  0.79948138  1
  O  O572  1  0.82276560  0.98047940  0.05213159  1
  O  O573  1  0.82310359  0.98123970  0.30037304  1
  O  O574  1  0.82397152  0.97949443  0.54917810  1
  O  O575  1  0.82280296  0.98249158  0.80160794  1
  O  O576  1  0.42663379  0.14624820  0.17563393  1
  O  O577  1  0.42699059  0.14838520  0.42602641  1
  O  O578  1  0.42744107  0.14754662  0.67642707  1
  O  O579  1  0.42767609  0.14902381  0.92484280  1
  O  O580  1  0.42869751  0.48015432  0.17698180  1
  O  O581  1  0.42773675  0.48018369  0.42665281  1
  O  O582  1  0.42663695  0.47844854  0.67500661  1
  O  O583  1  0.42693325  0.48145024  0.92565536  1
  O  O584  1  0.42699644  0.81431696  0.17515862  1
  O  O585  1  0.42608923  0.81359570  0.42508634  1
  O  O586  1  0.42680092  0.81198008  0.67536349  1
  O  O587  1  0.42690624  0.81271737  0.92441541  1
  O  O588  1  0.92788325  0.14843265  0.17516124  1
  O  O589  1  0.92738967  0.14705879  0.42633449  1
  O  O590  1  0.92600461  0.14621173  0.67462867  1
  O  O591  1  0.92648163  0.14622064  0.92556203  1
  O  O592  1  0.92676417  0.48142949  0.17601008  1
  O  O593  1  0.92660663  0.48124274  0.42584410  1
  O  O594  1  0.92699741  0.47860606  0.67543111  1
  O  O595  1  0.92686993  0.47884552  0.92487533  1
  O  O596  1  0.92728900  0.81317174  0.17641916  1
  O  O597  1  0.92691473  0.81279292  0.42575402  1
  O  O598  1  0.92609202  0.81304203  0.67402792  1
  O  O599  1  0.92611051  0.81455899  0.92678869  1
  O  O600  1  0.07398511  0.18821004  0.07445678  1
  O  O601  1  0.07342037  0.18494164  0.32404954  1
  O  O602  1  0.07288038  0.18502667  0.57470183  1
  O  O603  1  0.07286948  0.18722593  0.82506608  1
  O  O604  1  0.07371358  0.52004962  0.07595272  1
  O  O605  1  0.07197047  0.51984812  0.32408853  1
  O  O606  1  0.07216942  0.51862732  0.57350338  1
  O  O607  1  0.07427653  0.51958423  0.82510854  1
  O  O608  1  0.07221616  0.85285001  0.07394799  1
  O  O609  1  0.07365837  0.85307300  0.32624872  1
  O  O610  1  0.07225889  0.85254683  0.57306717  1
  O  O611  1  0.07368891  0.85333950  0.82511417  1
  O  O612  1  0.57272378  0.18498507  0.07378518  1
  O  O613  1  0.57366493  0.18808237  0.32508031  1
  O  O614  1  0.57194596  0.18627794  0.57330420  1
  O  O615  1  0.57332565  0.18759232  0.82288688  1
  O  O616  1  0.57267277  0.51948638  0.07358082  1
  O  O617  1  0.57272844  0.51774283  0.32313201  1
  O  O618  1  0.57278331  0.51786338  0.57442420  1
  O  O619  1  0.57327473  0.52102043  0.82518276  1
  O  O620  1  0.57343347  0.85336768  0.07554345  1
  O  O621  1  0.57223356  0.85324656  0.32293113  1
  O  O622  1  0.57352483  0.85333541  0.57577184  1
  O  O623  1  0.57394735  0.85482390  0.82505265  1
  O  O624  1  0.32399097  0.18592782  0.04907120  1
  O  O625  1  0.32487459  0.18693978  0.30069258  1
  O  O626  1  0.32181307  0.18613043  0.55250577  1
  O  O627  1  0.32315582  0.18771319  0.79926502  1
  O  O628  1  0.32322734  0.51808360  0.05046442  1
  O  O629  1  0.32418468  0.51992894  0.30083576  1
  O  O630  1  0.32338177  0.52095794  0.55123502  1
  O  O631  1  0.32348642  0.52137952  0.79922852  1
  O  O632  1  0.32361843  0.85274391  0.04898614  1
  O  O633  1  0.32310536  0.85432946  0.30130637  1
  O  O634  1  0.32257731  0.85323205  0.55209149  1
  O  O635  1  0.32359280  0.85464338  0.79905788  1
  O  O636  1  0.82269762  0.18617791  0.05059353  1
  O  O637  1  0.82414442  0.18622632  0.29863510  1
  O  O638  1  0.82244700  0.18476292  0.55089503  1
  O  O639  1  0.82335457  0.18839061  0.80055374  1
  O  O640  1  0.82348854  0.52054486  0.05086737  1
  O  O641  1  0.82139478  0.51957751  0.30094051  1
  O  O642  1  0.82272895  0.51847069  0.55018865  1
  O  O643  1  0.82427769  0.51996759  0.80031405  1
  O  O644  1  0.82164594  0.85319989  0.05237441  1
  O  O645  1  0.82329210  0.85415988  0.29959814  1
  O  O646  1  0.82273696  0.85259531  0.54885464  1
  O  O647  1  0.82314867  0.85521862  0.80099104  1
  O  O648  1  0.17648087  0.14685898  0.20016133  1
  O  O649  1  0.17754110  0.14558728  0.45082869  1
  O  O650  1  0.17851406  0.14743968  0.69848319  1
  O  O651  1  0.17654586  0.14556442  0.94880474  1
  O  O652  1  0.17716847  0.48147801  0.19908980  1
  O  O653  1  0.17612893  0.47982738  0.45125912  1
  O  O654  1  0.17622303  0.47916964  0.70055992  1
  O  O655  1  0.17652827  0.47861017  0.94927281  1
  O  O656  1  0.17609766  0.81408065  0.19989419  1
  O  O657  1  0.17625092  0.81373471  0.45145932  1
  O  O658  1  0.17769223  0.81432084  0.69899469  1
  O  O659  1  0.17664041  0.81195606  0.94882164  1
  O  O660  1  0.67728760  0.14677325  0.19851517  1
  O  O661  1  0.67691128  0.14582923  0.44823515  1
  O  O662  1  0.67723245  0.14913704  0.69868613  1
  O  O663  1  0.67680547  0.14576663  0.95014483  1
  O  O664  1  0.67665693  0.47912023  0.19926508  1
  O  O665  1  0.67686723  0.48065734  0.44817226  1
  O  O666  1  0.67661411  0.48157463  0.69909582  1
  O  O667  1  0.67709121  0.47889329  0.95062326  1
  O  O668  1  0.67878802  0.81394004  0.19884020  1
  O  O669  1  0.67590672  0.81194299  0.44879431  1
  O  O670  1  0.67591814  0.81422908  0.69993308  1
  O  O671  1  0.67607769  0.81378882  0.95160750  1
