# generated using pymatgen
data_Na2MnFe(PO4)2
_symmetry_space_group_name_H-M   'P 1'
_cell_length_a   22.34261594
_cell_length_b   20.09445562
_cell_length_c   19.45177464
_cell_angle_alpha   90.05506371
_cell_angle_beta   89.98430936
_cell_angle_gamma   89.95959907
_symmetry_Int_Tables_number   1
_chemical_formula_structural   Na2MnFe(PO4)2
_chemical_formula_sum   'Na96 Mn48 Fe48 P96 O384'
_cell_volume   8733.11481418
_cell_formula_units_Z   48
loop_
 _symmetry_equiv_pos_site_id
 _symmetry_equiv_pos_as_xyz
  1  'x, y, z'
loop_
 _atom_site_type_symbol
 _atom_site_label
 _atom_site_symmetry_multiplicity
 _atom_site_fract_x
 _atom_site_fract_y
 _atom_site_fract_z
 _atom_site_occupancy
  Na  Na0  1  0.14113661  0.25003074  0.24416981  1
  Na  Na1  1  0.14128997  0.25024827  0.49339345  1
  Na  Na2  1  0.14061725  0.25122078  0.74396288  1
  Na  Na3  1  0.14056831  0.25111180  0.99367168  1
  Na  Na4  1  0.14107106  0.58254611  0.24372759  1
  Na  Na5  1  0.14082476  0.58303288  0.49291788  1
  Na  Na6  1  0.14083857  0.58261565  0.74457608  1
  Na  Na7  1  0.14140632  0.58407610  0.99334582  1
  Na  Na8  1  0.14041960  0.91552132  0.24355575  1
  Na  Na9  1  0.14050106  0.91716098  0.49213999  1
  Na  Na10  1  0.14105581  0.91616938  0.74361352  1
  Na  Na11  1  0.14089376  0.91648918  0.99445042  1
  Na  Na12  1  0.63998238  0.25013883  0.24340434  1
  Na  Na13  1  0.64046243  0.24996417  0.49345645  1
  Na  Na14  1  0.64005017  0.25005558  0.74432650  1
  Na  Na15  1  0.63962588  0.24961252  0.99309414  1
  Na  Na16  1  0.63964719  0.58225520  0.24389561  1
  Na  Na17  1  0.63933510  0.58362498  0.49297814  1
  Na  Na18  1  0.63995767  0.58392897  0.74454687  1
  Na  Na19  1  0.63995528  0.58257501  0.99390956  1
  Na  Na20  1  0.63978598  0.91601203  0.24453029  1
  Na  Na21  1  0.63956901  0.91596273  0.49314070  1
  Na  Na22  1  0.63997380  0.91610000  0.74345354  1
  Na  Na23  1  0.64026004  0.91539124  0.99254191  1
  Na  Na24  1  0.35955471  0.08451940  0.00661373  1
  Na  Na25  1  0.35925346  0.08242582  0.25668036  1
  Na  Na26  1  0.35990315  0.08285610  0.50627324  1
  Na  Na27  1  0.35965734  0.08369748  0.75651669  1
  Na  Na28  1  0.35986336  0.41783333  0.00853654  1
  Na  Na29  1  0.35969468  0.41652991  0.25758633  1
  Na  Na30  1  0.36000607  0.41710261  0.50620957  1
  Na  Na31  1  0.35975629  0.41735760  0.75828820  1
  Na  Na32  1  0.35970596  0.75002690  0.00743884  1
  Na  Na33  1  0.36000166  0.74831488  0.25777703  1
  Na  Na34  1  0.35988291  0.74940797  0.50584621  1
  Na  Na35  1  0.35906748  0.74888492  0.75651410  1
  Na  Na36  1  0.85934451  0.08373634  0.00593239  1
  Na  Na37  1  0.85966733  0.08322879  0.25607947  1
  Na  Na38  1  0.86003351  0.08300212  0.50602879  1
  Na  Na39  1  0.85941990  0.08298689  0.75579047  1
  Na  Na40  1  0.85950035  0.41624297  0.00454795  1
  Na  Na41  1  0.85946206  0.41699739  0.25601054  1
  Na  Na42  1  0.85959734  0.41913217  0.50634006  1
  Na  Na43  1  0.85981071  0.41752922  0.75591270  1
  Na  Na44  1  0.86000681  0.74972635  0.00490096  1
  Na  Na45  1  0.85974958  0.75045872  0.25653808  1
  Na  Na46  1  0.85909197  0.75062307  0.50512760  1
  Na  Na47  1  0.85889530  0.75070119  0.75584024  1
  Na  Na48  1  0.10994797  0.08255975  0.11933537  1
  Na  Na49  1  0.11003152  0.08309828  0.36887768  1
  Na  Na50  1  0.11005891  0.08420367  0.61826124  1
  Na  Na51  1  0.10968871  0.08492393  0.86903690  1
  Na  Na52  1  0.11081974  0.41697878  0.11785735  1
  Na  Na53  1  0.11056212  0.41706171  0.36852760  1
  Na  Na54  1  0.10991954  0.41605630  0.61945368  1
  Na  Na55  1  0.11047844  0.41686132  0.86877781  1
  Na  Na56  1  0.11024030  0.75037132  0.11892143  1
  Na  Na57  1  0.11009298  0.75067885  0.36794593  1
  Na  Na58  1  0.11003694  0.74935461  0.61802677  1
  Na  Na59  1  0.11083711  0.74886139  0.86805961  1
  Na  Na60  1  0.60887361  0.08290139  0.11832250  1
  Na  Na61  1  0.60948146  0.08182952  0.36855626  1
  Na  Na62  1  0.60954721  0.08134019  0.61877310  1
  Na  Na63  1  0.60909844  0.08413955  0.86832108  1
  Na  Na64  1  0.60927018  0.41527969  0.11904797  1
  Na  Na65  1  0.60918346  0.41794128  0.36800582  1
  Na  Na66  1  0.60884071  0.41682948  0.61925429  1
  Na  Na67  1  0.60919684  0.41633264  0.86973455  1
  Na  Na68  1  0.60948175  0.74869118  0.11924364  1
  Na  Na69  1  0.60894936  0.74834104  0.36868246  1
  Na  Na70  1  0.60907323  0.74913360  0.61775961  1
  Na  Na71  1  0.60973317  0.75102460  0.86830616  1
  Na  Na72  1  0.39012358  0.25111360  0.13208845  1
  Na  Na73  1  0.38995556  0.25033070  0.38228563  1
  Na  Na74  1  0.39043059  0.24892569  0.63153562  1
  Na  Na75  1  0.39063541  0.25192522  0.88247938  1
  Na  Na76  1  0.39049802  0.58276633  0.13340712  1
  Na  Na77  1  0.38997211  0.58369336  0.38212740  1
  Na  Na78  1  0.38966304  0.58297001  0.63147085  1
  Na  Na79  1  0.38985865  0.58351910  0.88398560  1
  Na  Na80  1  0.39038178  0.91539532  0.13152322  1
  Na  Na81  1  0.39055826  0.91448562  0.38160394  1
  Na  Na82  1  0.39018291  0.91596655  0.63041904  1
  Na  Na83  1  0.39014582  0.91753980  0.88170097  1
  Na  Na84  1  0.89017157  0.24925741  0.13030530  1
  Na  Na85  1  0.89082011  0.25033753  0.38117221  1
  Na  Na86  1  0.89094263  0.25072355  0.63057766  1
  Na  Na87  1  0.89035356  0.25117196  0.88069194  1
  Na  Na88  1  0.89057147  0.58489355  0.13060507  1
  Na  Na89  1  0.88961811  0.58395587  0.38135175  1
  Na  Na90  1  0.89021747  0.58300571  0.63038628  1
  Na  Na91  1  0.89045128  0.58351634  0.88002505  1
  Na  Na92  1  0.89046338  0.91687428  0.13032274  1
  Na  Na93  1  0.89055348  0.91839039  0.38089439  1
  Na  Na94  1  0.89013016  0.91783641  0.63057362  1
  Na  Na95  1  0.88996298  0.91688428  0.88150674  1
  Mn  Mn96  1  0.75020178  0.16600649  0.37448455  1
  Mn  Mn97  1  0.75013544  0.16590507  0.62430658  1
  Mn  Mn98  1  0.00043198  0.33351902  0.24980607  1
  Mn  Mn99  1  0.74882570  0.16700439  0.12484528  1
  Mn  Mn100  1  -0.00021263  0.33299985  -0.00068650  1
  Mn  Mn101  1  0.49946347  0.66659074  0.75054949  1
  Mn  Mn102  1  0.25052830  0.00057048  0.62450122  1
  Mn  Mn103  1  0.00016802  0.50084221  0.24888187  1
  Mn  Mn104  1  0.00101806  0.83293516  0.00006164  1
  Mn  Mn105  1  0.49986448  -0.00000934  0.00032888  1
  Mn  Mn106  1  0.74932292  0.83336008  0.62478351  1
  Mn  Mn107  1  -0.00025104  0.66628116  0.49923148  1
  Mn  Mn108  1  0.49915026  0.16686241  0.25008197  1
  Mn  Mn109  1  0.25002759  0.16817665  0.87620305  1
  Mn  Mn110  1  0.25031800  0.83254525  0.12499021  1
  Mn  Mn111  1  0.74880784  0.50189436  0.62564943  1
  Mn  Mn112  1  0.50031440  0.33381149  0.50053278  1
  Mn  Mn113  1  0.00042531  0.83349289  0.74963951  1
  Mn  Mn114  1  0.00018147  0.33405651  0.49998299  1
  Mn  Mn115  1  0.74994124  0.83308354  0.12469283  1
  Mn  Mn116  1  0.74974665  0.33408162  0.62428150  1
  Mn  Mn117  1  0.50061259  0.16545299  0.50061449  1
  Mn  Mn118  1  0.50002825  0.66665869  0.00121901  1
  Mn  Mn119  1  0.00001230  0.83467208  0.49894958  1
  Mn  Mn120  1  0.74977746  -0.00027617  0.12431947  1
  Mn  Mn121  1  0.49946400  -0.00171877  0.24896213  1
  Mn  Mn122  1  0.24982336  0.83215450  0.62446804  1
  Mn  Mn123  1  0.24989083  0.50076674  0.62576541  1
  Mn  Mn124  1  0.25074306  0.33328835  0.62517035  1
  Mn  Mn125  1  -0.00044277  0.16789768  0.74900169  1
  Mn  Mn126  1  0.75022064  0.16653790  0.87464035  1
  Mn  Mn127  1  0.49985168  0.49935444  0.75108230  1
  Mn  Mn128  1  0.74988318  0.66634304  0.12483696  1
  Mn  Mn129  1  0.24951446  0.00005342  0.87485486  1
  Mn  Mn130  1  0.00074783  0.66785965  0.25045764  1
  Mn  Mn131  1  0.24986440  0.16725439  0.12541400  1
  Mn  Mn132  1  0.25029394  -0.00044625  0.37514541  1
  Mn  Mn133  1  0.75030860  0.33416513  0.37453055  1
  Mn  Mn134  1  0.74988098  0.50009160  0.87475909  1
  Mn  Mn135  1  0.75060409  0.49901152  0.12383131  1
  Mn  Mn136  1  -0.00024660  0.50075136  -0.00089251  1
  Mn  Mn137  1  -0.00016588  0.66580466  0.74848531  1
  Mn  Mn138  1  0.00012934  0.00089442  0.75006242  1
  Mn  Mn139  1  0.74968899  0.83364697  0.37548389  1
  Mn  Mn140  1  0.49902392  0.83422758  0.74906753  1
  Mn  Mn141  1  0.00067271  0.16591005  0.25073111  1
  Mn  Mn142  1  0.49981733  0.16662030  0.74999499  1
  Mn  Mn143  1  0.00062912  0.00075606  0.00031390  1
  Fe  Fe144  1  0.24995334  0.66600771  0.37516676  1
  Fe  Fe145  1  0.49946386  0.66586536  0.49963770  1
  Fe  Fe146  1  0.74965382  -0.00056471  0.62528960  1
  Fe  Fe147  1  0.49972624  0.49976252  0.25045598  1
  Fe  Fe148  1  0.74949038  -0.00008756  0.37481010  1
  Fe  Fe149  1  0.74952205  0.50047457  0.37491538  1
  Fe  Fe150  1  0.49981950  0.83232526  0.50014395  1
  Fe  Fe151  1  0.50011120  0.83206864  0.25089971  1
  Fe  Fe152  1  0.25028600  0.83218453  0.37444808  1
  Fe  Fe153  1  0.00077453  0.16682420  0.49993443  1
  Fe  Fe154  1  -0.00041375  0.83417534  0.24935774  1
  Fe  Fe155  1  0.49979161  -0.00014696  0.74984816  1
  Fe  Fe156  1  0.50021236  0.83322417  0.00014222  1
  Fe  Fe157  1  0.25032813  0.50001481  0.12571651  1
  Fe  Fe158  1  0.74951413  0.66729157  0.62463519  1
  Fe  Fe159  1  0.49956796  -0.00134827  0.49920037  1
  Fe  Fe160  1  0.49941447  0.33346547  0.75104287  1
  Fe  Fe161  1  0.74969423  -0.00048037  0.87483050  1
  Fe  Fe162  1  0.00040801  0.33367480  0.74965576  1
  Fe  Fe163  1  0.25059504  0.33441682  0.87534246  1
  Fe  Fe164  1  0.25022330  0.49980957  0.37481046  1
  Fe  Fe165  1  0.25037604  0.16647704  0.37473361  1
  Fe  Fe166  1  0.24975873  0.66649455  0.62522213  1
  Fe  Fe167  1  0.75017808  0.33305595  0.12491464  1
  Fe  Fe168  1  0.49965720  0.33364565  0.00114623  1
  Fe  Fe169  1  0.00014755  0.16687376  0.00008881  1
  Fe  Fe170  1  0.25045901  -0.00042417  0.12546676  1
  Fe  Fe171  1  0.25058271  0.66658801  0.87585644  1
  Fe  Fe172  1  0.00047361  0.49976205  0.74990067  1
  Fe  Fe173  1  0.74922702  0.66652652  0.37499975  1
  Fe  Fe174  1  0.00062541  0.00033967  0.49965722  1
  Fe  Fe175  1  0.25018278  0.66600337  0.12597620  1
  Fe  Fe176  1  0.50013142  0.49951991  0.00186139  1
  Fe  Fe177  1  0.49964247  0.66627007  0.25078468  1
  Fe  Fe178  1  0.49943682  0.16730177  -0.00028200  1
  Fe  Fe179  1  0.00043388  0.49967487  0.49994235  1
  Fe  Fe180  1  0.25053789  0.83302072  0.87524038  1
  Fe  Fe181  1  0.25051819  0.16735362  0.62528134  1
  Fe  Fe182  1  0.50004447  0.33337416  0.25032003  1
  Fe  Fe183  1  0.00036432  0.66692670  -0.00051844  1
  Fe  Fe184  1  0.74952763  0.33320746  0.87440275  1
  Fe  Fe185  1  0.25045753  0.33331060  0.37512035  1
  Fe  Fe186  1  -0.00018441  0.00045587  0.24985196  1
  Fe  Fe187  1  0.75000415  0.66681752  0.87439789  1
  Fe  Fe188  1  0.25046849  0.33416492  0.12568589  1
  Fe  Fe189  1  0.25068186  0.50072594  0.87668518  1
  Fe  Fe190  1  0.49923610  0.50007419  0.49965681  1
  Fe  Fe191  1  0.74987279  0.83296411  0.87405242  1
  P  P192  1  0.04266131  0.24870742  0.10244783  1
  P  P193  1  0.04311151  0.24998049  0.35375153  1
  P  P194  1  0.04270996  0.24969619  0.60227155  1
  P  P195  1  0.04240555  0.25131746  0.85236553  1
  P  P196  1  0.04276761  0.58514203  0.10182685  1
  P  P197  1  0.04299383  0.58309940  0.35337399  1
  P  P198  1  0.04248460  0.58151524  0.60228899  1
  P  P199  1  0.04239827  0.58257837  0.85225012  1
  P  P200  1  0.04309492  0.91682177  0.10399724  1
  P  P201  1  0.04159363  0.91764157  0.35131266  1
  P  P202  1  0.04289721  0.91817303  0.60192855  1
  P  P203  1  0.04329418  0.91703565  0.85307642  1
  P  P204  1  0.54090102  0.24994332  0.10209669  1
  P  P205  1  0.54209454  0.25111881  0.35246805  1
  P  P206  1  0.54293004  0.24979190  0.60376436  1
  P  P207  1  0.54161302  0.25144903  0.85350936  1
  P  P208  1  0.54198442  0.58169058  0.10414428  1
  P  P209  1  0.54054024  0.58294013  0.35236569  1
  P  P210  1  0.54067484  0.58255766  0.60154062  1
  P  P211  1  0.54228868  0.58314679  0.85434174  1
  P  P212  1  0.54232339  0.91445577  0.10275445  1
  P  P213  1  0.54158075  0.91454729  0.35325498  1
  P  P214  1  0.54104258  0.91624336  0.60139470  1
  P  P215  1  0.54179355  0.91797323  0.85244539  1
  P  P216  1  0.45684213  0.08340478  0.14640205  1
  P  P217  1  0.45771790  0.08163270  0.39746068  1
  P  P218  1  0.45773169  0.08119324  0.64711389  1
  P  P219  1  0.45749089  0.08480206  0.89750798  1
  P  P220  1  0.45854407  0.41646301  0.14879421  1
  P  P221  1  0.45784375  0.41795808  0.39698218  1
  P  P222  1  0.45725243  0.41547179  0.64820781  1
  P  P223  1  0.45844377  0.41697943  0.89977552  1
  P  P224  1  0.45866271  0.74957370  0.14900356  1
  P  P225  1  0.45883005  0.74932179  0.39799910  1
  P  P226  1  0.45706754  0.74940699  0.64601757  1
  P  P227  1  0.45770472  0.75134486  0.89824667  1
  P  P228  1  0.95774609  0.08266418  0.14733723  1
  P  P229  1  0.95892458  0.08331373  0.39826325  1
  P  P230  1  0.95741024  0.08372140  0.64561201  1
  P  P231  1  0.95759189  0.08519942  0.89756216  1
  P  P232  1  0.95727962  0.41676366  0.14619073  1
  P  P233  1  0.95769002  0.41818188  0.39724346  1
  P  P234  1  0.95878003  0.41704479  0.64799834  1
  P  P235  1  0.95754362  0.41680937  0.89539619  1
  P  P236  1  0.95797670  0.75123555  0.14709409  1
  P  P237  1  0.95722486  0.75109397  0.39600013  1
  P  P238  1  0.95701317  0.75034560  0.64609119  1
  P  P239  1  0.95840341  0.74885662  0.89701325  1
  P  P240  1  0.20840324  0.08208792  0.22796652  1
  P  P241  1  0.20842185  0.08511252  0.47763636  1
  P  P242  1  0.20802059  0.08507280  0.72730582  1
  P  P243  1  0.20732165  0.08360451  0.97892444  1
  P  P244  1  0.20892666  0.41668560  0.22759785  1
  P  P245  1  0.20933795  0.41670615  0.47656493  1
  P  P246  1  0.20812910  0.41688709  0.72913860  1
  P  P247  1  0.20925572  0.41715066  0.97781224  1
  P  P248  1  0.20838468  0.74804069  0.22834442  1
  P  P249  1  0.20830241  0.74937509  0.47639819  1
  P  P250  1  0.20783399  0.74824049  0.72812502  1
  P  P251  1  0.20912194  0.75001813  0.97714397  1
  P  P252  1  0.70646649  0.08272365  0.22817654  1
  P  P253  1  0.70764689  0.08163257  0.47764877  1
  P  P254  1  0.70775728  0.08176013  0.72772612  1
  P  P255  1  0.70717167  0.08204951  0.97681306  1
  P  P256  1  0.70780835  0.41582492  0.22726496  1
  P  P257  1  0.70724727  0.41858752  0.47714977  1
  P  P258  1  0.70679471  0.41688614  0.72846500  1
  P  P259  1  0.70776388  0.41481102  0.97739008  1
  P  P260  1  0.70736302  0.74955050  0.22870703  1
  P  P261  1  0.70714579  0.74871590  0.47759817  1
  P  P262  1  0.70715829  0.74897141  0.72772509  1
  P  P263  1  0.70846631  0.74960844  0.97594623  1
  P  P264  1  0.29213597  0.25252690  0.02294009  1
  P  P265  1  0.29151789  0.25012023  0.27339988  1
  P  P266  1  0.29264754  0.24876102  0.52189307  1
  P  P267  1  0.29267209  0.25149508  0.77298304  1
  P  P268  1  0.29179860  0.58357049  0.02411149  1
  P  P269  1  0.29139344  0.58293345  0.27326300  1
  P  P270  1  0.29163618  0.58475002  0.52219846  1
  P  P271  1  0.29168080  0.58346307  0.77444898  1
  P  P272  1  0.29245642  0.91744836  0.02248709  1
  P  P273  1  0.29235081  0.91475734  0.27234990  1
  P  P274  1  0.29235505  0.91576964  0.52115221  1
  P  P275  1  0.29233309  0.91513452  0.77257100  1
  P  P276  1  0.79163201  0.25124632  0.02183237  1
  P  P277  1  0.79291760  0.25016007  0.27129664  1
  P  P278  1  0.79305737  0.25017879  0.52143306  1
  P  P279  1  0.79229166  0.25112620  0.77203438  1
  P  P280  1  0.79280863  0.58356668  0.02086653  1
  P  P281  1  0.79117084  0.58313427  0.27330203  1
  P  P282  1  0.79137802  0.58539789  0.52170236  1
  P  P283  1  0.79215938  0.58519354  0.77194854  1
  P  P284  1  0.79249332  0.91605678  0.02034148  1
  P  P285  1  0.79227967  0.91774624  0.27255978  1
  P  P286  1  0.79165418  0.91789350  0.52218505  1
  P  P287  1  0.79101316  0.91685603  0.77282861  1
  O  O288  1  0.03781936  0.24896281  0.18245951  1
  O  O289  1  0.03779488  0.24984251  0.43366653  1
  O  O290  1  0.03743590  0.25060171  0.68220832  1
  O  O291  1  0.03709251  0.25033317  0.93228388  1
  O  O292  1  0.03794120  0.58493791  0.18182429  1
  O  O293  1  0.03779608  0.58237104  0.43331213  1
  O  O294  1  0.03696039  0.58125944  0.68221950  1
  O  O295  1  0.03708626  0.58374999  0.93215298  1
  O  O296  1  0.03758472  0.91675832  0.18388955  1
  O  O297  1  0.03664319  0.91817693  0.43131505  1
  O  O298  1  0.03795315  0.91759415  0.68190236  1
  O  O299  1  0.03840630  0.91701074  0.93306393  1
  O  O300  1  0.53610112  0.25054067  0.18206626  1
  O  O301  1  0.53744215  0.25088255  0.43244689  1
  O  O302  1  0.53752972  0.25016799  0.68367225  1
  O  O303  1  0.53612424  0.25102503  0.93338079  1
  O  O304  1  0.53639736  0.58190471  0.18397478  1
  O  O305  1  0.53553357  0.58308874  0.43224369  1
  O  O306  1  0.53600620  0.58286047  0.68153780  1
  O  O307  1  0.53745221  0.58293564  0.93429251  1
  O  O308  1  0.53709767  0.91412264  0.18268896  1
  O  O309  1  0.53581139  0.91501708  0.43310406  1
  O  O310  1  0.53592397  0.91710239  0.68135128  1
  O  O311  1  0.53699844  0.91738572  0.93235765  1
  O  O312  1  0.46227562  0.08412680  0.06649272  1
  O  O313  1  0.46249270  0.08195663  0.31747132  1
  O  O314  1  0.46321668  0.08080908  0.56717289  1
  O  O315  1  0.46278473  0.08430286  0.81758108  1
  O  O316  1  0.46363058  0.41649735  0.06891660  1
  O  O317  1  0.46342283  0.41767632  0.31714953  1
  O  O318  1  0.46244671  0.41613610  0.56831970  1
  O  O319  1  0.46291849  0.41625965  0.81980105  1
  O  O320  1  0.46336380  0.74940328  0.06909454  1
  O  O321  1  0.46377859  0.74921001  0.31812892  1
  O  O322  1  0.46255597  0.74921283  0.56614035  1
  O  O323  1  0.46241722  0.75098073  0.81827805  1
  O  O324  1  0.96298922  0.08365125  0.06743287  1
  O  O325  1  0.96401348  0.08255154  0.31829116  1
  O  O326  1  0.96298402  0.08354504  0.56574437  1
  O  O327  1  0.96245810  0.08512115  0.81756601  1
  O  O328  1  0.96219488  0.41675625  0.06620936  1
  O  O329  1  0.96271684  0.41775753  0.31727964  1
  O  O330  1  0.96387513  0.41747706  0.56800484  1
  O  O331  1  0.96300863  0.41666926  0.81550336  1
  O  O332  1  0.96320441  0.75027332  0.06714778  1
  O  O333  1  0.96245963  0.75165337  0.31604935  1
  O  O334  1  0.96203698  0.75055723  0.56612960  1
  O  O335  1  0.96331894  0.74905719  0.81704874  1
  O  O336  1  0.21269342  0.08315196  0.05883644  1
  O  O337  1  0.21400643  0.08261890  0.30786612  1
  O  O338  1  0.21382132  0.08533065  0.55755174  1
  O  O339  1  0.21299853  0.08478194  0.80728146  1
  O  O340  1  0.21403045  0.41717298  0.05774113  1
  O  O341  1  0.21387482  0.41688859  0.30746564  1
  O  O342  1  0.21391004  0.41691996  0.55650943  1
  O  O343  1  0.21337191  0.41671142  0.80897102  1
  O  O344  1  0.21386038  0.74945350  0.05709150  1
  O  O345  1  0.21392695  0.74844167  0.30817423  1
  O  O346  1  0.21306730  0.74920666  0.55635045  1
  O  O347  1  0.21325898  0.74891219  0.80793223  1
  O  O348  1  0.71193350  0.08250670  0.05680218  1
  O  O349  1  0.71159885  0.08241278  0.30815717  1
  O  O350  1  0.71297163  0.08161800  0.55760048  1
  O  O351  1  0.71327190  0.08197026  0.80764088  1
  O  O352  1  0.71332833  0.41457563  0.05729000  1
  O  O353  1  0.71291655  0.41691687  0.30718734  1
  O  O354  1  0.71206999  0.41871222  0.55712348  1
  O  O355  1  0.71227885  0.41632794  0.80838231  1
  O  O356  1  0.71308991  0.74999874  0.05598141  1
  O  O357  1  0.71253215  0.74931052  0.30864018  1
  O  O358  1  0.71226807  0.74879844  0.55754327  1
  O  O359  1  0.71275489  0.74924232  0.80757091  1
  O  O360  1  0.28642108  0.25093946  0.19348160  1
  O  O361  1  0.28718740  0.24879581  0.44204068  1
  O  O362  1  0.28781017  0.25065247  0.69300688  1
  O  O363  1  0.28677070  0.25290523  0.94303567  1
  O  O364  1  0.28659807  0.58279188  0.19340263  1
  O  O365  1  0.28635387  0.58454206  0.44238402  1
  O  O366  1  0.28710507  0.58351940  0.69451444  1
  O  O367  1  0.28719628  0.58330633  0.94424502  1
  O  O368  1  0.28711381  0.91534514  0.19241422  1
  O  O369  1  0.28702548  0.91527541  0.44122852  1
  O  O370  1  0.28705942  0.91525680  0.69261263  1
  O  O371  1  0.28719163  0.91690961  0.94256793  1
  O  O372  1  0.78748192  0.25036679  0.19134966  1
  O  O373  1  0.78810354  0.25007926  0.44147085  1
  O  O374  1  0.78715722  0.25056568  0.69211188  1
  O  O375  1  0.78633387  0.25123761  0.94187077  1
  O  O376  1  0.78663389  0.58277064  0.19327312  1
  O  O377  1  0.78596456  0.58474465  0.44180367  1
  O  O378  1  0.78669065  0.58546677  0.69202892  1
  O  O379  1  0.78749090  0.58407696  0.94097203  1
  O  O380  1  0.78726418  0.91720279  0.19258978  1
  O  O381  1  0.78642115  0.91793365  0.44227277  1
  O  O382  1  0.78612802  0.91682213  0.69283080  1
  O  O383  1  0.78726824  0.91597314  0.94042752  1
  O  O384  1  0.22795642  0.25247742  0.05887939  1
  O  O385  1  0.22745332  0.24957432  0.30950484  1
  O  O386  1  0.22854043  0.24863676  0.55824138  1
  O  O387  1  0.22831588  0.25221651  0.80848293  1
  O  O388  1  0.22758274  0.58403764  0.06003775  1
  O  O389  1  0.22732606  0.58349471  0.30941197  1
  O  O390  1  0.22752606  0.58491161  0.55850627  1
  O  O391  1  0.22754346  0.58338751  0.81030022  1
  O  O392  1  0.22828759  0.91762801  0.05848560  1
  O  O393  1  0.22814107  0.91463040  0.30816136  1
  O  O394  1  0.22816655  0.91642254  0.55677184  1
  O  O395  1  0.22806972  0.91462736  0.80828819  1
  O  O396  1  0.72736832  0.25172518  0.05770820  1
  O  O397  1  0.72857151  0.25010945  0.30661736  1
  O  O398  1  0.72854023  0.25001137  0.55625247  1
  O  O399  1  0.72795590  0.25079583  0.80756548  1
  O  O400  1  0.72847041  0.58300413  0.05624371  1
  O  O401  1  0.72683260  0.58303560  0.30884235  1
  O  O402  1  0.72714273  0.58599810  0.55778268  1
  O  O403  1  0.72794762  0.58497273  0.80786000  1
  O  O404  1  0.72817079  0.91608109  0.05591329  1
  O  O405  1  0.72789128  0.91799235  0.30801770  1
  O  O406  1  0.72739030  0.91789518  0.55801419  1
  O  O407  1  0.72685543  0.91725812  0.80867884  1
  O  O408  1  0.27246123  0.08229238  0.19175531  1
  O  O409  1  0.27257921  0.08464768  0.44162330  1
  O  O410  1  0.27240077  0.08516031  0.69183956  1
  O  O411  1  0.27158127  0.08375100  0.94337846  1
  O  O412  1  0.27306788  0.41632705  0.19140603  1
  O  O413  1  0.27350146  0.41651843  0.44090200  1
  O  O414  1  0.27233731  0.41713915  0.69334706  1
  O  O415  1  0.27338388  0.41691426  0.94170291  1
  O  O416  1  0.27250008  0.74771571  0.19210907  1
  O  O417  1  0.27255347  0.74918215  0.44051272  1
  O  O418  1  0.27201276  0.74801938  0.69196021  1
  O  O419  1  0.27331364  0.75067445  0.94128048  1
  O  O420  1  0.77085937  0.08334082  0.19301149  1
  O  O421  1  0.77191371  0.08141727  0.44178877  1
  O  O422  1  0.77194945  0.08148932  0.69173077  1
  O  O423  1  0.77162937  0.08182239  0.94164898  1
  O  O424  1  0.77214202  0.41485896  0.19157386  1
  O  O425  1  0.77172560  0.41880160  0.44200559  1
  O  O426  1  0.77107037  0.41778079  0.69297177  1
  O  O427  1  0.77188460  0.41514246  0.94129949  1
  O  O428  1  0.77169550  0.74966373  0.19330470  1
  O  O429  1  0.77138927  0.74871415  0.44189989  1
  O  O430  1  0.77127563  0.74889421  0.69138956  1
  O  O431  1  0.77269796  0.74927653  0.94030334  1
  O  O432  1  0.02207263  0.08161221  0.18296556  1
  O  O433  1  0.02308635  0.08325038  0.43431515  1
  O  O434  1  0.02165155  0.08395632  0.68133182  1
  O  O435  1  0.02203915  0.08539669  0.93281261  1
  O  O436  1  0.02188460  0.41699201  0.18085501  1
  O  O437  1  0.02215549  0.41823749  0.43249680  1
  O  O438  1  0.02290993  0.41675314  0.68416260  1
  O  O439  1  0.02170676  0.41675171  0.93127127  1
  O  O440  1  0.02226147  0.75196174  0.18274106  1
  O  O441  1  0.02155271  0.75059237  0.43126737  1
  O  O442  1  0.02153870  0.74994706  0.68088304  1
  O  O443  1  0.02278940  0.74846008  0.93239139  1
  O  O444  1  0.52108834  0.08305600  0.18191873  1
  O  O445  1  0.52207903  0.08119040  0.43278872  1
  O  O446  1  0.52190539  0.08148762  0.68307013  1
  O  O447  1  0.52167667  0.08497524  0.93344372  1
  O  O448  1  0.52260259  0.41659422  0.18505826  1
  O  O449  1  0.52192261  0.41858764  0.43325834  1
  O  O450  1  0.52155242  0.41493156  0.68395183  1
  O  O451  1  0.52269441  0.41765416  0.93539913  1
  O  O452  1  0.52283082  0.74989815  0.18486741  1
  O  O453  1  0.52272024  0.74969022  0.43450798  1
  O  O454  1  0.52123248  0.74979689  0.68188460  1
  O  O455  1  0.52214082  0.75104579  0.93351469  1
  O  O456  1  0.47673253  0.24919483  0.06627947  1
  O  O457  1  0.47761481  0.25156788  0.31737879  1
  O  O458  1  0.47867041  0.24952072  0.56824977  1
  O  O459  1  0.47753833  0.25138882  0.81718234  1
  O  O460  1  0.47786969  0.58173472  0.06791479  1
  O  O461  1  0.47655309  0.58240520  0.31601153  1
  O  O462  1  0.47645382  0.58221098  0.56585269  1
  O  O463  1  0.47785414  0.58300924  0.81923588  1
  O  O464  1  0.47800933  0.91481966  0.06714282  1
  O  O465  1  0.47757448  0.91402287  0.31674826  1
  O  O466  1  0.47696136  0.91558286  0.56525824  1
  O  O467  1  0.47741518  0.91841467  0.81693443  1
  O  O468  1  0.97824077  0.24849171  0.06714885  1
  O  O469  1  0.97882505  0.25009541  0.31830306  1
  O  O470  1  0.97848843  0.24946790  0.56655873  1
  O  O471  1  0.97815790  0.25235387  0.81657787  1
  O  O472  1  0.97830198  0.58543539  0.06671496  1
  O  O473  1  0.97863419  0.58373363  0.31815441  1
  O  O474  1  0.97823509  0.58140868  0.56640970  1
  O  O475  1  0.97821236  0.58179913  0.81633350  1
  O  O476  1  0.97896095  0.91669964  0.06810345  1
  O  O477  1  0.97741160  0.91783118  0.31531924  1
  O  O478  1  0.97842095  0.91880814  0.56678290  1
  O  O479  1  0.97874087  0.91701137  0.81827819  1
  O  O480  1  0.07350919  0.31239338  0.07456293  1
  O  O481  1  0.07405994  0.31354287  0.32559421  1
  O  O482  1  0.07417030  0.31299227  0.57422245  1
  O  O483  1  0.07345785  0.31482146  0.82430527  1
  O  O484  1  0.07346124  0.64864156  0.07335426  1
  O  O485  1  0.07410333  0.64678188  0.32582829  1
  O  O486  1  0.07321434  0.64549631  0.57481113  1
  O  O487  1  0.07345679  0.64586233  0.82367330  1
  O  O488  1  0.07423822  0.98018712  0.07566449  1
  O  O489  1  0.07284315  0.98090742  0.32295672  1
  O  O490  1  0.07385924  0.98155785  0.57358267  1
  O  O491  1  0.07412646  0.98064103  0.82504848  1
  O  O492  1  0.57113997  0.31384041  0.07344074  1
  O  O493  1  0.57288660  0.31458941  0.32397366  1
  O  O494  1  0.57415323  0.31299229  0.57529181  1
  O  O495  1  0.57218607  0.31508786  0.82497877  1
  O  O496  1  0.57330844  0.64514800  0.07610665  1
  O  O497  1  0.57082920  0.64689974  0.32378189  1
  O  O498  1  0.57101012  0.64637764  0.57299670  1
  O  O499  1  0.57293737  0.64679066  0.82592807  1
  O  O500  1  0.57340286  0.97819241  0.07521241  1
  O  O501  1  0.57252649  0.97808179  0.32493459  1
  O  O502  1  0.57177955  0.97966808  0.57259247  1
  O  O503  1  0.57234046  0.98162984  0.82397004  1
  O  O504  1  0.42590628  0.01958237  0.17389860  1
  O  O505  1  0.42683803  0.01806801  0.42555743  1
  O  O506  1  0.42686308  0.01793700  0.67598943  1
  O  O507  1  0.42620966  0.02141628  0.92552651  1
  O  O508  1  0.42786801  0.35272494  0.17728634  1
  O  O509  1  0.42697244  0.35433221  0.42513702  1
  O  O510  1  0.42654113  0.35191377  0.67664335  1
  O  O511  1  0.42814326  0.35330492  0.92880791  1
  O  O512  1  0.42846319  0.68555683  0.17763347  1
  O  O513  1  0.42835315  0.68538943  0.42642055  1
  O  O514  1  0.42607426  0.68606645  0.67478207  1
  O  O515  1  0.42650209  0.68800851  0.92644451  1
  O  O516  1  0.92661632  0.01919260  0.17537287  1
  O  O517  1  0.92777652  0.02001690  0.42672856  1
  O  O518  1  0.92635961  0.02045261  0.67448863  1
  O  O519  1  0.92679979  0.02144472  0.92530087  1
  O  O520  1  0.92664407  0.35319848  0.17449353  1
  O  O521  1  0.92660825  0.35469546  0.42526699  1
  O  O522  1  0.92810693  0.35307225  0.67563490  1
  O  O523  1  0.92620258  0.35362346  0.92392275  1
  O  O524  1  0.92689172  0.68786943  0.17553302  1
  O  O525  1  0.92611592  0.68749776  0.42375570  1
  O  O526  1  0.92589866  0.68686827  0.67394792  1
  O  O527  1  0.92766749  0.68533846  0.92541580  1
  O  O528  1  0.17815606  0.01810580  0.19980994  1
  O  O529  1  0.17720454  0.02130250  0.45024656  1
  O  O530  1  0.17712033  0.02133483  0.69940444  1
  O  O531  1  0.17602749  0.02050807  0.95020866  1
  O  O532  1  0.17764536  0.35330920  0.19921415  1
  O  O533  1  0.17848453  0.35298974  0.44848251  1
  O  O534  1  0.17703419  0.35368500  0.70011165  1
  O  O535  1  0.17797509  0.35388121  0.94918891  1
  O  O536  1  0.17730305  0.68468260  0.19976384  1
  O  O537  1  0.17711043  0.68602527  0.44809699  1
  O  O538  1  0.17719191  0.68461045  0.69939874  1
  O  O539  1  0.17888438  0.68616724  0.94836309  1
  O  O540  1  0.67546520  0.01939687  0.19963930  1
  O  O541  1  0.67655632  0.01841064  0.44894804  1
  O  O542  1  0.67667044  0.01843933  0.69920427  1
  O  O543  1  0.67650661  0.01847265  0.94844364  1
  O  O544  1  0.67680059  0.35224310  0.19920786  1
  O  O545  1  0.67639925  0.35478770  0.44944980  1
  O  O546  1  0.67598296  0.35353576  0.69972064  1
  O  O547  1  0.67692732  0.35150017  0.94849527  1
  O  O548  1  0.67621791  0.68622478  0.20024881  1
  O  O549  1  0.67619263  0.68548917  0.44867695  1
  O  O550  1  0.67610784  0.68564483  0.69908453  1
  O  O551  1  0.67731290  0.68595803  0.94832120  1
  O  O552  1  0.32321689  0.31562352  0.05194736  1
  O  O553  1  0.32203283  0.31375129  0.30238078  1
  O  O554  1  0.32375870  0.31250705  0.54972585  1
  O  O555  1  0.32348825  0.31506539  0.80138262  1
  O  O556  1  0.32305001  0.64695433  0.05258226  1
  O  O557  1  0.32286087  0.64613755  0.30174836  1
  O  O558  1  0.32244699  0.64812009  0.55116993  1
  O  O559  1  0.32256860  0.64701266  0.80301094  1
  O  O560  1  0.32299693  0.98117550  0.05093636  1
  O  O561  1  0.32376632  0.97809643  0.30035546  1
  O  O562  1  0.32364163  0.97933522  0.54893947  1
  O  O563  1  0.32295787  0.97914293  0.80010021  1
  O  O564  1  0.82301438  0.31429211  0.05048048  1
  O  O565  1  0.82431239  0.31334181  0.29965191  1
  O  O566  1  0.82380769  0.31390532  0.54943223  1
  O  O567  1  0.82253867  0.31501772  0.80025725  1
  O  O568  1  0.82376545  0.64680604  0.04974416  1
  O  O569  1  0.82171665  0.64702855  0.30129842  1
  O  O570  1  0.82262685  0.64869493  0.55009675  1
  O  O571  1  0.82306831  0.64851289  0.80062540  1
  O  O572  1  0.82364140  0.97948169  0.04877341  1
  O  O573  1  0.82289506  0.98142257  0.30077094  1
  O  O574  1  0.82268986  0.98101810  0.55107590  1
  O  O575  1  0.82254738  0.97999314  0.80118449  1
  O  O576  1  0.42548340  0.14649706  0.17520072  1
  O  O577  1  0.42705474  0.14545886  0.42556808  1
  O  O578  1  0.42656492  0.14499361  0.67464372  1
  O  O579  1  0.42677737  0.14855617  0.92578947  1
  O  O580  1  0.42727145  0.47991359  0.17713489  1
  O  O581  1  0.42654583  0.48124381  0.42566704  1
  O  O582  1  0.42624787  0.47905949  0.67661216  1
  O  O583  1  0.42733940  0.48057907  0.92795159  1
  O  O584  1  0.42727043  0.81285232  0.17731485  1
  O  O585  1  0.42735927  0.81258793  0.42639021  1
  O  O586  1  0.42562460  0.81280963  0.67417931  1
  O  O587  1  0.42752052  0.81524418  0.92675026  1
  O  O588  1  0.92697842  0.14621258  0.17601544  1
  O  O589  1  0.92845341  0.14750309  0.42592126  1
  O  O590  1  0.92598094  0.14711849  0.67380798  1
  O  O591  1  0.92692353  0.14878086  0.92617484  1
  O  O592  1  0.92618319  0.48034470  0.17422618  1
  O  O593  1  0.92707885  0.48178743  0.42577970  1
  O  O594  1  0.92775746  0.48053363  0.67643667  1
  O  O595  1  0.92631277  0.48029967  0.92361938  1
  O  O596  1  0.92706844  0.81494173  0.17525852  1
  O  O597  1  0.92603961  0.81442765  0.42443815  1
  O  O598  1  0.92625874  0.81393558  0.67457617  1
  O  O599  1  0.92751160  0.81259563  0.92490668  1
  O  O600  1  0.07331266  0.18506175  0.07403506  1
  O  O601  1  0.07434517  0.18661423  0.32550405  1
  O  O602  1  0.07326527  0.18587058  0.57401719  1
  O  O603  1  0.07333078  0.18779001  0.82391363  1
  O  O604  1  0.07360907  0.52136441  0.07389560  1
  O  O605  1  0.07413921  0.51994952  0.32441040  1
  O  O606  1  0.07366526  0.51823329  0.57371349  1
  O  O607  1  0.07333093  0.51878499  0.82447265  1
  O  O608  1  0.07456522  0.85350806  0.07555667  1
  O  O609  1  0.07192363  0.85342127  0.32349449  1
  O  O610  1  0.07366698  0.85443741  0.57365924  1
  O  O611  1  0.07423794  0.85349049  0.82483693  1
  O  O612  1  0.57225532  0.18649551  0.07395820  1
  O  O613  1  0.57280171  0.18726390  0.32451633  1
  O  O614  1  0.57403149  0.18609422  0.57583279  1
  O  O615  1  0.57312089  0.18808230  0.82528581  1
  O  O616  1  0.57294629  0.51823244  0.07548064  1
  O  O617  1  0.57221893  0.51981443  0.32393749  1
  O  O618  1  0.57171730  0.51894139  0.57350140  1
  O  O619  1  0.57361961  0.51997191  0.82568085  1
  O  O620  1  0.57299531  0.85102602  0.07366683  1
  O  O621  1  0.57285304  0.85109177  0.32503901  1
  O  O622  1  0.57212068  0.85231566  0.57397797  1
  O  O623  1  0.57273148  0.85445008  0.82394838  1
  O  O624  1  0.32307599  0.18860595  0.05030400  1
  O  O625  1  0.32269781  0.18633003  0.30079275  1
  O  O626  1  0.32363979  0.18551669  0.55091434  1
  O  O627  1  0.32359187  0.18796165  0.80136565  1
  O  O628  1  0.32215029  0.51977880  0.05310504  1
  O  O629  1  0.32165161  0.51897048  0.30201243  1
  O  O630  1  0.32270016  0.52113016  0.55035096  1
  O  O631  1  0.32240571  0.51983537  0.80319898  1
  O  O632  1  0.32374932  0.85400584  0.05052910  1
  O  O633  1  0.32293633  0.85095302  0.30054484  1
  O  O634  1  0.32342876  0.85245217  0.54954117  1
  O  O635  1  0.32342163  0.85180990  0.80099369  1
  O  O636  1  0.82216268  0.18713698  0.04950302  1
  O  O637  1  0.82391195  0.18650397  0.29930533  1
  O  O638  1  0.82409198  0.18676157  0.54964393  1
  O  O639  1  0.82376978  0.18773934  0.79993968  1
  O  O640  1  0.82403854  0.51995958  0.04860287  1
  O  O641  1  0.82199644  0.51949730  0.30161332  1
  O  O642  1  0.82224339  0.52178632  0.55021941  1
  O  O643  1  0.82326305  0.52139253  0.79936519  1
  O  O644  1  0.82361713  0.85272300  0.04905530  1
  O  O645  1  0.82324330  0.85418411  0.30060591  1
  O  O646  1  0.82255094  0.85396129  0.54974499  1
  O  O647  1  0.82116160  0.85260298  0.80094908  1
  O  O648  1  0.17666755  0.14540642  0.20035235  1
  O  O649  1  0.17760886  0.14833513  0.44861162  1
  O  O650  1  0.17738460  0.14873355  0.69907232  1
  O  O651  1  0.17638389  0.14740772  0.95121130  1
  O  O652  1  0.17847942  0.48044943  0.19868499  1
  O  O653  1  0.17872821  0.48042517  0.44811443  1
  O  O654  1  0.17684858  0.48026644  0.70079024  1
  O  O655  1  0.17884294  0.48111709  0.94926846  1
  O  O656  1  0.17726076  0.81155450  0.20013157  1
  O  O657  1  0.17788833  0.81336902  0.44809211  1
  O  O658  1  0.17643329  0.81151471  0.69957257  1
  O  O659  1  0.17800065  0.81359610  0.94915111  1
  O  O660  1  0.67517960  0.14623452  0.20014436  1
  O  O661  1  0.67680887  0.14557878  0.45006485  1
  O  O662  1  0.67682419  0.14560660  0.70004991  1
  O  O663  1  0.67628230  0.14575150  0.94890461  1
  O  O664  1  0.67703619  0.47936328  0.19874439  1
  O  O665  1  0.67651481  0.48200096  0.44836222  1
  O  O666  1  0.67525700  0.48043820  0.70096777  1
  O  O667  1  0.67653241  0.47866441  0.95023733  1
  O  O668  1  0.67642282  0.81314898  0.20060044  1
  O  O669  1  0.67619508  0.81258383  0.45010416  1
  O  O670  1  0.67597440  0.81257925  0.69965150  1
  O  O671  1  0.67812340  0.81344330  0.94728165  1
