# generated using pymatgen
data_Na2MnFe(PO4)2
_symmetry_space_group_name_H-M   'P 1'
_cell_length_a   22.34539716
_cell_length_b   20.09727970
_cell_length_c   19.44739132
_cell_angle_alpha   89.99958314
_cell_angle_beta   90.06172167
_cell_angle_gamma   90.02983553
_symmetry_Int_Tables_number   1
_chemical_formula_structural   Na2MnFe(PO4)2
_chemical_formula_sum   'Na96 Mn48 Fe48 P96 O384'
_cell_volume   8733.46124072
_cell_formula_units_Z   48
loop_
 _symmetry_equiv_pos_site_id
 _symmetry_equiv_pos_as_xyz
  1  'x, y, z'
loop_
 _atom_site_type_symbol
 _atom_site_label
 _atom_site_symmetry_multiplicity
 _atom_site_fract_x
 _atom_site_fract_y
 _atom_site_fract_z
 _atom_site_occupancy
  Na  Na0  1  0.14060636  0.25128075  0.24354588  1
  Na  Na1  1  0.14007994  0.25003859  0.49393036  1
  Na  Na2  1  0.14068687  0.25190301  0.74414190  1
  Na  Na3  1  0.14098137  0.25153240  0.99451749  1
  Na  Na4  1  0.14056971  0.58351292  0.24300002  1
  Na  Na5  1  0.13984276  0.58204383  0.49354422  1
  Na  Na6  1  0.14029071  0.58242081  0.74419100  1
  Na  Na7  1  0.14077985  0.58264481  0.99377763  1
  Na  Na8  1  0.13986079  0.91676114  0.24310838  1
  Na  Na9  1  0.13986977  0.91660372  0.49446411  1
  Na  Na10  1  0.13975259  0.91618930  0.74453331  1
  Na  Na11  1  0.14005831  0.91672571  0.99544075  1
  Na  Na12  1  0.64007665  0.24985360  0.24311572  1
  Na  Na13  1  0.64023046  0.24945813  0.49308882  1
  Na  Na14  1  0.64009476  0.24976301  0.74332655  1
  Na  Na15  1  0.64020551  0.24964810  0.99438917  1
  Na  Na16  1  0.64035860  0.58285451  0.24347754  1
  Na  Na17  1  0.63971290  0.58321968  0.49164425  1
  Na  Na18  1  0.64009974  0.58357665  0.74252055  1
  Na  Na19  1  0.64078599  0.58329937  0.99441659  1
  Na  Na20  1  0.63952941  0.91507521  0.24298493  1
  Na  Na21  1  0.63927365  0.91681626  0.49293420  1
  Na  Na22  1  0.63975168  0.91684753  0.74303103  1
  Na  Na23  1  0.63945509  0.91701508  0.99381742  1
  Na  Na24  1  0.35982968  0.08378748  0.00829213  1
  Na  Na25  1  0.36042993  0.08382850  0.25697459  1
  Na  Na26  1  0.36037956  0.08361233  0.50596533  1
  Na  Na27  1  0.35957208  0.08341842  0.75714506  1
  Na  Na28  1  0.36009566  0.41699967  0.00555778  1
  Na  Na29  1  0.36066160  0.41724891  0.25640197  1
  Na  Na30  1  0.36057700  0.41665266  0.50565576  1
  Na  Na31  1  0.36062435  0.41711064  0.75647569  1
  Na  Na32  1  0.35977236  0.75110419  0.00741893  1
  Na  Na33  1  0.36043389  0.75078648  0.25667739  1
  Na  Na34  1  0.36045327  0.74904681  0.50641369  1
  Na  Na35  1  0.35967204  0.74921862  0.75618864  1
  Na  Na36  1  0.85932859  0.08321983  0.00561450  1
  Na  Na37  1  0.85944591  0.08202796  0.25704621  1
  Na  Na38  1  0.85927125  0.08257987  0.50734592  1
  Na  Na39  1  0.85889872  0.08296211  0.75538962  1
  Na  Na40  1  0.85986109  0.41722647  0.00581737  1
  Na  Na41  1  0.85991675  0.41647052  0.25652059  1
  Na  Na42  1  0.85978581  0.41648254  0.50560535  1
  Na  Na43  1  0.86025161  0.41689010  0.75625840  1
  Na  Na44  1  0.85908053  0.75044268  0.00641381  1
  Na  Na45  1  0.86004800  0.74819000  0.25664341  1
  Na  Na46  1  0.85973120  0.75048769  0.50574164  1
  Na  Na47  1  0.85906819  0.75081525  0.75510711  1
  Na  Na48  1  0.10935949  0.08255865  0.11990975  1
  Na  Na49  1  0.10881430  0.08423963  0.36873359  1
  Na  Na50  1  0.10919452  0.08304024  0.62008095  1
  Na  Na51  1  0.10918425  0.08341583  0.86929689  1
  Na  Na52  1  0.11063003  0.41645272  0.11827845  1
  Na  Na53  1  0.10981679  0.41776698  0.36840538  1
  Na  Na54  1  0.10973905  0.41707145  0.61918079  1
  Na  Na55  1  0.11033892  0.41718935  0.86860065  1
  Na  Na56  1  0.10938371  0.74976981  0.11917897  1
  Na  Na57  1  0.10914708  0.75052651  0.36848627  1
  Na  Na58  1  0.10896602  0.74963506  0.61968191  1
  Na  Na59  1  0.10951878  0.75026177  0.86876119  1
  Na  Na60  1  0.60925096  0.08195533  0.11908913  1
  Na  Na61  1  0.60905967  0.08301163  0.36874839  1
  Na  Na62  1  0.60928026  0.08266725  0.61708692  1
  Na  Na63  1  0.60891596  0.08378483  0.86931450  1
  Na  Na64  1  0.61012873  0.41639648  0.11935087  1
  Na  Na65  1  0.60981489  0.41705834  0.36669772  1
  Na  Na66  1  0.60925449  0.41666561  0.61798583  1
  Na  Na67  1  0.61001756  0.41604041  0.86809013  1
  Na  Na68  1  0.60961475  0.75027247  0.11874822  1
  Na  Na69  1  0.60910640  0.75059347  0.36797188  1
  Na  Na70  1  0.60882643  0.75064093  0.61694667  1
  Na  Na71  1  0.60948316  0.75076308  0.86867045  1
  Na  Na72  1  0.39117780  0.25007759  0.13272119  1
  Na  Na73  1  0.39068258  0.25074788  0.38056589  1
  Na  Na74  1  0.39096911  0.25034560  0.63084043  1
  Na  Na75  1  0.39079361  0.25043432  0.88185127  1
  Na  Na76  1  0.39118165  0.58315095  0.13211144  1
  Na  Na77  1  0.39105165  0.58398029  0.38100581  1
  Na  Na78  1  0.39076031  0.58207872  0.63090628  1
  Na  Na79  1  0.39086407  0.58293250  0.88088212  1
  Na  Na80  1  0.39056379  0.91667018  0.13256343  1
  Na  Na81  1  0.39101735  0.91690003  0.38067162  1
  Na  Na82  1  0.39031973  0.91647443  0.63085742  1
  Na  Na83  1  0.39035013  0.91696313  0.88353766  1
  Na  Na84  1  0.89069003  0.24960615  0.13152461  1
  Na  Na85  1  0.89057206  0.25146136  0.38164984  1
  Na  Na86  1  0.89030113  0.24951486  0.63144050  1
  Na  Na87  1  0.89046470  0.25162866  0.88032551  1
  Na  Na88  1  0.89034907  0.58234977  0.13192834  1
  Na  Na89  1  0.89065267  0.58336352  0.38042882  1
  Na  Na90  1  0.89070116  0.58318421  0.62986377  1
  Na  Na91  1  0.89035430  0.58311410  0.88097812  1
  Na  Na92  1  0.89000588  0.91567388  0.13263394  1
  Na  Na93  1  0.89016389  0.91598594  0.38146011  1
  Na  Na94  1  0.88956305  0.91650066  0.63199822  1
  Na  Na95  1  0.88937110  0.91636097  0.87995096  1
  Mn  Mn96  1  0.24975487  0.16759810  0.37502112  1
  Mn  Mn97  1  0.00014746  0.00041072  0.50015315  1
  Mn  Mn98  1  -0.00077236  -0.00089448  0.00003673  1
  Mn  Mn99  1  0.74966361  0.66639879  0.37460611  1
  Mn  Mn100  1  0.50057290  0.49962860  0.00036493  1
  Mn  Mn101  1  0.75075661  0.16592335  0.12478683  1
  Mn  Mn102  1  0.25034877  0.16776080  0.12543209  1
  Mn  Mn103  1  0.25002460  0.00023664  0.37526204  1
  Mn  Mn104  1  0.49917912  0.16691043  0.74987976  1
  Mn  Mn105  1  0.25010558  0.16727714  0.62549926  1
  Mn  Mn106  1  0.49954342  0.66595125  0.74922482  1
  Mn  Mn107  1  0.24991055  -0.00014315  0.62616101  1
  Mn  Mn108  1  0.25016176  0.66652410  0.87563726  1
  Mn  Mn109  1  -0.00021262  0.16706923  0.25020894  1
  Mn  Mn110  1  0.50078169  0.66720425  0.00043304  1
  Mn  Mn111  1  0.00024709  0.83299671  0.50003197  1
  Mn  Mn112  1  0.74939745  0.16700462  0.87514832  1
  Mn  Mn113  1  0.00065928  0.33420330  0.00014062  1
  Mn  Mn114  1  -0.00037946  0.83288846  0.00027448  1
  Mn  Mn115  1  -0.00008235  0.16673499  0.75044402  1
  Mn  Mn116  1  -0.00060108  0.66548984  -0.00079072  1
  Mn  Mn117  1  0.75078698  0.33379806  0.12471925  1
  Mn  Mn118  1  0.00077060  0.50000718  0.25023297  1
  Mn  Mn119  1  0.75025947  0.49992231  0.87462096  1
  Mn  Mn120  1  0.74954530  0.16629778  0.37481709  1
  Mn  Mn121  1  0.74948240  -0.00139229  0.37596495  1
  Mn  Mn122  1  0.24919522  0.66517360  0.62617805  1
  Mn  Mn123  1  0.25065132  0.66708398  0.12418453  1
  Mn  Mn124  1  0.24989123  0.16790251  0.87664560  1
  Mn  Mn125  1  0.25006154  0.66632063  0.37475663  1
  Mn  Mn126  1  0.24987333  0.83271033  0.62553785  1
  Mn  Mn127  1  0.74973519  0.66759098  0.62369598  1
  Mn  Mn128  1  0.25080744  0.49914085  0.37406874  1
  Mn  Mn129  1  0.75000066  0.83295998  0.12486659  1
  Mn  Mn130  1  0.50007779  0.33257213  0.00038545  1
  Mn  Mn131  1  0.24952680  -0.00056401  0.87651042  1
  Mn  Mn132  1  0.49958257  0.00016358  0.74992103  1
  Mn  Mn133  1  0.00041542  0.33390783  0.50068646  1
  Mn  Mn134  1  0.25095950  0.33439344  0.62485526  1
  Mn  Mn135  1  0.74944178  0.33295075  0.62451695  1
  Mn  Mn136  1  0.25008580  0.83340190  0.37528627  1
  Mn  Mn137  1  0.49970349  0.83351441  0.74932235  1
  Mn  Mn138  1  0.74986001  0.66768467  0.87411617  1
  Mn  Mn139  1  0.50054579  0.33354207  0.49929335  1
  Mn  Mn140  1  0.74887009  -0.00047409  0.87443205  1
  Mn  Mn141  1  -0.00004411  0.16656945  0.00020541  1
  Mn  Mn142  1  -0.00024287  0.66620959  0.74992224  1
  Mn  Mn143  1  0.74970210  0.49977224  0.62426537  1
  Fe  Fe144  1  0.50071511  0.50033896  0.25038305  1
  Fe  Fe145  1  0.50045266  0.33304333  0.25053039  1
  Fe  Fe146  1  0.50029528  0.66725217  0.25035134  1
  Fe  Fe147  1  0.74881531  0.83354361  0.62488020  1
  Fe  Fe148  1  0.00091352  0.66621901  0.25010206  1
  Fe  Fe149  1  -0.00051909  0.83275645  0.25060496  1
  Fe  Fe150  1  -0.00102695  0.83315542  0.74948138  1
  Fe  Fe151  1  0.49976449  0.83353371  0.00048597  1
  Fe  Fe152  1  0.75013681  0.33291609  0.37458200  1
  Fe  Fe153  1  0.74938030  -0.00058011  0.62501593  1
  Fe  Fe154  1  0.49998237  0.83358307  0.25017696  1
  Fe  Fe155  1  0.49996583  0.16677783  0.49967750  1
  Fe  Fe156  1  0.74983507  0.49974997  0.12490438  1
  Fe  Fe157  1  0.50090746  0.49987208  0.74929855  1
  Fe  Fe158  1  0.49941492  0.00020052  0.00119860  1
  Fe  Fe159  1  0.50021901  0.50008805  0.49933058  1
  Fe  Fe160  1  0.74990195  0.33331144  0.87480097  1
  Fe  Fe161  1  0.74999915  0.83300357  0.37492775  1
  Fe  Fe162  1  0.74938827  0.83357269  0.87499018  1
  Fe  Fe163  1  0.00019140  0.33391722  0.75002637  1
  Fe  Fe164  1  0.50041938  0.16639646  0.00106408  1
  Fe  Fe165  1  0.49938189  -0.00007894  0.49862104  1
  Fe  Fe166  1  0.50002824  0.00000926  0.24993125  1
  Fe  Fe167  1  0.74995659  -0.00084730  0.12500000  1
  Fe  Fe168  1  0.50054604  0.33320224  0.74992357  1
  Fe  Fe169  1  0.25095130  0.33459586  0.12441636  1
  Fe  Fe170  1  0.25004843  0.83372154  0.12567281  1
  Fe  Fe171  1  0.49954754  0.83346323  0.49866690  1
  Fe  Fe172  1  0.25058290  0.49984702  0.87511289  1
  Fe  Fe173  1  0.25006080  0.49952028  0.62478330  1
  Fe  Fe174  1  -0.00056183  0.00012402  0.25048209  1
  Fe  Fe175  1  -0.00005877  0.50024048  0.49990559  1
  Fe  Fe176  1  0.00026708  0.50003741  0.74963968  1
  Fe  Fe177  1  0.50033785  0.16620975  0.25028949  1
  Fe  Fe178  1  0.25054200  0.33445768  0.87483535  1
  Fe  Fe179  1  0.74985627  0.16683305  0.62466908  1
  Fe  Fe180  1  0.00051252  0.33379395  0.25035470  1
  Fe  Fe181  1  0.75015253  0.66630203  0.12511570  1
  Fe  Fe182  1  0.50013047  0.66648468  0.49910960  1
  Fe  Fe183  1  -0.00013100  0.66662631  0.49987221  1
  Fe  Fe184  1  -0.00089082  -0.00007857  0.74965787  1
  Fe  Fe185  1  -0.00040889  0.16692328  0.50035393  1
  Fe  Fe186  1  0.24999022  0.00035187  0.12571153  1
  Fe  Fe187  1  0.24990642  0.83344902  0.87599923  1
  Fe  Fe188  1  0.25099017  0.49987341  0.12431453  1
  Fe  Fe189  1  -0.00002016  0.49961138  0.00044521  1
  Fe  Fe190  1  0.75037637  0.49961542  0.37414050  1
  Fe  Fe191  1  0.25002152  0.33390235  0.37458399  1
  P  P192  1  0.04306137  0.25021616  0.10375615  1
  P  P193  1  0.04237204  0.25167856  0.35298263  1
  P  P194  1  0.04210260  0.24901935  0.60318801  1
  P  P195  1  0.04249911  0.25183881  0.85248599  1
  P  P196  1  0.04242475  0.58213730  0.10264948  1
  P  P197  1  0.04279517  0.58468603  0.35310204  1
  P  P198  1  0.04136332  0.58314775  0.60174253  1
  P  P199  1  0.04217776  0.58161234  0.85269578  1
  P  P200  1  0.04181568  0.91606595  0.10463769  1
  P  P201  1  0.04119450  0.91681464  0.35158800  1
  P  P202  1  0.04200997  0.91661845  0.60414554  1
  P  P203  1  0.04053263  0.91651394  0.85123462  1
  P  P204  1  0.54238776  0.24830333  0.10385119  1
  P  P205  1  0.54156573  0.24932784  0.35193704  1
  P  P206  1  0.54227258  0.24920599  0.60225457  1
  P  P207  1  0.54221217  0.25051925  0.85277576  1
  P  P208  1  0.54269782  0.58348297  0.10437350  1
  P  P209  1  0.54141084  0.58417052  0.35211939  1
  P  P210  1  0.54162025  0.58300386  0.60095804  1
  P  P211  1  0.54271997  0.58214795  0.85195377  1
  P  P212  1  0.54089093  0.91642560  0.10259851  1
  P  P213  1  0.54104308  0.91704653  0.35182231  1
  P  P214  1  0.54049319  0.91689478  0.60027244  1
  P  P215  1  0.54202595  0.91685350  0.85380407  1
  P  P216  1  0.45885493  0.08325393  0.14828959  1
  P  P217  1  0.45883376  0.08392327  0.39728072  1
  P  P218  1  0.45703393  0.08330437  0.64594856  1
  P  P219  1  0.45819589  0.08377362  0.89949713  1
  P  P220  1  0.45962193  0.41652063  0.14908199  1
  P  P221  1  0.45874121  0.41833930  0.39641301  1
  P  P222  1  0.45918697  0.41677576  0.64774266  1
  P  P223  1  0.45831803  0.41630417  0.89617619  1
  P  P224  1  0.45899515  0.75040155  0.14850812  1
  P  P225  1  0.45877023  0.74976245  0.39724570  1
  P  P226  1  0.45732218  0.74951521  0.64545038  1
  P  P227  1  0.45765507  0.75104154  0.89790883  1
  P  P228  1  0.95715027  0.08203054  0.14804336  1
  P  P229  1  0.95738726  0.08473170  0.39753261  1
  P  P230  1  0.95738222  0.08269970  0.64730040  1
  P  P231  1  0.95689692  0.08307260  0.89634801  1
  P  P232  1  0.95822280  0.41574342  0.14766320  1
  P  P233  1  0.95825789  0.41793849  0.39749305  1
  P  P234  1  0.95864428  0.41703294  0.64791472  1
  P  P235  1  0.95813579  0.41836386  0.89678790  1
  P  P236  1  0.95844529  0.74899704  0.14872872  1
  P  P237  1  0.95808959  0.74858713  0.39667435  1
  P  P238  1  0.95737784  0.75026756  0.64695692  1
  P  P239  1  0.95677344  0.75005384  0.89624518  1
  P  P240  1  0.20803209  0.08304441  0.22770965  1
  P  P241  1  0.20680479  0.08374801  0.47843581  1
  P  P242  1  0.20696080  0.08382896  0.72924982  1
  P  P243  1  0.20722290  0.08351965  0.97973550  1
  P  P244  1  0.20909481  0.41690822  0.22628242  1
  P  P245  1  0.20782693  0.41573309  0.47730054  1
  P  P246  1  0.20839365  0.41818968  0.72814880  1
  P  P247  1  0.20918252  0.41705371  0.97716734  1
  P  P248  1  0.20794043  0.75093729  0.22723821  1
  P  P249  1  0.20695948  0.74916214  0.47834024  1
  P  P250  1  0.20686138  0.74971850  0.72939687  1
  P  P251  1  0.20780063  0.75155932  0.97833544  1
  P  P252  1  0.70786390  0.08126068  0.22736540  1
  P  P253  1  0.70721799  0.08301895  0.47899473  1
  P  P254  1  0.70800413  0.08351871  0.72597416  1
  P  P255  1  0.70695969  0.08272364  0.97847161  1
  P  P256  1  0.70833648  0.41761694  0.22801284  1
  P  P257  1  0.70838796  0.41624677  0.47552784  1
  P  P258  1  0.70707873  0.41623284  0.72807482  1
  P  P259  1  0.70779608  0.41578626  0.97750515  1
  P  P260  1  0.70800169  0.74831538  0.22745393  1
  P  P261  1  0.70735062  0.75159870  0.47720438  1
  P  P262  1  0.70675309  0.75142293  0.72710588  1
  P  P263  1  0.70762673  0.75104701  0.97768913  1
  P  P264  1  0.29295392  0.25242345  0.02264149  1
  P  P265  1  0.29228420  0.25229313  0.27193321  1
  P  P266  1  0.29319061  0.25069002  0.52139958  1
  P  P267  1  0.29272579  0.25169760  0.77320124  1
  P  P268  1  0.29300645  0.58192325  0.02202388  1
  P  P269  1  0.29312671  0.58315365  0.27090149  1
  P  P270  1  0.29231640  0.58172051  0.52261958  1
  P  P271  1  0.29239700  0.58168598  0.77267179  1
  P  P272  1  0.29138533  0.91666491  0.02415724  1
  P  P273  1  0.29262098  0.91697636  0.27116886  1
  P  P274  1  0.29280775  0.91661180  0.52233986  1
  P  P275  1  0.29254588  0.91535928  0.77372648  1
  P  P276  1  0.79325358  0.25022420  0.02138511  1
  P  P277  1  0.79238008  0.25074168  0.27256039  1
  P  P278  1  0.79220370  0.24902376  0.52191088  1
  P  P279  1  0.79183380  0.25081313  0.77201749  1
  P  P280  1  0.79156769  0.58345304  0.02337582  1
  P  P281  1  0.79206410  0.58177582  0.27154613  1
  P  P282  1  0.79224081  0.58310515  0.52059439  1
  P  P283  1  0.79284824  0.58387329  0.77128789  1
  P  P284  1  0.79209733  0.91751838  0.02224564  1
  P  P285  1  0.79194242  0.91490878  0.27254923  1
  P  P286  1  0.79082302  0.91589625  0.52333439  1
  P  P287  1  0.79099833  0.91525091  0.77146739  1
  O  O288  1  0.03792182  0.25070587  0.18371187  1
  O  O289  1  0.03708570  0.25112678  0.43290741  1
  O  O290  1  0.03678318  0.24972860  0.68309544  1
  O  O291  1  0.03738390  0.25161262  0.93245017  1
  O  O292  1  0.03749406  0.58297993  0.18261651  1
  O  O293  1  0.03719919  0.58440439  0.43291490  1
  O  O294  1  0.03609966  0.58254820  0.68170262  1
  O  O295  1  0.03691642  0.58142795  0.93263581  1
  O  O296  1  0.03650622  0.91607134  0.18454291  1
  O  O297  1  0.03657967  0.91676847  0.43163580  1
  O  O298  1  0.03632128  0.91649060  0.68399716  1
  O  O299  1  0.03543127  0.91630925  0.93126853  1
  O  O300  1  0.53701737  0.24863892  0.18373924  1
  O  O301  1  0.53668037  0.24944648  0.43189961  1
  O  O302  1  0.53682636  0.25000305  0.68216836  1
  O  O303  1  0.53732278  0.24980657  0.93274459  1
  O  O304  1  0.53710914  0.58369036  0.18424298  1
  O  O305  1  0.53613196  0.58398626  0.43202283  1
  O  O306  1  0.53664761  0.58235412  0.68095055  1
  O  O307  1  0.53792155  0.58259228  0.93194855  1
  O  O308  1  0.53613434  0.91673460  0.18248847  1
  O  O309  1  0.53569834  0.91688479  0.43163844  1
  O  O310  1  0.53629169  0.91667902  0.68029966  1
  O  O311  1  0.53686081  0.91659745  0.93370301  1
  O  O312  1  0.46379589  0.08338791  0.06838748  1
  O  O313  1  0.46433390  0.08382568  0.31742680  1
  O  O314  1  0.46209296  0.08355059  0.56606437  1
  O  O315  1  0.46252961  0.08340225  0.81944915  1
  O  O316  1  0.46425095  0.41603268  0.06910503  1
  O  O317  1  0.46406810  0.41827196  0.31656504  1
  O  O318  1  0.46428567  0.41706551  0.56773133  1
  O  O319  1  0.46375198  0.41614502  0.81628663  1
  O  O320  1  0.46396785  0.75105017  0.06856115  1
  O  O321  1  0.46395939  0.74978420  0.31735144  1
  O  O322  1  0.46261382  0.74914257  0.56556079  1
  O  O323  1  0.46240086  0.75066777  0.81790313  1
  O  O324  1  0.96218210  0.08230191  0.06806840  1
  O  O325  1  0.96264879  0.08395635  0.31758180  1
  O  O326  1  0.96267642  0.08354363  0.56736001  1
  O  O327  1  0.96219904  0.08267252  0.81639103  1
  O  O328  1  0.96325932  0.41655805  0.06771573  1
  O  O329  1  0.96344311  0.41720687  0.31758747  1
  O  O330  1  0.96388204  0.41740412  0.56795098  1
  O  O331  1  0.96347346  0.41811202  0.81689184  1
  O  O332  1  0.96320027  0.74912274  0.06870524  1
  O  O333  1  0.96380251  0.74881062  0.31680233  1
  O  O334  1  0.96279046  0.74972956  0.56702299  1
  O  O335  1  0.96190024  0.75043324  0.81629289  1
  O  O336  1  0.21268803  0.08318983  0.05968594  1
  O  O337  1  0.21274345  0.08340455  0.30772939  1
  O  O338  1  0.21177974  0.08376282  0.55846708  1
  O  O339  1  0.21195066  0.08386231  0.80928475  1
  O  O340  1  0.21465326  0.41713979  0.05707565  1
  O  O341  1  0.21385563  0.41625706  0.30629114  1
  O  O342  1  0.21292257  0.41660594  0.55725175  1
  O  O343  1  0.21365424  0.41801627  0.80804281  1
  O  O344  1  0.21330479  0.75166410  0.05828242  1
  O  O345  1  0.21291660  0.75047510  0.30721908  1
  O  O346  1  0.21177393  0.74889576  0.55837027  1
  O  O347  1  0.21213069  0.75023266  0.80937456  1
  O  O348  1  0.71250695  0.08214957  0.05837228  1
  O  O349  1  0.71286762  0.08142555  0.30736432  1
  O  O350  1  0.71248282  0.08333403  0.55887525  1
  O  O351  1  0.71260000  0.08325487  0.80601922  1
  O  O352  1  0.71325773  0.41663294  0.05748094  1
  O  O353  1  0.71363500  0.41728659  0.30792813  1
  O  O354  1  0.71306527  0.41619378  0.55558023  1
  O  O355  1  0.71226392  0.41588837  0.80802365  1
  O  O356  1  0.71317639  0.75004414  0.05759830  1
  O  O357  1  0.71296977  0.74894265  0.30737282  1
  O  O358  1  0.71229344  0.75185475  0.55718179  1
  O  O359  1  0.71205019  0.75156869  0.80709591  1
  O  O360  1  0.28702445  0.25240297  0.19196979  1
  O  O361  1  0.28800939  0.25113804  0.44140424  1
  O  O362  1  0.28768013  0.25110057  0.69319212  1
  O  O363  1  0.28763759  0.25241005  0.94269805  1
  O  O364  1  0.28809986  0.58289326  0.19094101  1
  O  O365  1  0.28743950  0.58210769  0.44260198  1
  O  O366  1  0.28696464  0.58148224  0.69271037  1
  O  O367  1  0.28747290  0.58183571  0.94209568  1
  O  O368  1  0.28737299  0.91704076  0.19120757  1
  O  O369  1  0.28782913  0.91676236  0.44232171  1
  O  O370  1  0.28758934  0.91583428  0.69371741  1
  O  O371  1  0.28643287  0.91612147  0.94414538  1
  O  O372  1  0.78774924  0.25057034  0.19255359  1
  O  O373  1  0.78695320  0.24974662  0.44195576  1
  O  O374  1  0.78636981  0.24990862  0.69205652  1
  O  O375  1  0.78785409  0.25069589  0.94144486  1
  O  O376  1  0.78673015  0.58200096  0.19164075  1
  O  O377  1  0.78690531  0.58261099  0.44064104  1
  O  O378  1  0.78776367  0.58386791  0.69131009  1
  O  O379  1  0.78658738  0.58365469  0.94335962  1
  O  O380  1  0.78705691  0.91566255  0.19259685  1
  O  O381  1  0.78645222  0.91576014  0.44329047  1
  O  O382  1  0.78553201  0.91535242  0.69157494  1
  O  O383  1  0.78678328  0.91682417  0.94230910  1
  O  O384  1  0.22866347  0.25238972  0.05815538  1
  O  O385  1  0.22805638  0.25239439  0.30772766  1
  O  O386  1  0.22886149  0.25085608  0.55664849  1
  O  O387  1  0.22839444  0.25220655  0.80864432  1
  O  O388  1  0.22881808  0.58194514  0.05784709  1
  O  O389  1  0.22877693  0.58282855  0.30607503  1
  O  O390  1  0.22788075  0.58099407  0.55788327  1
  O  O391  1  0.22821157  0.58192602  0.80848637  1
  O  O392  1  0.22724782  0.91661458  0.06001929  1
  O  O393  1  0.22830316  0.91677186  0.30654441  1
  O  O394  1  0.22832705  0.91651115  0.55722235  1
  O  O395  1  0.22804518  0.91499855  0.80886832  1
  O  O396  1  0.72897738  0.24986530  0.05675059  1
  O  O397  1  0.72790241  0.25096515  0.30754375  1
  O  O398  1  0.72788310  0.24837554  0.55745460  1
  O  O399  1  0.72765951  0.25168031  0.80800590  1
  O  O400  1  0.72740431  0.58351418  0.05919183  1
  O  O401  1  0.72794326  0.58145545  0.30762574  1
  O  O402  1  0.72791134  0.58342771  0.55586601  1
  O  O403  1  0.72845153  0.58365063  0.80626722  1
  O  O404  1  0.72780797  0.91760509  0.05791927  1
  O  O405  1  0.72753182  0.91436772  0.30785380  1
  O  O406  1  0.72645800  0.91580967  0.55860746  1
  O  O407  1  0.72692358  0.91472062  0.80773383  1
  O  O408  1  0.27239722  0.08322372  0.19258333  1
  O  O409  1  0.27133411  0.08394024  0.44367607  1
  O  O410  1  0.27144791  0.08376453  0.69435705  1
  O  O411  1  0.27150126  0.08351827  0.94434552  1
  O  O412  1  0.27341381  0.41746061  0.19068577  1
  O  O413  1  0.27222910  0.41491209  0.44188543  1
  O  O414  1  0.27261447  0.41879079  0.69220402  1
  O  O415  1  0.27318175  0.41678328  0.94074761  1
  O  O416  1  0.27232469  0.75138716  0.19199298  1
  O  O417  1  0.27153423  0.74962440  0.44366358  1
  O  O418  1  0.27117297  0.74903451  0.69410380  1
  O  O419  1  0.27202725  0.75158560  0.94256020  1
  O  O420  1  0.77220725  0.08081160  0.19199362  1
  O  O421  1  0.77142491  0.08290627  0.44335935  1
  O  O422  1  0.77219079  0.08382885  0.69035457  1
  O  O423  1  0.77110432  0.08295465  0.94279901  1
  O  O424  1  0.77246339  0.41818802  0.19199039  1
  O  O425  1  0.77273230  0.41630353  0.44021214  1
  O  O426  1  0.77145336  0.41639206  0.69289195  1
  O  O427  1  0.77198654  0.41509371  0.94157191  1
  O  O428  1  0.77225915  0.74834294  0.19185726  1
  O  O429  1  0.77170670  0.75127258  0.44181362  1
  O  O430  1  0.77107440  0.75184252  0.69152460  1
  O  O431  1  0.77178215  0.75180309  0.94169721  1
  O  O432  1  0.02150609  0.08208043  0.18354593  1
  O  O433  1  0.02168985  0.08521470  0.43327252  1
  O  O434  1  0.02152427  0.08198434  0.68331551  1
  O  O435  1  0.02120513  0.08295240  0.93193278  1
  O  O436  1  0.02259765  0.41531230  0.18322237  1
  O  O437  1  0.02246231  0.41833635  0.43335871  1
  O  O438  1  0.02274737  0.41670769  0.68418755  1
  O  O439  1  0.02234877  0.41899560  0.93295601  1
  O  O440  1  0.02264604  0.74942467  0.18461565  1
  O  O441  1  0.02209795  0.74817946  0.43320922  1
  O  O442  1  0.02148538  0.75073412  0.68304762  1
  O  O443  1  0.02114411  0.74956859  0.93159202  1
  O  O444  1  0.52292116  0.08359444  0.18463612  1
  O  O445  1  0.52267242  0.08411310  0.43414123  1
  O  O446  1  0.52137690  0.08348461  0.68153256  1
  O  O447  1  0.52249714  0.08395513  0.93501176  1
  O  O448  1  0.52375461  0.41673469  0.18486366  1
  O  O449  1  0.52286528  0.41835883  0.43254841  1
  O  O450  1  0.52325434  0.41684653  0.68402736  1
  O  O451  1  0.52246520  0.41601720  0.93218195  1
  O  O452  1  0.52309129  0.74986167  0.18466610  1
  O  O453  1  0.52273839  0.74951671  0.43371888  1
  O  O454  1  0.52154176  0.74966207  0.68129371  1
  O  O455  1  0.52210529  0.75177499  0.93322946  1
  O  O456  1  0.47823171  0.24796374  0.06766768  1
  O  O457  1  0.47745440  0.24890100  0.31588732  1
  O  O458  1  0.47815990  0.24880558  0.56605123  1
  O  O459  1  0.47791384  0.25136229  0.81708161  1
  O  O460  1  0.47860333  0.58356369  0.06824016  1
  O  O461  1  0.47750515  0.58454810  0.31548449  1
  O  O462  1  0.47746118  0.58332256  0.56490653  1
  O  O463  1  0.47833012  0.58132979  0.81649005  1
  O  O464  1  0.47684193  0.91590521  0.06625604  1
  O  O465  1  0.47712078  0.91722556  0.31526004  1
  O  O466  1  0.47628219  0.91699692  0.56476182  1
  O  O467  1  0.47771130  0.91682170  0.81814582  1
  O  O468  1  0.97872357  0.25028774  0.06835708  1
  O  O469  1  0.97812206  0.25197725  0.31707263  1
  O  O470  1  0.97793570  0.24909236  0.56707805  1
  O  O471  1  0.97819975  0.25191503  0.81686102  1
  O  O472  1  0.97801558  0.58132163  0.06709714  1
  O  O473  1  0.97868589  0.58468473  0.31678168  1
  O  O474  1  0.97733723  0.58340428  0.56525509  1
  O  O475  1  0.97795973  0.58163922  0.81681138  1
  O  O476  1  0.97754316  0.91596082  0.06893327  1
  O  O477  1  0.97690381  0.91660234  0.31601536  1
  O  O478  1  0.97791153  0.91661465  0.56803884  1
  O  O479  1  0.97639144  0.91676471  0.81516089  1
  O  O480  1  0.07453684  0.31326785  0.07516742  1
  O  O481  1  0.07303188  0.31539039  0.32467019  1
  O  O482  1  0.07371727  0.31234677  0.57534556  1
  O  O483  1  0.07307790  0.31545521  0.82400247  1
  O  O484  1  0.07321007  0.64565866  0.07408620  1
  O  O485  1  0.07374379  0.64798347  0.32417274  1
  O  O486  1  0.07211750  0.64710619  0.57420253  1
  O  O487  1  0.07309463  0.64554319  0.82517261  1
  O  O488  1  0.07296421  0.97939737  0.07604068  1
  O  O489  1  0.07172674  0.98076699  0.32364099  1
  O  O490  1  0.07337408  0.97996769  0.57587515  1
  O  O491  1  0.07153335  0.98026740  0.82362259  1
  O  O492  1  0.57344898  0.31189353  0.07562703  1
  O  O493  1  0.57167159  0.31356243  0.32370498  1
  O  O494  1  0.57345287  0.31267293  0.57401626  1
  O  O495  1  0.57314387  0.31392617  0.82419993  1
  O  O496  1  0.57392783  0.64681411  0.07584513  1
  O  O497  1  0.57288130  0.64755131  0.32405248  1
  O  O498  1  0.57262709  0.64672522  0.57309152  1
  O  O499  1  0.57308343  0.64614398  0.82388025  1
  O  O500  1  0.57111442  0.98037798  0.07381561  1
  O  O501  1  0.57233473  0.98049687  0.32363497  1
  O  O502  1  0.57130635  0.98058767  0.57216326  1
  O  O503  1  0.57299516  0.98046616  0.82535543  1
  O  O504  1  0.42839473  0.01931884  0.17669291  1
  O  O505  1  0.42810567  0.01999646  0.42541360  1
  O  O506  1  0.42603584  0.01988502  0.67467596  1
  O  O507  1  0.42776512  0.02000973  0.92828048  1
  O  O508  1  0.42913022  0.35267680  0.17752352  1
  O  O509  1  0.42758477  0.35471596  0.42440672  1
  O  O510  1  0.42869791  0.35273246  0.67564482  1
  O  O511  1  0.42682645  0.35322192  0.92492726  1
  O  O512  1  0.42778598  0.68678418  0.17623867  1
  O  O513  1  0.42735259  0.68649243  0.42565141  1
  O  O514  1  0.42620699  0.68618690  0.67429327  1
  O  O515  1  0.42727446  0.68700790  0.92583171  1
  O  O516  1  0.92658703  0.01844032  0.17660783  1
  O  O517  1  0.92624063  0.02118560  0.42561814  1
  O  O518  1  0.92635546  0.01905436  0.67521366  1
  O  O519  1  0.92536172  0.01996575  0.92469354  1
  O  O520  1  0.92753526  0.35206974  0.17595634  1
  O  O521  1  0.92699690  0.35465922  0.42588896  1
  O  O522  1  0.92791650  0.35309692  0.67576287  1
  O  O523  1  0.92732178  0.35460354  0.92488200  1
  O  O524  1  0.92803656  0.68500312  0.17659509  1
  O  O525  1  0.92681768  0.68538211  0.42529548  1
  O  O526  1  0.92617203  0.68676558  0.67488353  1
  O  O527  1  0.92575759  0.68638205  0.92424497  1
  O  O528  1  0.17762309  0.01922878  0.19936577  1
  O  O529  1  0.17582182  0.02021754  0.45028902  1
  O  O530  1  0.17608947  0.02017145  0.70120735  1
  O  O531  1  0.17569795  0.02035344  0.95138014  1
  O  O532  1  0.17834911  0.35341905  0.19752629  1
  O  O533  1  0.17682538  0.35224112  0.44899717  1
  O  O534  1  0.17756381  0.35445561  0.69996429  1
  O  O535  1  0.17804643  0.35353779  0.94876872  1
  O  O536  1  0.17713810  0.68726227  0.19908191  1
  O  O537  1  0.17638939  0.68556008  0.44980619  1
  O  O538  1  0.17555978  0.68612065  0.70160327  1
  O  O539  1  0.17687074  0.68759808  0.95086419  1
  O  O540  1  0.67690802  0.01780385  0.19898784  1
  O  O541  1  0.67603779  0.01950394  0.45078132  1
  O  O542  1  0.67769066  0.01944120  0.69769583  1
  O  O543  1  0.67556095  0.01964507  0.94981639  1
  O  O544  1  0.67731365  0.35394627  0.19991148  1
  O  O545  1  0.67779546  0.35232201  0.44742667  1
  O  O546  1  0.67581698  0.35308246  0.69937612  1
  O  O547  1  0.67689852  0.35210583  0.94950728  1
  O  O548  1  0.67763285  0.68451652  0.19896690  1
  O  O549  1  0.67627163  0.68787113  0.44952200  1
  O  O550  1  0.67629824  0.68734881  0.69918316  1
  O  O551  1  0.67654078  0.68756739  0.94932274  1
  O  O552  1  0.32403718  0.31567345  0.05135524  1
  O  O553  1  0.32334543  0.31550148  0.30068119  1
  O  O554  1  0.32467675  0.31385481  0.54990498  1
  O  O555  1  0.32357760  0.31538777  0.80104161  1
  O  O556  1  0.32405224  0.64583217  0.04943620  1
  O  O557  1  0.32373940  0.64693792  0.29912879  1
  O  O558  1  0.32288440  0.64543492  0.55092702  1
  O  O559  1  0.32356456  0.64546986  0.80030623  1
  O  O560  1  0.32178459  0.98082911  0.05204636  1
  O  O561  1  0.32373738  0.98039880  0.29967793  1
  O  O562  1  0.32365957  0.98015255  0.55061913  1
  O  O563  1  0.32337239  0.97907019  0.80189810  1
  O  O564  1  0.82456674  0.31342089  0.04989419  1
  O  O565  1  0.82303923  0.31430486  0.30117859  1
  O  O566  1  0.82321764  0.31261864  0.55012182  1
  O  O567  1  0.82286892  0.31441435  0.80003295  1
  O  O568  1  0.82246616  0.64713446  0.05157215  1
  O  O569  1  0.82306441  0.64543065  0.29970558  1
  O  O570  1  0.82325933  0.64680372  0.54839525  1
  O  O571  1  0.82372008  0.64743856  0.79951750  1
  O  O572  1  0.82259431  0.98124152  0.05074279  1
  O  O573  1  0.82298382  0.97821940  0.30126958  1
  O  O574  1  0.82099685  0.97996136  0.55198141  1
  O  O575  1  0.82192073  0.97911627  0.79923495  1
  O  O576  1  0.42750234  0.14649046  0.17682232  1
  O  O577  1  0.42756186  0.14731668  0.42550712  1
  O  O578  1  0.42579472  0.14649046  0.67485455  1
  O  O579  1  0.42740048  0.14744791  0.92749819  1
  O  O580  1  0.42864862  0.48023594  0.17668020  1
  O  O581  1  0.42773672  0.48160328  0.42532063  1
  O  O582  1  0.42812281  0.48020433  0.67603797  1
  O  O583  1  0.42737964  0.47984211  0.92457253  1
  O  O584  1  0.42848137  0.81404639  0.17730512  1
  O  O585  1  0.42822757  0.81371356  0.42552117  1
  O  O586  1  0.42612926  0.81291345  0.67372957  1
  O  O587  1  0.42658647  0.81420050  0.92662497  1
  O  O588  1  0.92601759  0.14562490  0.17575644  1
  O  O589  1  0.92683910  0.14847130  0.42577803  1
  O  O590  1  0.92637785  0.14614363  0.67555315  1
  O  O591  1  0.92634475  0.14700999  0.92420922  1
  O  O592  1  0.92715409  0.47912216  0.17599812  1
  O  O593  1  0.92756049  0.48166298  0.42557611  1
  O  O594  1  0.92767525  0.48055800  0.67608184  1
  O  O595  1  0.92686919  0.48145448  0.92572968  1
  O  O596  1  0.92742119  0.81251291  0.17698170  1
  O  O597  1  0.92709835  0.81234126  0.42454886  1
  O  O598  1  0.92653841  0.81389144  0.67513396  1
  O  O599  1  0.92570251  0.81321846  0.92496291  1
  O  O600  1  0.07370182  0.18635869  0.07586459  1
  O  O601  1  0.07358535  0.18827693  0.32489156  1
  O  O602  1  0.07236359  0.18516101  0.57481756  1
  O  O603  1  0.07365958  0.18821128  0.82501640  1
  O  O604  1  0.07328071  0.51851456  0.07464629  1
  O  O605  1  0.07410940  0.52119863  0.32501241  1
  O  O606  1  0.07223129  0.51960782  0.57330527  1
  O  O607  1  0.07326881  0.51859211  0.82367231  1
  O  O608  1  0.07296203  0.85273115  0.07600868  1
  O  O609  1  0.07201049  0.85311643  0.32363468  1
  O  O610  1  0.07335101  0.85334200  0.57569920  1
  O  O611  1  0.07111611  0.85263667  0.82331284  1
  O  O612  1  0.57335107  0.18492119  0.07524650  1
  O  O613  1  0.57313759  0.18620972  0.32381049  1
  O  O614  1  0.57306979  0.18563336  0.57408500  1
  O  O615  1  0.57294970  0.18686242  0.82447020  1
  O  O616  1  0.57388597  0.52005413  0.07622173  1
  O  O617  1  0.57201112  0.52033235  0.32371890  1
  O  O618  1  0.57240976  0.51945814  0.57231060  1
  O  O619  1  0.57384995  0.51891173  0.82351915  1
  O  O620  1  0.57229568  0.85309296  0.07436865  1
  O  O621  1  0.57174251  0.85330668  0.32330427  1
  O  O622  1  0.57099625  0.85314509  0.57169944  1
  O  O623  1  0.57326539  0.85377436  0.82479850  1
  O  O624  1  0.32384212  0.18866276  0.05060220  1
  O  O625  1  0.32303887  0.18830066  0.29943935  1
  O  O626  1  0.32395514  0.18707828  0.54969237  1
  O  O627  1  0.32352953  0.18809344  0.80151701  1
  O  O628  1  0.32403797  0.51870833  0.05076413  1
  O  O629  1  0.32457906  0.52010213  0.29948389  1
  O  O630  1  0.32326053  0.51819091  0.55072892  1
  O  O631  1  0.32337207  0.51847977  0.80146805  1
  O  O632  1  0.32262247  0.85339364  0.05272091  1
  O  O633  1  0.32388521  0.85366753  0.29966493  1
  O  O634  1  0.32371130  0.85299338  0.55022920  1
  O  O635  1  0.32323546  0.85178038  0.80206471  1
  O  O636  1  0.82429976  0.18660833  0.04943425  1
  O  O637  1  0.82318173  0.18697909  0.30034103  1
  O  O638  1  0.82301863  0.18555656  0.55045026  1
  O  O639  1  0.82270978  0.18718888  0.80014715  1
  O  O640  1  0.82216853  0.51956633  0.05131452  1
  O  O641  1  0.82319172  0.51854368  0.30040757  1
  O  O642  1  0.82339299  0.51985228  0.54912343  1
  O  O643  1  0.82398584  0.52052889  0.79956929  1
  O  O644  1  0.82349628  0.85423125  0.05053897  1
  O  O645  1  0.82256064  0.85114882  0.30083081  1
  O  O646  1  0.82207068  0.85264312  0.55171093  1
  O  O647  1  0.82213633  0.85212043  0.80046129  1
  O  O648  1  0.17672755  0.14654531  0.19998869  1
  O  O649  1  0.17586748  0.14716658  0.44998161  1
  O  O650  1  0.17608700  0.14734445  0.70099958  1
  O  O651  1  0.17636340  0.14728291  0.95188387  1
  O  O652  1  0.17832325  0.48071565  0.19825600  1
  O  O653  1  0.17709174  0.47923308  0.44864944  1
  O  O654  1  0.17718468  0.48128660  0.69911517  1
  O  O655  1  0.17830186  0.48069342  0.94883453  1
  O  O656  1  0.17699203  0.81443298  0.19912625  1
  O  O657  1  0.17580293  0.81263288  0.45029160  1
  O  O658  1  0.17594434  0.81298987  0.70063870  1
  O  O659  1  0.17671482  0.81478576  0.94967029  1
  O  O660  1  0.67728983  0.14523673  0.19974573  1
  O  O661  1  0.67602003  0.14615868  0.45000396  1
  O  O662  1  0.67703759  0.14710464  0.69800922  1
  O  O663  1  0.67593217  0.14641140  0.95064204  1
  O  O664  1  0.67723316  0.48086125  0.19915066  1
  O  O665  1  0.67758277  0.47987755  0.44737138  1
  O  O666  1  0.67622147  0.47986912  0.69984402  1
  O  O667  1  0.67679345  0.47938826  0.94947691  1
  O  O668  1  0.67657133  0.81158569  0.19926449  1
  O  O669  1  0.67676027  0.81494631  0.44806255  1
  O  O670  1  0.67534301  0.81437954  0.69827694  1
  O  O671  1  0.67672817  0.81472931  0.94981864  1
