# generated using pymatgen
data_Na2MnFe(PO4)2
_symmetry_space_group_name_H-M   'P 1'
_cell_length_a   22.33926914
_cell_length_b   20.08957667
_cell_length_c   19.45403387
_cell_angle_alpha   89.94723807
_cell_angle_beta   90.01296004
_cell_angle_gamma   89.98556448
_symmetry_Int_Tables_number   1
_chemical_formula_structural   Na2MnFe(PO4)2
_chemical_formula_sum   'Na96 Mn48 Fe48 P96 O384'
_cell_volume   8730.70279212
_cell_formula_units_Z   48
loop_
 _symmetry_equiv_pos_site_id
 _symmetry_equiv_pos_as_xyz
  1  'x, y, z'
loop_
 _atom_site_type_symbol
 _atom_site_label
 _atom_site_symmetry_multiplicity
 _atom_site_fract_x
 _atom_site_fract_y
 _atom_site_fract_z
 _atom_site_occupancy
  Na  Na0  1  0.13955614  0.24842966  0.24347913  1
  Na  Na1  1  0.14026469  0.24952727  0.49387819  1
  Na  Na2  1  0.14115231  0.24838122  0.74496656  1
  Na  Na3  1  0.14042654  0.24883743  0.99437129  1
  Na  Na4  1  0.14025135  0.58356282  0.24445430  1
  Na  Na5  1  0.14036337  0.58422712  0.49422867  1
  Na  Na6  1  0.13988891  0.58327406  0.74349990  1
  Na  Na7  1  0.13987649  0.58264164  0.99349280  1
  Na  Na8  1  0.14033663  0.91673582  0.24379330  1
  Na  Na9  1  0.14009262  0.91767534  0.49547979  1
  Na  Na10  1  0.13967578  0.91703323  0.74385921  1
  Na  Na11  1  0.13953739  0.91813579  0.99269201  1
  Na  Na12  1  0.64031715  0.25020597  0.24298084  1
  Na  Na13  1  0.64091068  0.24955611  0.49411901  1
  Na  Na14  1  0.64101737  0.25047647  0.74248023  1
  Na  Na15  1  0.64012019  0.24956416  0.99351455  1
  Na  Na16  1  0.64055463  0.58437118  0.24338964  1
  Na  Na17  1  0.64042202  0.58238820  0.49411582  1
  Na  Na18  1  0.64009217  0.58377858  0.74283046  1
  Na  Na19  1  0.64056654  0.58552176  0.99364752  1
  Na  Na20  1  0.64049572  0.91794239  0.24274290  1
  Na  Na21  1  0.64034143  0.91661911  0.49351798  1
  Na  Na22  1  0.64013890  0.91787909  0.74346841  1
  Na  Na23  1  0.64028380  0.91715713  0.99283850  1
  Na  Na24  1  0.36030059  0.08283510  0.00579782  1
  Na  Na25  1  0.35980082  0.08179963  0.25469378  1
  Na  Na26  1  0.35954865  0.08253485  0.50548469  1
  Na  Na27  1  0.36014809  0.08200786  0.75659553  1
  Na  Na28  1  0.35999080  0.41518123  0.00603991  1
  Na  Na29  1  0.36011479  0.41498256  0.25642754  1
  Na  Na30  1  0.36029613  0.41593011  0.50649244  1
  Na  Na31  1  0.36016661  0.41509103  0.75682291  1
  Na  Na32  1  0.35986943  0.75055312  0.00612452  1
  Na  Na33  1  0.35974354  0.75029069  0.25544768  1
  Na  Na34  1  0.35987972  0.75168589  0.50671742  1
  Na  Na35  1  0.35977371  0.74983693  0.75691555  1
  Na  Na36  1  0.85951039  0.08260644  0.00659750  1
  Na  Na37  1  0.85940358  0.08409478  0.25633118  1
  Na  Na38  1  0.85911394  0.08279466  0.50660586  1
  Na  Na39  1  0.85942777  0.08224426  0.75601901  1
  Na  Na40  1  0.85968453  0.41726400  0.00749724  1
  Na  Na41  1  0.85907883  0.41610817  0.25684499  1
  Na  Na42  1  0.85966784  0.41673920  0.50769494  1
  Na  Na43  1  0.85999109  0.41750051  0.75584048  1
  Na  Na44  1  0.85983965  0.75139727  0.00630494  1
  Na  Na45  1  0.85923929  0.75092831  0.25543818  1
  Na  Na46  1  0.85890266  0.75001728  0.50671199  1
  Na  Na47  1  0.85972091  0.75196824  0.75681637  1
  Na  Na48  1  0.10980033  0.08302225  0.11804668  1
  Na  Na49  1  0.10950570  0.08391163  0.36837036  1
  Na  Na50  1  0.10970040  0.08228900  0.61953168  1
  Na  Na51  1  0.11011167  0.08187739  0.86888298  1
  Na  Na52  1  0.10905854  0.41610896  0.11951554  1
  Na  Na53  1  0.10886959  0.41703442  0.36917707  1
  Na  Na54  1  0.10974573  0.41706637  0.62011289  1
  Na  Na55  1  0.10965446  0.41820182  0.86905291  1
  Na  Na56  1  0.10900775  0.74950600  0.11892351  1
  Na  Na57  1  0.10947303  0.75064630  0.36983785  1
  Na  Na58  1  0.10966199  0.75077800  0.61937927  1
  Na  Na59  1  0.10878119  0.75062874  0.86786801  1
  Na  Na60  1  0.60950987  0.08354580  0.11765063  1
  Na  Na61  1  0.61043552  0.08421694  0.36790325  1
  Na  Na62  1  0.61037192  0.08261101  0.61754710  1
  Na  Na63  1  0.61015612  0.08404740  0.86810988  1
  Na  Na64  1  0.60958079  0.41594862  0.11809602  1
  Na  Na65  1  0.60987853  0.41670942  0.36972518  1
  Na  Na66  1  0.60987913  0.41585427  0.61832958  1
  Na  Na67  1  0.61001006  0.41690600  0.86889634  1
  Na  Na68  1  0.60985540  0.75119735  0.11715379  1
  Na  Na69  1  0.60985779  0.75097017  0.36838611  1
  Na  Na70  1  0.60951833  0.74903540  0.61869685  1
  Na  Na71  1  0.60966462  0.75155827  0.86911787  1
  Na  Na72  1  0.39047221  0.24825693  0.13077546  1
  Na  Na73  1  0.39039458  0.25030788  0.38068979  1
  Na  Na74  1  0.39084177  0.24898050  0.63101782  1
  Na  Na75  1  0.39149685  0.24897363  0.88181538  1
  Na  Na76  1  0.39081767  0.58284017  0.13006484  1
  Na  Na77  1  0.39105788  0.58307871  0.38175996  1
  Na  Na78  1  0.39106202  0.58158927  0.63168931  1
  Na  Na79  1  0.39073309  0.58324116  0.88163474  1
  Na  Na80  1  0.39035948  0.91685058  0.13011770  1
  Na  Na81  1  0.39039977  0.91691219  0.38087459  1
  Na  Na82  1  0.39017894  0.91555187  0.63176759  1
  Na  Na83  1  0.39067420  0.91768678  0.88148342  1
  Na  Na84  1  0.88975466  0.24988189  0.13253631  1
  Na  Na85  1  0.89005961  0.24955037  0.38137992  1
  Na  Na86  1  0.89029479  0.24995814  0.63200283  1
  Na  Na87  1  0.89057666  0.25032303  0.88149072  1
  Na  Na88  1  0.89004823  0.58320695  0.13170846  1
  Na  Na89  1  0.88965116  0.58427407  0.38115878  1
  Na  Na90  1  0.89085486  0.58389113  0.63173752  1
  Na  Na91  1  0.89031790  0.58486422  0.88050200  1
  Na  Na92  1  0.89015797  0.91645241  0.13058938  1
  Na  Na93  1  0.88983251  0.91726263  0.38138421  1
  Na  Na94  1  0.88936407  0.91649133  0.63233488  1
  Na  Na95  1  0.88964276  0.91683108  0.88093607  1
  Mn  Mn96  1  0.24945901  0.33158092  0.12543402  1
  Mn  Mn97  1  0.25101907  0.66777680  0.62496682  1
  Mn  Mn98  1  0.24878021  0.83410455  0.12479507  1
  Mn  Mn99  1  0.49998167  0.83290592  0.75051222  1
  Mn  Mn100  1  0.00053703  0.33441830  0.75100132  1
  Mn  Mn101  1  0.00001106  0.16609206  0.00047090  1
  Mn  Mn102  1  -0.00004005  0.66676740  -0.00077972  1
  Mn  Mn103  1  0.74967453  0.33227398  0.37578994  1
  Mn  Mn104  1  0.50003719  0.66729807  0.25030593  1
  Mn  Mn105  1  0.50070315  0.49915678  0.24997685  1
  Mn  Mn106  1  0.50017601  0.66634531  0.50002060  1
  Mn  Mn107  1  0.24967340  -0.00028626  0.37481102  1
  Mn  Mn108  1  0.49985345  0.83461935  0.24847915  1
  Mn  Mn109  1  0.00023891  0.83290634  0.25019541  1
  Mn  Mn110  1  0.25024412  0.49934527  0.12515768  1
  Mn  Mn111  1  0.49972316  -0.00082269  0.49937561  1
  Mn  Mn112  1  0.25067244  0.16523082  0.62497490  1
  Mn  Mn113  1  0.49990144  0.16715371  0.49907379  1
  Mn  Mn114  1  0.00017790  0.16601534  0.50075662  1
  Mn  Mn115  1  0.50089335  0.16647514  0.74972164  1
  Mn  Mn116  1  0.50049306  0.49970540  -0.00028685  1
  Mn  Mn117  1  0.00003054  0.33399079  0.00054308  1
  Mn  Mn118  1  0.00029884  0.00022605  0.24994214  1
  Mn  Mn119  1  0.25073764  0.66783869  0.37512247  1
  Mn  Mn120  1  0.00013793  0.33414367  0.50070718  1
  Mn  Mn121  1  0.74959985  0.50093983  0.12529763  1
  Mn  Mn122  1  0.25040835  0.33226120  0.62555315  1
  Mn  Mn123  1  0.24955313  0.83434594  0.87558781  1
  Mn  Mn124  1  0.74982287  0.00052022  0.12497699  1
  Mn  Mn125  1  0.75114634  0.16612006  0.87416814  1
  Mn  Mn126  1  0.74998925  0.66718262  0.62538039  1
  Mn  Mn127  1  0.25026502  0.49966572  0.37524548  1
  Mn  Mn128  1  -0.00066248  0.66658459  0.50047477  1
  Mn  Mn129  1  0.74998946  0.50066124  0.87549153  1
  Mn  Mn130  1  0.24934277  0.66621073  0.87521631  1
  Mn  Mn131  1  0.50021899  0.16681515  0.24935076  1
  Mn  Mn132  1  -0.00117397  0.83400219  0.50018916  1
  Mn  Mn133  1  -0.00049825  0.50019936  0.25033949  1
  Mn  Mn134  1  0.74965101  0.83381142  0.37483777  1
  Mn  Mn135  1  0.25011158  0.33202731  0.87555746  1
  Mn  Mn136  1  0.24943176  0.33169243  0.37509773  1
  Mn  Mn137  1  0.25004257  0.66658743  0.12517391  1
  Mn  Mn138  1  0.25004347  0.49980039  0.62520597  1
  Mn  Mn139  1  0.00031869  0.16571181  0.75091522  1
  Mn  Mn140  1  0.74973395  0.50041616  0.37493440  1
  Mn  Mn141  1  0.75031346  0.33347378  0.87449232  1
  Mn  Mn142  1  0.75015586  0.66849905  0.87403554  1
  Mn  Mn143  1  0.50031983  0.49923152  0.75056807  1
  Fe  Fe144  1  0.74990511  0.66818174  0.12441993  1
  Fe  Fe145  1  -0.00069269  -0.00031360  -0.00019786  1
  Fe  Fe146  1  0.50030697  0.66701926  -0.00005390  1
  Fe  Fe147  1  -0.00006661  0.66700013  0.75006148  1
  Fe  Fe148  1  0.75058235  0.33296610  0.62481470  1
  Fe  Fe149  1  0.74992542  0.83410398  0.12488857  1
  Fe  Fe150  1  0.25082964  0.16535757  0.87504089  1
  Fe  Fe151  1  -0.00017421  0.50076219  0.75010966  1
  Fe  Fe152  1  0.24993425  0.83406818  0.37532595  1
  Fe  Fe153  1  -0.00067905  0.16660929  0.25005096  1
  Fe  Fe154  1  0.75049610  0.50004382  0.62464949  1
  Fe  Fe155  1  0.50052500  0.33330654  0.50007357  1
  Fe  Fe156  1  0.74946345  0.00005373  0.87457352  1
  Fe  Fe157  1  0.25010362  0.00001860  0.12491671  1
  Fe  Fe158  1  0.24989049  0.16553365  0.37474896  1
  Fe  Fe159  1  -0.00002477  0.50072113  0.49999643  1
  Fe  Fe160  1  0.24997053  0.16512475  0.12420802  1
  Fe  Fe161  1  0.50032429  0.49923168  0.50047894  1
  Fe  Fe162  1  0.74996291  0.00052108  0.37492953  1
  Fe  Fe163  1  0.74929100  0.83409624  0.62486596  1
  Fe  Fe164  1  0.74962479  0.83446256  0.87534035  1
  Fe  Fe165  1  0.49988023  0.83394152  -0.00073278  1
  Fe  Fe166  1  -0.00029473  -0.00004563  0.50035920  1
  Fe  Fe167  1  0.25032030  0.00011959  0.87446208  1
  Fe  Fe168  1  0.25024610  0.49930788  0.87520497  1
  Fe  Fe169  1  -0.00043573  0.50052334  0.00024422  1
  Fe  Fe170  1  0.75024160  0.16599544  0.62458424  1
  Fe  Fe171  1  0.50055230  0.00007263  0.24891644  1
  Fe  Fe172  1  -0.00033756  0.83404688  0.75011779  1
  Fe  Fe173  1  0.50067818  0.16674071  -0.00068677  1
  Fe  Fe174  1  -0.00076489  -0.00050792  0.75049238  1
  Fe  Fe175  1  0.24998784  0.83426755  0.62570657  1
  Fe  Fe176  1  0.50039528  -0.00000483  0.75020039  1
  Fe  Fe177  1  -0.00085143  0.33364547  0.25047131  1
  Fe  Fe178  1  -0.00015166  0.83364358  -0.00080458  1
  Fe  Fe179  1  0.50027347  0.83305072  0.50012396  1
  Fe  Fe180  1  -0.00038792  0.66637115  0.24974850  1
  Fe  Fe181  1  0.50004759  0.33284394  -0.00035992  1
  Fe  Fe182  1  0.24991014  -0.00018546  0.62504477  1
  Fe  Fe183  1  0.74963219  0.66728261  0.37509956  1
  Fe  Fe184  1  0.50006972  0.66647647  0.75042167  1
  Fe  Fe185  1  0.74981226  0.33304951  0.12554340  1
  Fe  Fe186  1  0.49998628  0.33341104  0.24994836  1
  Fe  Fe187  1  0.74998304  -0.00000523  0.62484077  1
  Fe  Fe188  1  0.74949162  0.16677152  0.12523156  1
  Fe  Fe189  1  0.50045217  0.00032815  -0.00051511  1
  Fe  Fe190  1  0.50063748  0.33285845  0.74991904  1
  Fe  Fe191  1  0.75012111  0.16666565  0.37530152  1
  P  P192  1  0.04212823  0.24980273  0.10432671  1
  P  P193  1  0.04087307  0.25017072  0.35171433  1
  P  P194  1  0.04304023  0.24983369  0.60378148  1
  P  P195  1  0.04308714  0.24994129  0.85373669  1
  P  P196  1  0.04191421  0.58245563  0.10260284  1
  P  P197  1  0.04203219  0.58468865  0.35284445  1
  P  P198  1  0.04228417  0.58231170  0.60328802  1
  P  P199  1  0.04116886  0.58371914  0.85180721  1
  P  P200  1  0.04128514  0.91654348  0.10113659  1
  P  P201  1  0.04267748  0.91710632  0.35355670  1
  P  P202  1  0.04115437  0.91769268  0.60356560  1
  P  P203  1  0.04104272  0.91665780  0.85238077  1
  P  P204  1  0.54135680  0.24995873  0.10144576  1
  P  P205  1  0.54240378  0.25179056  0.35229816  1
  P  P206  1  0.54243546  0.25076821  0.60244370  1
  P  P207  1  0.54302621  0.25111588  0.85272235  1
  P  P208  1  0.54259472  0.58435229  0.10216630  1
  P  P209  1  0.54302087  0.58301169  0.35359168  1
  P  P210  1  0.54242526  0.58153944  0.60288846  1
  P  P211  1  0.54251385  0.58486990  0.85289177  1
  P  P212  1  0.54153270  0.91736917  0.10096307  1
  P  P213  1  0.54256935  0.91811035  0.35183783  1
  P  P214  1  0.54211883  0.91498387  0.60264495  1
  P  P215  1  0.54206395  0.91819178  0.85316304  1
  P  P216  1  0.45856446  0.08199134  0.14608049  1
  P  P217  1  0.45742604  0.08335595  0.39589219  1
  P  P218  1  0.45829085  0.08162488  0.64746004  1
  P  P219  1  0.45950709  0.08324910  0.89776348  1
  P  P220  1  0.45797596  0.41468381  0.14697441  1
  P  P221  1  0.45866047  0.41620149  0.39827052  1
  P  P222  1  0.45818127  0.41468940  0.64720978  1
  P  P223  1  0.45828961  0.41503192  0.89716062  1
  P  P224  1  0.45750434  0.75012763  0.14543318  1
  P  P225  1  0.45785345  0.75164927  0.39754609  1
  P  P226  1  0.45797224  0.74823625  0.64775536  1
  P  P227  1  0.45872468  0.74984247  0.89805649  1
  P  P228  1  0.95762288  0.08403247  0.14738450  1
  P  P229  1  0.95763866  0.08242388  0.39758512  1
  P  P230  1  0.95761661  0.08154908  0.64776178  1
  P  P231  1  0.95755761  0.08157273  0.89739085  1
  P  P232  1  0.95699191  0.41577686  0.14780134  1
  P  P233  1  0.95726062  0.41821332  0.39774980  1
  P  P234  1  0.95808811  0.41854980  0.64759194  1
  P  P235  1  0.95753099  0.41900216  0.89763535  1
  P  P236  1  0.95781024  0.74891427  0.14707211  1
  P  P237  1  0.95648173  0.74993850  0.39682598  1
  P  P238  1  0.95834560  0.75051774  0.64895929  1
  P  P239  1  0.95775237  0.75192250  0.89651181  1
  P  P240  1  0.20801916  0.08286292  0.22649414  1
  P  P241  1  0.20731419  0.08361905  0.47754370  1
  P  P242  1  0.20816554  0.08130192  0.72820412  1
  P  P243  1  0.20883285  0.08286552  0.97691930  1
  P  P244  1  0.20699960  0.41565926  0.22836984  1
  P  P245  1  0.20701956  0.41594773  0.47835051  1
  P  P246  1  0.20769437  0.41608777  0.72915628  1
  P  P247  1  0.20772722  0.41684635  0.97759524  1
  P  P248  1  0.20685363  0.75050874  0.22870167  1
  P  P249  1  0.20806395  0.75247808  0.47830918  1
  P  P250  1  0.20775652  0.75149926  0.72763358  1
  P  P251  1  0.20639311  0.75037701  0.97813822  1
  P  P252  1  0.70750340  0.08485174  0.22795367  1
  P  P253  1  0.70862959  0.08330976  0.47710183  1
  P  P254  1  0.70856133  0.08313193  0.72626728  1
  P  P255  1  0.70817660  0.08251295  0.97713347  1
  P  P256  1  0.70766683  0.41577998  0.22742359  1
  P  P257  1  0.70817961  0.41637059  0.47919576  1
  P  P258  1  0.70896911  0.41677036  0.72610734  1
  P  P259  1  0.70766138  0.41639426  0.97880714  1
  P  P260  1  0.70814562  0.75091712  0.22652976  1
  P  P261  1  0.70748214  0.74937812  0.47766443  1
  P  P262  1  0.70758551  0.75258977  0.72767036  1
  P  P263  1  0.70819372  0.75200512  0.97796175  1
  P  P264  1  0.29219605  0.24753375  0.02220635  1
  P  P265  1  0.29179310  0.24688239  0.27187618  1
  P  P266  1  0.29314518  0.24877725  0.52150223  1
  P  P267  1  0.29315497  0.24753800  0.77302219  1
  P  P268  1  0.29266422  0.58265572  0.02129689  1
  P  P269  1  0.29344702  0.58341545  0.27211494  1
  P  P270  1  0.29346800  0.58377984  0.52211654  1
  P  P271  1  0.29232555  0.58207600  0.77295149  1
  P  P272  1  0.29175947  0.91867316  0.02200816  1
  P  P273  1  0.29223375  0.91583080  0.27214114  1
  P  P274  1  0.29157518  0.91689395  0.52336690  1
  P  P275  1  0.29223882  0.91763896  0.77200955  1
  P  P276  1  0.79134577  0.24968380  0.02365479  1
  P  P277  1  0.79157060  0.24870574  0.27207350  1
  P  P278  1  0.79182599  0.24899258  0.52333824  1
  P  P279  1  0.79321605  0.24995910  0.77063989  1
  P  P280  1  0.79216331  0.58557953  0.02261376  1
  P  P281  1  0.79152432  0.58574569  0.27208686  1
  P  P282  1  0.79225012  0.58289796  0.52254417  1
  P  P283  1  0.79231289  0.58361125  0.77127784  1
  P  P284  1  0.79173557  0.91594786  0.02195775  1
  P  P285  1  0.79197514  0.91839029  0.27239242  1
  P  P286  1  0.79103951  0.91701097  0.52308692  1
  P  P287  1  0.79072567  0.91703929  0.77270069  1
  O  O288  1  0.03651914  0.24967956  0.18420796  1
  O  O289  1  0.03613106  0.24993943  0.43172917  1
  O  O290  1  0.03807802  0.24969724  0.68371928  1
  O  O291  1  0.03775752  0.24986675  0.93365962  1
  O  O292  1  0.03672487  0.58312914  0.18250464  1
  O  O293  1  0.03688721  0.58392249  0.43277003  1
  O  O294  1  0.03690306  0.58253184  0.68316196  1
  O  O295  1  0.03648655  0.58379236  0.93175479  1
  O  O296  1  0.03657797  0.91644737  0.18110679  1
  O  O297  1  0.03735566  0.91758362  0.43344332  1
  O  O298  1  0.03574638  0.91730310  0.68344222  1
  O  O299  1  0.03582463  0.91657051  0.93225842  1
  O  O300  1  0.53643096  0.24973330  0.18134603  1
  O  O301  1  0.53726158  0.25186974  0.43222759  1
  O  O302  1  0.53749128  0.25060039  0.68239190  1
  O  O303  1  0.53742872  0.25077034  0.93257108  1
  O  O304  1  0.53750888  0.58389162  0.18212740  1
  O  O305  1  0.53769090  0.58241884  0.43353518  1
  O  O306  1  0.53729169  0.58188639  0.68280323  1
  O  O307  1  0.53712878  0.58502142  0.93279981  1
  O  O308  1  0.53680345  0.91762200  0.18092975  1
  O  O309  1  0.53749790  0.91712679  0.43173205  1
  O  O310  1  0.53705177  0.91544579  0.68253124  1
  O  O311  1  0.53649638  0.91813295  0.93297957  1
  O  O312  1  0.46419115  0.08226146  0.06625300  1
  O  O313  1  0.46274842  0.08317222  0.31599491  1
  O  O314  1  0.46299970  0.08193828  0.56751493  1
  O  O315  1  0.46448050  0.08322020  0.81782781  1
  O  O316  1  0.46317616  0.41475635  0.06704541  1
  O  O317  1  0.46367544  0.41606419  0.31828245  1
  O  O318  1  0.46372609  0.41529355  0.56734597  1
  O  O319  1  0.46368396  0.41496786  0.81727265  1
  O  O320  1  0.46279054  0.74998766  0.06553622  1
  O  O321  1  0.46286156  0.75180992  0.31759230  1
  O  O322  1  0.46311045  0.74883738  0.56787741  1
  O  O323  1  0.46355109  0.74949775  0.81807829  1
  O  O324  1  0.96250920  0.08337552  0.06744854  1
  O  O325  1  0.96292406  0.08335511  0.31766381  1
  O  O326  1  0.96289219  0.08157633  0.56783018  1
  O  O327  1  0.96276951  0.08143254  0.81746921  1
  O  O328  1  0.96202758  0.41627217  0.06790414  1
  O  O329  1  0.96251732  0.41729148  0.31780082  1
  O  O330  1  0.96338160  0.41862898  0.56767669  1
  O  O331  1  0.96297716  0.41907609  0.81771130  1
  O  O332  1  0.96317008  0.74951356  0.06717235  1
  O  O333  1  0.96164584  0.74950918  0.31692869  1
  O  O334  1  0.96258005  0.75015286  0.56897450  1
  O  O335  1  0.96304514  0.75207840  0.81667681  1
  O  O336  1  0.21383840  0.08272736  0.05682694  1
  O  O337  1  0.21287264  0.08319342  0.30645440  1
  O  O338  1  0.21252466  0.08285346  0.55742268  1
  O  O339  1  0.21363921  0.08132968  0.80804763  1
  O  O340  1  0.21238471  0.41650827  0.05758915  1
  O  O341  1  0.21198592  0.41560432  0.30832245  1
  O  O342  1  0.21223643  0.41577354  0.55833582  1
  O  O343  1  0.21317532  0.41666902  0.80909297  1
  O  O344  1  0.21134843  0.75016829  0.05809872  1
  O  O345  1  0.21230030  0.75123253  0.30863943  1
  O  O346  1  0.21360198  0.75269073  0.55826162  1
  O  O347  1  0.21233187  0.75099521  0.80760973  1
  O  O348  1  0.71301721  0.08312803  0.05703080  1
  O  O349  1  0.71275853  0.08458789  0.30779807  1
  O  O350  1  0.71400048  0.08331056  0.55696020  1
  O  O351  1  0.71347394  0.08256081  0.80618194  1
  O  O352  1  0.71289426  0.41595282  0.05872988  1
  O  O353  1  0.71269677  0.41578035  0.30738769  1
  O  O354  1  0.71394609  0.41635709  0.55903145  1
  O  O355  1  0.71367137  0.41669185  0.80616164  1
  O  O356  1  0.71356822  0.75160992  0.05782556  1
  O  O357  1  0.71307793  0.75047001  0.30652609  1
  O  O358  1  0.71269259  0.75001599  0.55755481  1
  O  O359  1  0.71294291  0.75288940  0.80759045  1
  O  O360  1  0.28649374  0.24683792  0.19192666  1
  O  O361  1  0.28778424  0.24842569  0.44156048  1
  O  O362  1  0.28810107  0.24796654  0.69306695  1
  O  O363  1  0.28716575  0.24768677  0.94229401  1
  O  O364  1  0.28825393  0.58338192  0.19212698  1
  O  O365  1  0.28852151  0.58388773  0.44216728  1
  O  O366  1  0.28764331  0.58254049  0.69294359  1
  O  O367  1  0.28712435  0.58204757  0.94135310  1
  O  O368  1  0.28686367  0.91660306  0.19225914  1
  O  O369  1  0.28639157  0.91635815  0.44342376  1
  O  O370  1  0.28707224  0.91724601  0.69211477  1
  O  O371  1  0.28669701  0.91912333  0.94207255  1
  O  O372  1  0.78598332  0.24910768  0.19223284  1
  O  O373  1  0.78648987  0.24862344  0.44340676  1
  O  O374  1  0.78792134  0.24995767  0.69077272  1
  O  O375  1  0.78682206  0.24990488  0.94360422  1
  O  O376  1  0.78596669  0.58595358  0.19216784  1
  O  O377  1  0.78704623  0.58357552  0.44261630  1
  O  O378  1  0.78703483  0.58295600  0.69137021  1
  O  O379  1  0.78707008  0.58533042  0.94264019  1
  O  O380  1  0.78678424  0.91783788  0.19251409  1
  O  O381  1  0.78622207  0.91766867  0.44315654  1
  O  O382  1  0.78555153  0.91683905  0.69284091  1
  O  O383  1  0.78632914  0.91608692  0.94211383  1
  O  O384  1  0.22788237  0.24736046  0.05783169  1
  O  O385  1  0.22751541  0.24688511  0.30767745  1
  O  O386  1  0.22880922  0.24886242  0.55685971  1
  O  O387  1  0.22877912  0.24712947  0.80840524  1
  O  O388  1  0.22835494  0.58290707  0.05674296  1
  O  O389  1  0.22899589  0.58375260  0.30713607  1
  O  O390  1  0.22896105  0.58412750  0.55695253  1
  O  O391  1  0.22780977  0.58190860  0.80785980  1
  O  O392  1  0.22744878  0.91907113  0.05762224  1
  O  O393  1  0.22796420  0.91524051  0.30796663  1
  O  O394  1  0.22744901  0.91728128  0.55958947  1
  O  O395  1  0.22795006  0.91811270  0.80774704  1
  O  O396  1  0.72706659  0.24956199  0.05925518  1
  O  O397  1  0.72750901  0.24807603  0.30842476  1
  O  O398  1  0.72778117  0.24903446  0.55965428  1
  O  O399  1  0.72893715  0.24971889  0.80622715  1
  O  O400  1  0.72783430  0.58557184  0.05808470  1
  O  O401  1  0.72743116  0.58543644  0.30827026  1
  O  O402  1  0.72801719  0.58272167  0.55826076  1
  O  O403  1  0.72804583  0.58414575  0.80676425  1
  O  O404  1  0.72762528  0.91580370  0.05819773  1
  O  O405  1  0.72774834  0.91865480  0.30819981  1
  O  O406  1  0.72685649  0.91633233  0.55895446  1
  O  O407  1  0.72672979  0.91717744  0.80921845  1
  O  O408  1  0.27229392  0.08229510  0.19061132  1
  O  O409  1  0.27161570  0.08410275  0.44179235  1
  O  O410  1  0.27234677  0.08073665  0.69211522  1
  O  O411  1  0.27299807  0.08284141  0.94068847  1
  O  O412  1  0.27148829  0.41527270  0.19347918  1
  O  O413  1  0.27148538  0.41543954  0.44337277  1
  O  O414  1  0.27200391  0.41590468  0.69369446  1
  O  O415  1  0.27218372  0.41648355  0.94255357  1
  O  O416  1  0.27115277  0.75076254  0.19323030  1
  O  O417  1  0.27226840  0.75261135  0.44231967  1
  O  O418  1  0.27226906  0.75200369  0.69267190  1
  O  O419  1  0.27092175  0.75015296  0.94338634  1
  O  O420  1  0.77171592  0.08520508  0.19195847  1
  O  O421  1  0.77259066  0.08337727  0.44041053  1
  O  O422  1  0.77274019  0.08382061  0.69037752  1
  O  O423  1  0.77247610  0.08152407  0.94151366  1
  O  O424  1  0.77195053  0.41633198  0.19199202  1
  O  O425  1  0.77214910  0.41639426  0.44292001  1
  O  O426  1  0.77318979  0.41663610  0.69045653  1
  O  O427  1  0.77200141  0.41685689  0.94341809  1
  O  O428  1  0.77236114  0.75129073  0.19059260  1
  O  O429  1  0.77172231  0.74917096  0.44184052  1
  O  O430  1  0.77179663  0.75263915  0.69179357  1
  O  O431  1  0.77228057  0.75243688  0.94174971  1
  O  O432  1  0.02196769  0.08463928  0.18281911  1
  O  O433  1  0.02192764  0.08159272  0.43336931  1
  O  O434  1  0.02187340  0.08103407  0.68357792  1
  O  O435  1  0.02184463  0.08149620  0.93304964  1
  O  O436  1  0.02126195  0.41545901  0.18351194  1
  O  O437  1  0.02159879  0.41880819  0.43345677  1
  O  O438  1  0.02228165  0.41872897  0.68355474  1
  O  O439  1  0.02181933  0.41883669  0.93343113  1
  O  O440  1  0.02198015  0.74832389  0.18315009  1
  O  O441  1  0.02080354  0.75038984  0.43222112  1
  O  O442  1  0.02264611  0.75091641  0.68433358  1
  O  O443  1  0.02188352  0.75167658  0.93264539  1
  O  O444  1  0.52258794  0.08199645  0.18258808  1
  O  O445  1  0.52172204  0.08322164  0.43136090  1
  O  O446  1  0.52273347  0.08159857  0.68274737  1
  O  O447  1  0.52360179  0.08294077  0.93377135  1
  O  O448  1  0.52232341  0.41461930  0.18264547  1
  O  O449  1  0.52280595  0.41645541  0.43444400  1
  O  O450  1  0.52236332  0.41452355  0.68343363  1
  O  O451  1  0.52249533  0.41492679  0.93306500  1
  O  O452  1  0.52175156  0.75045026  0.18117367  1
  O  O453  1  0.52223329  0.75139572  0.43300796  1
  O  O454  1  0.52225457  0.74814176  0.68354178  1
  O  O455  1  0.52284265  0.74985531  0.93401162  1
  O  O456  1  0.47729096  0.25012698  0.06526391  1
  O  O457  1  0.47812445  0.25153244  0.31653848  1
  O  O458  1  0.47814267  0.25107622  0.56682018  1
  O  O459  1  0.47885730  0.25116562  0.81652957  1
  O  O460  1  0.47831581  0.58429865  0.06659437  1
  O  O461  1  0.47873531  0.58295055  0.31807908  1
  O  O462  1  0.47824247  0.58144706  0.56696303  1
  O  O463  1  0.47826558  0.58444192  0.81704772  1
  O  O464  1  0.47736515  0.91760835  0.06511217  1
  O  O465  1  0.47820472  0.91885473  0.31621365  1
  O  O466  1  0.47780510  0.91462677  0.56690781  1
  O  O467  1  0.47801288  0.91828704  0.81678487  1
  O  O468  1  0.97794235  0.24991595  0.06844602  1
  O  O469  1  0.97663661  0.25026417  0.31594588  1
  O  O470  1  0.97861997  0.24988973  0.56868958  1
  O  O471  1  0.97871808  0.25007249  0.81854403  1
  O  O472  1  0.97763423  0.58243514  0.06680222  1
  O  O473  1  0.97770047  0.58500278  0.31715419  1
  O  O474  1  0.97800386  0.58179729  0.56727980  1
  O  O475  1  0.97699083  0.58337938  0.81597129  1
  O  O476  1  0.97699760  0.91681584  0.06551452  1
  O  O477  1  0.97835900  0.91684435  0.31814557  1
  O  O478  1  0.97699853  0.91849768  0.56734441  1
  O  O479  1  0.97693218  0.91656138  0.81604446  1
  O  O480  1  0.07347808  0.31316020  0.07602145  1
  O  O481  1  0.07162776  0.31401634  0.32384479  1
  O  O482  1  0.07398098  0.31337340  0.57560383  1
  O  O483  1  0.07417549  0.31350168  0.82590901  1
  O  O484  1  0.07341442  0.64559144  0.07414625  1
  O  O485  1  0.07259930  0.64844241  0.32450472  1
  O  O486  1  0.07301165  0.64628971  0.57534938  1
  O  O487  1  0.07123781  0.64791870  0.82328764  1
  O  O488  1  0.07203795  0.98034202  0.07306343  1
  O  O489  1  0.07395106  0.98027539  0.32481859  1
  O  O490  1  0.07250844  0.98086900  0.57491333  1
  O  O491  1  0.07186220  0.98036294  0.82402259  1
  O  O492  1  0.57264495  0.31334673  0.07335752  1
  O  O493  1  0.57315847  0.31519082  0.32342275  1
  O  O494  1  0.57354715  0.31395269  0.57370512  1
  O  O495  1  0.57403820  0.31447811  0.82404848  1
  O  O496  1  0.57325402  0.64801379  0.07388388  1
  O  O497  1  0.57375340  0.64692335  0.32578254  1
  O  O498  1  0.57375595  0.64503420  0.57496926  1
  O  O499  1  0.57320053  0.64831294  0.82403032  1
  O  O500  1  0.57307633  0.98056356  0.07273841  1
  O  O501  1  0.57341948  0.98173224  0.32353011  1
  O  O502  1  0.57326981  0.97843441  0.57444856  1
  O  O503  1  0.57302575  0.98155062  0.82423042  1
  O  O504  1  0.42775891  0.01847553  0.17477470  1
  O  O505  1  0.42589283  0.02023491  0.42432373  1
  O  O506  1  0.42781773  0.01797323  0.67609797  1
  O  O507  1  0.42789308  0.02010344  0.92594884  1
  O  O508  1  0.42707232  0.35133566  0.17582749  1
  O  O509  1  0.42776020  0.35254785  0.42645688  1
  O  O510  1  0.42723954  0.35118671  0.67567898  1
  O  O511  1  0.42711528  0.35181077  0.92577356  1
  O  O512  1  0.42644018  0.68683058  0.17431989  1
  O  O513  1  0.42661414  0.68803909  0.42510760  1
  O  O514  1  0.42746425  0.68445935  0.67621201  1
  O  O515  1  0.42747217  0.68659952  0.92657892  1
  O  O516  1  0.92657068  0.02044165  0.17549858  1
  O  O517  1  0.92663657  0.01885777  0.42572950  1
  O  O518  1  0.92619208  0.01849795  0.67648133  1
  O  O519  1  0.92661392  0.01825815  0.92618779  1
  O  O520  1  0.92633351  0.35217585  0.17647969  1
  O  O521  1  0.92633232  0.35462103  0.42612959  1
  O  O522  1  0.92737544  0.35451949  0.67524787  1
  O  O523  1  0.92640551  0.35518626  0.92522023  1
  O  O524  1  0.92705423  0.68527722  0.17543808  1
  O  O525  1  0.92545864  0.68673204  0.42570787  1
  O  O526  1  0.92824513  0.68648643  0.67757771  1
  O  O527  1  0.92638965  0.68833959  0.92432552  1
  O  O528  1  0.17719012  0.01907594  0.19846746  1
  O  O529  1  0.17632142  0.02017148  0.44916564  1
  O  O530  1  0.17689474  0.01825856  0.69920384  1
  O  O531  1  0.17783425  0.01943958  0.94827114  1
  O  O532  1  0.17586366  0.35224493  0.20024079  1
  O  O533  1  0.17554596  0.35274040  0.45017049  1
  O  O534  1  0.17676931  0.35222974  0.70163582  1
  O  O535  1  0.17632741  0.35335999  0.94992824  1
  O  O536  1  0.17620841  0.68661286  0.20092845  1
  O  O537  1  0.17717687  0.68849586  0.45092470  1
  O  O538  1  0.17712153  0.68775781  0.69944792  1
  O  O539  1  0.17513696  0.68714750  0.94976008  1
  O  O540  1  0.67654102  0.02127964  0.19958666  1
  O  O541  1  0.67772823  0.01965822  0.44876065  1
  O  O542  1  0.67820188  0.01940795  0.69737158  1
  O  O543  1  0.67711895  0.01910057  0.94875296  1
  O  O544  1  0.67752955  0.35194383  0.19880383  1
  O  O545  1  0.67684470  0.35291069  0.45114897  1
  O  O546  1  0.67826744  0.35301095  0.69795108  1
  O  O547  1  0.67667831  0.35316800  0.94996759  1
  O  O548  1  0.67726011  0.68750877  0.19782399  1
  O  O549  1  0.67689500  0.68564659  0.44941620  1
  O  O550  1  0.67678650  0.68855589  0.70033478  1
  O  O551  1  0.67714982  0.68846095  0.94965805  1
  O  O552  1  0.32298888  0.31130762  0.05021585  1
  O  O553  1  0.32276332  0.31072052  0.29952021  1
  O  O554  1  0.32412912  0.31231225  0.54970202  1
  O  O555  1  0.32396837  0.31115903  0.80109723  1
  O  O556  1  0.32365788  0.64641234  0.04891754  1
  O  O557  1  0.32469758  0.64681031  0.30010848  1
  O  O558  1  0.32460200  0.64722539  0.55026580  1
  O  O559  1  0.32330863  0.64577330  0.80078980  1
  O  O560  1  0.32312933  0.98153332  0.05109904  1
  O  O561  1  0.32311116  0.97943277  0.30038151  1
  O  O562  1  0.32237442  0.98082397  0.55099112  1
  O  O563  1  0.32337207  0.98088600  0.80072746  1
  O  O564  1  0.82185027  0.31345512  0.05214913  1
  O  O565  1  0.82248821  0.31241084  0.30020759  1
  O  O566  1  0.82250213  0.31299360  0.55102904  1
  O  O567  1  0.82429238  0.31330813  0.79930428  1
  O  O568  1  0.82283769  0.64923859  0.05074721  1
  O  O569  1  0.82224861  0.64911346  0.30088326  1
  O  O570  1  0.82360936  0.64624571  0.55077632  1
  O  O571  1  0.82341892  0.64742000  0.79866577  1
  O  O572  1  0.82292237  0.97947101  0.05003673  1
  O  O573  1  0.82266253  0.98201475  0.30079696  1
  O  O574  1  0.82145373  0.98067908  0.55202811  1
  O  O575  1  0.82149870  0.98077811  0.80106727  1
  O  O576  1  0.42722978  0.14548032  0.17402793  1
  O  O577  1  0.42663955  0.14705734  0.42403612  1
  O  O578  1  0.42725618  0.14522239  0.67539457  1
  O  O579  1  0.42935198  0.14738870  0.92605537  1
  O  O580  1  0.42711883  0.47849154  0.17484514  1
  O  O581  1  0.42795949  0.48001505  0.42643568  1
  O  O582  1  0.42699111  0.47815898  0.67558096  1
  O  O583  1  0.42744901  0.47895384  0.92473596  1
  O  O584  1  0.42618884  0.81364003  0.17348486  1
  O  O585  1  0.42752542  0.81533274  0.42633410  1
  O  O586  1  0.42670856  0.81159061  0.67604076  1
  O  O587  1  0.42840659  0.81417086  0.92577843  1
  O  O588  1  0.92682155  0.14753800  0.17603312  1
  O  O589  1  0.92675250  0.14598028  0.42594887  1
  O  O590  1  0.92708989  0.14560553  0.67545954  1
  O  O591  1  0.92651189  0.14537729  0.92496278  1
  O  O592  1  0.92574828  0.47925577  0.17579912  1
  O  O593  1  0.92645355  0.48191038  0.42570358  1
  O  O594  1  0.92688865  0.48167908  0.67627900  1
  O  O595  1  0.92672756  0.48239218  0.92642287  1
  O  O596  1  0.92680443  0.81256848  0.17500989  1
  O  O597  1  0.92528713  0.81352334  0.42480264  1
  O  O598  1  0.92703888  0.81401041  0.67669645  1
  O  O599  1  0.92703986  0.81528643  0.92573033  1
  O  O600  1  0.07341819  0.18647696  0.07582344  1
  O  O601  1  0.07143787  0.18630697  0.32354074  1
  O  O602  1  0.07405426  0.18632756  0.57558876  1
  O  O603  1  0.07406203  0.18633625  0.82584565  1
  O  O604  1  0.07225386  0.51847115  0.07441505  1
  O  O605  1  0.07330414  0.52130732  0.32463660  1
  O  O606  1  0.07344989  0.51921557  0.57432458  1
  O  O607  1  0.07263031  0.52051309  0.82364405  1
  O  O608  1  0.07184757  0.85274515  0.07293814  1
  O  O609  1  0.07367486  0.85349597  0.32556072  1
  O  O610  1  0.07189720  0.85387928  0.57547245  1
  O  O611  1  0.07219419  0.85325989  0.82381261  1
  O  O612  1  0.57176999  0.18597257  0.07298040  1
  O  O613  1  0.57346697  0.18808517  0.32451957  1
  O  O614  1  0.57306022  0.18679397  0.57453670  1
  O  O615  1  0.57421992  0.18752440  0.82463076  1
  O  O616  1  0.57373098  0.52072295  0.07436753  1
  O  O617  1  0.57448970  0.51994111  0.32500794  1
  O  O618  1  0.57304106  0.51787712  0.57443179  1
  O  O619  1  0.57378959  0.52113846  0.82540192  1
  O  O620  1  0.57159326  0.85318846  0.07267184  1
  O  O621  1  0.57352496  0.85465696  0.32328462  1
  O  O622  1  0.57263587  0.85124885  0.57411053  1
  O  O623  1  0.57324659  0.85453781  0.82541633  1
  O  O624  1  0.32317058  0.18411525  0.05070587  1
  O  O625  1  0.32275727  0.18352092  0.30052682  1
  O  O626  1  0.32446676  0.18546671  0.54988110  1
  O  O627  1  0.32401775  0.18391186  0.80116779  1
  O  O628  1  0.32405431  0.51940909  0.04973797  1
  O  O629  1  0.32424439  0.51966060  0.30008938  1
  O  O630  1  0.32421709  0.52009214  0.55027164  1
  O  O631  1  0.32292701  0.51838658  0.80148114  1
  O  O632  1  0.32225919  0.85442803  0.04933520  1
  O  O633  1  0.32326600  0.85240084  0.30054598  1
  O  O634  1  0.32247681  0.85348816  0.55217291  1
  O  O635  1  0.32321709  0.85403599  0.80054507  1
  O  O636  1  0.82214078  0.18585220  0.05158793  1
  O  O637  1  0.82292525  0.18552724  0.30079425  1
  O  O638  1  0.82299868  0.18553406  0.55156234  1
  O  O639  1  0.82444898  0.18656993  0.79927262  1
  O  O640  1  0.82321140  0.52193300  0.05054667  1
  O  O641  1  0.82271870  0.52182143  0.29938960  1
  O  O642  1  0.82288381  0.51912975  0.55087118  1
  O  O643  1  0.82344261  0.52044865  0.80015062  1
  O  O644  1  0.82271718  0.85262642  0.05092423  1
  O  O645  1  0.82319151  0.85489314  0.30052823  1
  O  O646  1  0.82215815  0.85331527  0.55099044  1
  O  O647  1  0.82186324  0.85362418  0.80131479  1
  O  O648  1  0.17733729  0.14638010  0.19770662  1
  O  O649  1  0.17651270  0.14725193  0.44918249  1
  O  O650  1  0.17727358  0.14515318  0.70034685  1
  O  O651  1  0.17803797  0.14660444  0.94848173  1
  O  O652  1  0.17617924  0.47934684  0.20031777  1
  O  O653  1  0.17639922  0.47981853  0.45046447  1
  O  O654  1  0.17635126  0.47925481  0.70047953  1
  O  O655  1  0.17753067  0.48069080  0.94886482  1
  O  O656  1  0.17517163  0.81348865  0.20000513  1
  O  O657  1  0.17690848  0.81572524  0.44966187  1
  O  O658  1  0.17689963  0.81506888  0.69934383  1
  O  O659  1  0.17573366  0.81417932  0.95017232  1
  O  O660  1  0.67640010  0.14809060  0.19889585  1
  O  O661  1  0.67757359  0.14695744  0.44883300  1
  O  O662  1  0.67728300  0.14666943  0.69828159  1
  O  O663  1  0.67759220  0.14621012  0.94859846  1
  O  O664  1  0.67603628  0.47924493  0.19993405  1
  O  O665  1  0.67677848  0.47967329  0.45079355  1
  O  O666  1  0.67820506  0.48063465  0.69820100  1
  O  O667  1  0.67651323  0.48012457  0.95098928  1
  O  O668  1  0.67747758  0.81496353  0.19873102  1
  O  O669  1  0.67632868  0.81281836  0.44925377  1
  O  O670  1  0.67640261  0.81567764  0.69874940  1
  O  O671  1  0.67699457  0.81535968  0.94941236  1
