# generated using pymatgen
data_Na2MnFe(PO4)2
_symmetry_space_group_name_H-M   'P 1'
_cell_length_a   22.34696138
_cell_length_b   20.09609878
_cell_length_c   19.44671991
_cell_angle_alpha   89.98433269
_cell_angle_beta   90.01480891
_cell_angle_gamma   89.99992779
_symmetry_Int_Tables_number   1
_chemical_formula_structural   Na2MnFe(PO4)2
_chemical_formula_sum   'Na96 Mn48 Fe48 P96 O384'
_cell_volume   8733.26349106
_cell_formula_units_Z   48
loop_
 _symmetry_equiv_pos_site_id
 _symmetry_equiv_pos_as_xyz
  1  'x, y, z'
loop_
 _atom_site_type_symbol
 _atom_site_label
 _atom_site_symmetry_multiplicity
 _atom_site_fract_x
 _atom_site_fract_y
 _atom_site_fract_z
 _atom_site_occupancy
  Na  Na0  1  0.14016423  0.24826256  0.24351173  1
  Na  Na1  1  0.14041286  0.24915253  0.49418440  1
  Na  Na2  1  0.14038732  0.25003300  0.74344531  1
  Na  Na3  1  0.14040133  0.24941545  0.99400960  1
  Na  Na4  1  0.14014832  0.58392284  0.24342706  1
  Na  Na5  1  0.14016817  0.58448329  0.49397365  1
  Na  Na6  1  0.14037535  0.58363818  0.74311574  1
  Na  Na7  1  0.14028821  0.58426098  0.99276227  1
  Na  Na8  1  0.14084927  0.91710751  0.24325238  1
  Na  Na9  1  0.14069298  0.91793799  0.49349866  1
  Na  Na10  1  0.14007378  0.91652195  0.74248807  1
  Na  Na11  1  0.14064714  0.91694192  0.99226932  1
  Na  Na12  1  0.64037502  0.24951716  0.24331166  1
  Na  Na13  1  0.64018770  0.24982208  0.49407890  1
  Na  Na14  1  0.64029828  0.24796756  0.74457847  1
  Na  Na15  1  0.64049574  0.24785402  0.99468182  1
  Na  Na16  1  0.64007830  0.58355482  0.24527446  1
  Na  Na17  1  0.63954548  0.58381162  0.49409841  1
  Na  Na18  1  0.63958436  0.58328628  0.74318446  1
  Na  Na19  1  0.64041327  0.58323931  0.99380605  1
  Na  Na20  1  0.63990611  0.91781551  0.24325128  1
  Na  Na21  1  0.64049001  0.91804913  0.49378214  1
  Na  Na22  1  0.64008060  0.91644776  0.74485876  1
  Na  Na23  1  0.64005154  0.91769724  0.99312004  1
  Na  Na24  1  0.35949808  0.08352742  0.00691663  1
  Na  Na25  1  0.35991623  0.08196521  0.25687191  1
  Na  Na26  1  0.36006263  0.08347909  0.50676038  1
  Na  Na27  1  0.35942444  0.08386568  0.75656099  1
  Na  Na28  1  0.35885697  0.41599953  0.00608975  1
  Na  Na29  1  0.35939134  0.41566752  0.25675892  1
  Na  Na30  1  0.35931592  0.41706354  0.50762417  1
  Na  Na31  1  0.35941716  0.41653954  0.75688830  1
  Na  Na32  1  0.35947502  0.75137517  0.00526199  1
  Na  Na33  1  0.35918417  0.75050533  0.25607170  1
  Na  Na34  1  0.35933301  0.75053374  0.50694226  1
  Na  Na35  1  0.35999146  0.75042004  0.75619302  1
  Na  Na36  1  0.86004958  0.08280418  0.00519203  1
  Na  Na37  1  0.86056510  0.08324085  0.25571738  1
  Na  Na38  1  0.86044714  0.08343088  0.50555822  1
  Na  Na39  1  0.86007365  0.08172751  0.75675411  1
  Na  Na40  1  0.85941518  0.41541880  0.00610992  1
  Na  Na41  1  0.85938680  0.41691862  0.25650788  1
  Na  Na42  1  0.86014004  0.41697878  0.50637679  1
  Na  Na43  1  0.85984262  0.41536375  0.75674915  1
  Na  Na44  1  0.86032851  0.75041747  0.00626930  1
  Na  Na45  1  0.85985195  0.74985856  0.25486381  1
  Na  Na46  1  0.85956000  0.75067111  0.50556642  1
  Na  Na47  1  0.86005547  0.75091735  0.75708656  1
  Na  Na48  1  0.11102581  0.08234677  0.11851008  1
  Na  Na49  1  0.11053523  0.08374298  0.36748959  1
  Na  Na50  1  0.11011183  0.08396246  0.61872208  1
  Na  Na51  1  0.10974229  0.08354845  0.86708438  1
  Na  Na52  1  0.10913576  0.41635949  0.11894569  1
  Na  Na53  1  0.10946479  0.41726927  0.36900331  1
  Na  Na54  1  0.10969267  0.41621197  0.61979143  1
  Na  Na55  1  0.10933355  0.41553500  0.86797876  1
  Na  Na56  1  0.10993278  0.74911964  0.11749153  1
  Na  Na57  1  0.10984601  0.75116521  0.36852599  1
  Na  Na58  1  0.11018455  0.75112189  0.61836002  1
  Na  Na59  1  0.11014288  0.75002665  0.86728579  1
  Na  Na60  1  0.61001096  0.08197870  0.11761849  1
  Na  Na61  1  0.60983699  0.08466834  0.36868810  1
  Na  Na62  1  0.60978459  0.08317862  0.61888411  1
  Na  Na63  1  0.61009058  0.08210963  0.86951420  1
  Na  Na64  1  0.60925678  0.41533266  0.11931571  1
  Na  Na65  1  0.60889084  0.41717617  0.36968855  1
  Na  Na66  1  0.60879289  0.41752124  0.61921675  1
  Na  Na67  1  0.60900829  0.41672132  0.86931839  1
  Na  Na68  1  0.60916501  0.75068054  0.11875217  1
  Na  Na69  1  0.60927813  0.75029563  0.36920839  1
  Na  Na70  1  0.60932044  0.75014500  0.61909199  1
  Na  Na71  1  0.60924044  0.75003815  0.86825865  1
  Na  Na72  1  0.39017189  0.24771354  0.13160487  1
  Na  Na73  1  0.39020673  0.24997526  0.38237741  1
  Na  Na74  1  0.38965618  0.25017256  0.63188494  1
  Na  Na75  1  0.38941399  0.24914174  0.88219345  1
  Na  Na76  1  0.38988967  0.58329354  0.13087459  1
  Na  Na77  1  0.39022689  0.58381048  0.38179539  1
  Na  Na78  1  0.39048721  0.58470033  0.63212858  1
  Na  Na79  1  0.38999002  0.58510437  0.88065401  1
  Na  Na80  1  0.38998809  0.91716646  0.13107683  1
  Na  Na81  1  0.38993993  0.91751120  0.38215601  1
  Na  Na82  1  0.39035761  0.91598407  0.63081364  1
  Na  Na83  1  0.39010474  0.91657597  0.88164120  1
  Na  Na84  1  0.89065833  0.24838093  0.13231952  1
  Na  Na85  1  0.89063590  0.24972403  0.38047779  1
  Na  Na86  1  0.89114385  0.24981800  0.63198264  1
  Na  Na87  1  0.89043189  0.24908138  0.88068512  1
  Na  Na88  1  0.89023218  0.58292370  0.13136237  1
  Na  Na89  1  0.89036529  0.58435439  0.38070995  1
  Na  Na90  1  0.89074466  0.58308924  0.63097950  1
  Na  Na91  1  0.89085579  0.58312556  0.88126109  1
  Na  Na92  1  0.89085726  0.91603404  0.13031395  1
  Na  Na93  1  0.89084058  0.91762489  0.38017750  1
  Na  Na94  1  0.89070703  0.91827800  0.63195508  1
  Na  Na95  1  0.89053746  0.91593030  0.88110611  1
  Mn  Mn96  1  0.00058291  0.16614987  0.50008384  1
  Mn  Mn97  1  0.00002257  0.33251975  -0.00044590  1
  Mn  Mn98  1  0.50012375  0.49909516  0.25070018  1
  Mn  Mn99  1  0.24978868  0.00059803  0.87437944  1
  Mn  Mn100  1  0.00046265  0.33408183  0.50048924  1
  Mn  Mn101  1  0.49917734  0.83454879  0.25011114  1
  Mn  Mn102  1  0.00073001  0.16594591  -0.00009372  1
  Mn  Mn103  1  0.24977847  0.33199470  0.12580445  1
  Mn  Mn104  1  0.75052145  0.66710547  0.87535741  1
  Mn  Mn105  1  0.24926587  0.33200425  0.37571470  1
  Mn  Mn106  1  0.49900949  -0.00064871  0.74999498  1
  Mn  Mn107  1  0.00013080  0.66669198  0.74951904  1
  Mn  Mn108  1  0.49999253  0.16621113  0.25062427  1
  Mn  Mn109  1  -0.00030212  0.66704062  0.50024113  1
  Mn  Mn110  1  0.75006826  0.49974549  0.62511382  1
  Mn  Mn111  1  0.75003391  0.33222915  0.62526771  1
  Mn  Mn112  1  0.74946988  0.49920396  0.87513057  1
  Mn  Mn113  1  0.24933918  0.50038055  0.12466039  1
  Mn  Mn114  1  0.74902437  0.33132842  0.87630062  1
  Mn  Mn115  1  0.00030994  0.83329329  0.24938772  1
  Mn  Mn116  1  0.75054748  0.83360158  0.37452630  1
  Mn  Mn117  1  0.00007174  -0.00126900  -0.00107426  1
  Mn  Mn118  1  0.74977617  0.33279772  0.37475395  1
  Mn  Mn119  1  0.50036399  0.66745541  -0.00001169  1
  Mn  Mn120  1  0.49933053  0.16608333  0.75040317  1
  Mn  Mn121  1  0.25020400  0.00006605  0.62482818  1
  Mn  Mn122  1  0.74977240  0.83419243  0.62513952  1
  Mn  Mn123  1  0.49931649  0.49991696  0.00015413  1
  Mn  Mn124  1  0.75056156  0.00123502  0.37384685  1
  Mn  Mn125  1  0.24963349  0.83389333  0.12452940  1
  Mn  Mn126  1  -0.00000343  0.83510756  0.49892105  1
  Mn  Mn127  1  0.24964776  0.50024067  0.87487384  1
  Mn  Mn128  1  0.24988870  0.50031747  0.62577568  1
  Mn  Mn129  1  0.74921648  0.83432763  0.12526740  1
  Mn  Mn130  1  0.49907269  0.33219704  -0.00034446  1
  Mn  Mn131  1  0.50017477  0.83368911  0.50016395  1
  Mn  Mn132  1  0.49940749  0.33387153  0.50097784  1
  Mn  Mn133  1  0.75012353  0.66708525  0.62559995  1
  Mn  Mn134  1  0.25016986  0.66787075  0.37479474  1
  Mn  Mn135  1  0.50007800  0.33364567  0.75053692  1
  Mn  Mn136  1  0.75031296  0.33266395  0.12514760  1
  Mn  Mn137  1  -0.00072279  0.49983703  0.00012603  1
  Mn  Mn138  1  0.75078602  0.16512923  0.62468714  1
  Mn  Mn139  1  0.00019719  0.50064112  0.24954330  1
  Mn  Mn140  1  0.49966433  0.66677552  0.24999776  1
  Mn  Mn141  1  0.25010130  0.50030427  0.37559616  1
  Mn  Mn142  1  0.74918821  0.66653219  0.12494063  1
  Mn  Mn143  1  0.74973769  0.50081255  0.37577142  1
  Fe  Fe144  1  0.25008640  0.66753455  0.87415710  1
  Fe  Fe145  1  0.24970432  0.33276792  0.87534110  1
  Fe  Fe146  1  0.75020733  0.16647105  0.37458918  1
  Fe  Fe147  1  0.00001075  0.83330957  0.74982550  1
  Fe  Fe148  1  0.24987668  0.66761536  0.62480211  1
  Fe  Fe149  1  0.74989427  0.66711745  0.37493321  1
  Fe  Fe150  1  0.00051909  -0.00043337  0.74958500  1
  Fe  Fe151  1  0.50032981  0.00022737  0.25003347  1
  Fe  Fe152  1  0.49914376  0.50063645  0.50029248  1
  Fe  Fe153  1  0.00053289  0.66631776  -0.00079852  1
  Fe  Fe154  1  0.75018262  -0.00050396  0.62570172  1
  Fe  Fe155  1  0.24966411  0.16710805  0.87520479  1
  Fe  Fe156  1  0.49973786  0.83357144  -0.00029529  1
  Fe  Fe157  1  0.24983311  0.83346723  0.87405146  1
  Fe  Fe158  1  0.25047494  0.00011685  0.12527029  1
  Fe  Fe159  1  0.74965565  0.83412658  0.87560694  1
  Fe  Fe160  1  0.49912575  0.50073626  0.74965807  1
  Fe  Fe161  1  0.25022404  0.00012887  0.37512220  1
  Fe  Fe162  1  0.25034749  0.83345502  0.62457713  1
  Fe  Fe163  1  -0.00015850  0.33347082  0.74955945  1
  Fe  Fe164  1  0.75034340  0.16576470  0.12434272  1
  Fe  Fe165  1  0.49944885  0.66693020  0.50073770  1
  Fe  Fe166  1  0.00061362  0.16611307  0.25026033  1
  Fe  Fe167  1  0.24991633  0.33283110  0.62576511  1
  Fe  Fe168  1  0.00114119  -0.00038845  0.24931900  1
  Fe  Fe169  1  0.00101808  0.83265560  -0.00044850  1
  Fe  Fe170  1  0.75052006  0.16516655  0.87495471  1
  Fe  Fe171  1  0.74979654  0.50009020  0.12563209  1
  Fe  Fe172  1  0.25028551  0.16591324  0.12476910  1
  Fe  Fe173  1  0.00033983  0.00082593  0.50000890  1
  Fe  Fe174  1  0.50034548  0.83339545  0.75007356  1
  Fe  Fe175  1  0.49970283  -0.00062339  0.00007958  1
  Fe  Fe176  1  0.24963738  0.83382548  0.37483410  1
  Fe  Fe177  1  0.00004914  0.49981217  0.75037397  1
  Fe  Fe178  1  0.50039301  0.00054831  0.50055124  1
  Fe  Fe179  1  0.75013125  -0.00031979  0.87530623  1
  Fe  Fe180  1  -0.00000539  0.16638524  0.74945764  1
  Fe  Fe181  1  0.25082681  0.16600039  0.37534547  1
  Fe  Fe182  1  0.00018402  0.50019875  0.49985932  1
  Fe  Fe183  1  0.50009924  0.66680590  0.74988662  1
  Fe  Fe184  1  0.25019856  0.66723634  0.12450940  1
  Fe  Fe185  1  -0.00018113  0.33350076  0.25028323  1
  Fe  Fe186  1  0.00019440  0.66697745  0.24962409  1
  Fe  Fe187  1  0.50028555  0.16711089  0.49991223  1
  Fe  Fe188  1  0.50011098  0.16559516  0.00107408  1
  Fe  Fe189  1  0.25004563  0.16670821  0.62541287  1
  Fe  Fe190  1  0.75077065  0.00056472  0.12414700  1
  Fe  Fe191  1  0.49950669  0.33278805  0.25069588  1
  P  P192  1  0.04261295  0.24952666  0.10410724  1
  P  P193  1  0.04161687  0.25025370  0.35157241  1
  P  P194  1  0.04247195  0.25007118  0.60398856  1
  P  P195  1  0.04132015  0.24984738  0.85080124  1
  P  P196  1  0.04227602  0.58452336  0.10229063  1
  P  P197  1  0.04257456  0.58492733  0.35254620  1
  P  P198  1  0.04210450  0.58189338  0.60289880  1
  P  P199  1  0.04226957  0.58259589  0.85250143  1
  P  P200  1  0.04279426  0.91508869  0.10197799  1
  P  P201  1  0.04280875  0.91841512  0.35218083  1
  P  P202  1  0.04240081  0.91866748  0.60282417  1
  P  P203  1  0.04176062  0.91600057  0.85133429  1
  P  P204  1  0.54202122  0.24831570  0.10312900  1
  P  P205  1  0.54205589  0.25106254  0.35323869  1
  P  P206  1  0.54203431  0.24906155  0.60281409  1
  P  P207  1  0.54221484  0.24900611  0.85405566  1
  P  P208  1  0.54275951  0.58307637  0.10323019  1
  P  P209  1  0.54197912  0.58351899  0.35443226  1
  P  P210  1  0.54081872  0.58367393  0.60255481  1
  P  P211  1  0.54116920  0.58331807  0.85145459  1
  P  P212  1  0.54128245  0.91657006  0.10160660  1
  P  P213  1  0.54209051  0.91889862  0.35298648  1
  P  P214  1  0.54231993  0.91766085  0.60286448  1
  P  P215  1  0.54143006  0.91542224  0.85330543  1
  P  P216  1  0.45822792  0.08162073  0.14721975  1
  P  P217  1  0.45886121  0.08343476  0.39852351  1
  P  P218  1  0.45702667  0.08316488  0.64610776  1
  P  P219  1  0.45832129  0.08294016  0.89904913  1
  P  P220  1  0.45715705  0.41452523  0.14797478  1
  P  P221  1  0.45702666  0.41762541  0.39799122  1
  P  P222  1  0.45740950  0.41837219  0.64754835  1
  P  P223  1  0.45644648  0.41713023  0.89640409  1
  P  P224  1  0.45688136  0.75090907  0.14644539  1
  P  P225  1  0.45741940  0.74940657  0.39812057  1
  P  P226  1  0.45896112  0.75024786  0.64829691  1
  P  P227  1  0.45806001  0.75142095  0.89658909  1
  P  P228  1  0.95970667  0.08259573  0.14820083  1
  P  P229  1  0.95874667  0.08231608  0.39636799  1
  P  P230  1  0.95902951  0.08280305  0.64810186  1
  P  P231  1  0.95817930  0.08278805  0.89549649  1
  P  P232  1  0.95733769  0.41542309  0.14775874  1
  P  P233  1  0.95806225  0.41788761  0.39720719  1
  P  P234  1  0.95840932  0.41727051  0.64832935  1
  P  P235  1  0.95723299  0.41625679  0.89595231  1
  P  P236  1  0.95831103  0.74843418  0.14616842  1
  P  P237  1  0.95742957  0.75048475  0.39610033  1
  P  P238  1  0.95786738  0.75169268  0.64740524  1
  P  P239  1  0.95911995  0.75019721  0.89766885  1
  P  P240  1  0.20939885  0.08310064  0.22730274  1
  P  P241  1  0.20898989  0.08347984  0.47692234  1
  P  P242  1  0.20817286  0.08478295  0.72761378  1
  P  P243  1  0.20760197  0.08477481  0.97754580  1
  P  P244  1  0.20693484  0.41616355  0.22833083  1
  P  P245  1  0.20747905  0.41619635  0.47925194  1
  P  P246  1  0.20815190  0.41506284  0.72830061  1
  P  P247  1  0.20740048  0.41538840  0.97733914  1
  P  P248  1  0.20766596  0.74955493  0.22697947  1
  P  P249  1  0.20772535  0.75207623  0.47794483  1
  P  P250  1  0.20878109  0.75050190  0.72672579  1
  P  P251  1  0.20873425  0.75045273  0.97596589  1
  P  P252  1  0.70863892  0.08349507  0.22615603  1
  P  P253  1  0.70794920  0.08439087  0.47732246  1
  P  P254  1  0.70799866  0.08120062  0.72838355  1
  P  P255  1  0.70886700  0.08283378  0.97713391  1
  P  P256  1  0.70763041  0.41764993  0.22765802  1
  P  P257  1  0.70688015  0.41635803  0.47825758  1
  P  P258  1  0.70681350  0.41567091  0.72845176  1
  P  P259  1  0.70669344  0.41598481  0.97924437  1
  P  P260  1  0.70666001  0.74998388  0.22853818  1
  P  P261  1  0.70770247  0.74965779  0.47738591  1
  P  P262  1  0.70730747  0.75104477  0.72904262  1
  P  P263  1  0.70756974  0.75153973  0.97747251  1
  P  P264  1  0.29198856  0.24852674  0.02213840  1
  P  P265  1  0.29228361  0.24761910  0.27272418  1
  P  P266  1  0.29118090  0.24943738  0.52368322  1
  P  P267  1  0.29127131  0.25008649  0.77306438  1
  P  P268  1  0.29169098  0.58536347  0.02168224  1
  P  P269  1  0.29276468  0.58383801  0.27152649  1
  P  P270  1  0.29203054  0.58509523  0.52315573  1
  P  P271  1  0.29168035  0.58507036  0.77200782  1
  P  P272  1  0.29178756  0.91834453  0.02207982  1
  P  P273  1  0.29126788  0.91691245  0.27321142  1
  P  P274  1  0.29211743  0.91582087  0.52178509  1
  P  P275  1  0.29194099  0.91546857  0.77190770  1
  P  P276  1  0.79277809  0.24756429  0.02237585  1
  P  P277  1  0.79215539  0.24812681  0.27177680  1
  P  P278  1  0.79354433  0.24920897  0.52138171  1
  P  P279  1  0.79228000  0.24760997  0.77288504  1
  P  P280  1  0.79228715  0.58198518  0.02279708  1
  P  P281  1  0.79210718  0.58459929  0.27233557  1
  P  P282  1  0.79278364  0.58414715  0.52167644  1
  P  P283  1  0.79300516  0.58318834  0.77222172  1
  P  P284  1  0.79203800  0.91807637  0.02158779  1
  P  P285  1  0.79310502  0.91747368  0.27082552  1
  P  P286  1  0.79266341  0.91843511  0.52257367  1
  P  P287  1  0.79149268  0.91686315  0.77358000  1
  O  O288  1  0.03725408  0.24989234  0.18399961  1
  O  O289  1  0.03700933  0.24992128  0.43161163  1
  O  O290  1  0.03689455  0.25009793  0.68381309  1
  O  O291  1  0.03672819  0.24934381  0.93084176  1
  O  O292  1  0.03738520  0.58489148  0.18229700  1
  O  O293  1  0.03723588  0.58430901  0.43249424  1
  O  O294  1  0.03670276  0.58177224  0.68287496  1
  O  O295  1  0.03680057  0.58335063  0.93244604  1
  O  O296  1  0.03779353  0.91563017  0.18192655  1
  O  O297  1  0.03737024  0.91905189  0.43209316  1
  O  O298  1  0.03706293  0.91810147  0.68272957  1
  O  O299  1  0.03692147  0.91516740  0.93132937  1
  O  O300  1  0.53680027  0.24893773  0.18309855  1
  O  O301  1  0.53688468  0.25045644  0.43320900  1
  O  O302  1  0.53698376  0.24920222  0.68279587  1
  O  O303  1  0.53687399  0.24835391  0.93400133  1
  O  O304  1  0.53772204  0.58303787  0.18318933  1
  O  O305  1  0.53632560  0.58358263  0.43436512  1
  O  O306  1  0.53565832  0.58346424  0.68252550  1
  O  O307  1  0.53675170  0.58374070  0.93148063  1
  O  O308  1  0.53677533  0.91728083  0.18161557  1
  O  O309  1  0.53704017  0.91895983  0.43293475  1
  O  O310  1  0.53692725  0.91679383  0.68278853  1
  O  O311  1  0.53607991  0.91546352  0.93318790  1
  O  O312  1  0.46338088  0.08190880  0.06734687  1
  O  O313  1  0.46375234  0.08315861  0.31852075  1
  O  O314  1  0.46261010  0.08347964  0.56623137  1
  O  O315  1  0.46251138  0.08261183  0.81901052  1
  O  O316  1  0.46206956  0.41467554  0.06796118  1
  O  O317  1  0.46240454  0.41657075  0.31806014  1
  O  O318  1  0.46272619  0.41854852  0.56758288  1
  O  O319  1  0.46176743  0.41773397  0.81643020  1
  O  O320  1  0.46232609  0.75149413  0.06648989  1
  O  O321  1  0.46225033  0.74989103  0.31813714  1
  O  O322  1  0.46382040  0.74966191  0.56833315  1
  O  O323  1  0.46350020  0.75128628  0.81670886  1
  O  O324  1  0.96421015  0.08285266  0.06818239  1
  O  O325  1  0.96435726  0.08237104  0.31652432  1
  O  O326  1  0.96377141  0.08267972  0.56807565  1
  O  O327  1  0.96354394  0.08269093  0.81562698  1
  O  O328  1  0.96238062  0.41555693  0.06776592  1
  O  O329  1  0.96326853  0.41720304  0.31725951  1
  O  O330  1  0.96372598  0.41779122  0.56835092  1
  O  O331  1  0.96261500  0.41643096  0.81603413  1
  O  O332  1  0.96395517  0.74849083  0.06626882  1
  O  O333  1  0.96288698  0.74993329  0.31616763  1
  O  O334  1  0.96275209  0.75170565  0.56745518  1
  O  O335  1  0.96399844  0.75073916  0.81764975  1
  O  O336  1  0.21284269  0.08442542  0.05743218  1
  O  O337  1  0.21449094  0.08299156  0.30720234  1
  O  O338  1  0.21350257  0.08339965  0.55691116  1
  O  O339  1  0.21325947  0.08486406  0.80753143  1
  O  O340  1  0.21249840  0.41569477  0.05733342  1
  O  O341  1  0.21209389  0.41630146  0.30833760  1
  O  O342  1  0.21308710  0.41579938  0.55922037  1
  O  O343  1  0.21348135  0.41468744  0.80824899  1
  O  O344  1  0.21340377  0.75031551  0.05593291  1
  O  O345  1  0.21267423  0.75035580  0.30690063  1
  O  O346  1  0.21317523  0.75177030  0.55784766  1
  O  O347  1  0.21397864  0.75031310  0.80664059  1
  O  O348  1  0.71406826  0.08297568  0.05703508  1
  O  O349  1  0.71354553  0.08427032  0.30613554  1
  O  O350  1  0.71294371  0.08342641  0.55722828  1
  O  O351  1  0.71325592  0.08137612  0.80828505  1
  O  O352  1  0.71226225  0.41665652  0.05918735  1
  O  O353  1  0.71290743  0.41735600  0.30762482  1
  O  O354  1  0.71184782  0.41611839  0.55824319  1
  O  O355  1  0.71159201  0.41555643  0.80850140  1
  O  O356  1  0.71218782  0.75119913  0.05748959  1
  O  O357  1  0.71217551  0.74967528  0.30846953  1
  O  O358  1  0.71291298  0.75013602  0.55739880  1
  O  O359  1  0.71248946  0.75162328  0.80900772  1
  O  O360  1  0.28715460  0.24747695  0.19277205  1
  O  O361  1  0.28637881  0.24889781  0.44369220  1
  O  O362  1  0.28611719  0.25044009  0.69311735  1
  O  O363  1  0.28660400  0.24905481  0.94223603  1
  O  O364  1  0.28762245  0.58416517  0.19152672  1
  O  O365  1  0.28707397  0.58486198  0.44317002  1
  O  O366  1  0.28632086  0.58511845  0.69208375  1
  O  O367  1  0.28617555  0.58533639  0.94171154  1
  O  O368  1  0.28637261  0.91766025  0.19323292  1
  O  O369  1  0.28665214  0.91594040  0.44192584  1
  O  O370  1  0.28684961  0.91534874  0.69195975  1
  O  O371  1  0.28675994  0.91808711  0.94219500  1
  O  O372  1  0.78679072  0.24798485  0.19182425  1
  O  O373  1  0.78842196  0.24902158  0.44137311  1
  O  O374  1  0.78742183  0.24807139  0.69289313  1
  O  O375  1  0.78730303  0.24739307  0.94243827  1
  O  O376  1  0.78656399  0.58354748  0.19238691  1
  O  O377  1  0.78755385  0.58479074  0.44170241  1
  O  O378  1  0.78816589  0.58329271  0.69220011  1
  O  O379  1  0.78711257  0.58231287  0.94282069  1
  O  O380  1  0.78785029  0.91787386  0.19089720  1
  O  O381  1  0.78784759  0.91822159  0.44258533  1
  O  O382  1  0.78655033  0.91723644  0.69359102  1
  O  O383  1  0.78637442  0.91767590  0.94167442  1
  O  O384  1  0.22787907  0.24796823  0.05827135  1
  O  O385  1  0.22796593  0.24714513  0.30835084  1
  O  O386  1  0.22703530  0.24971143  0.55955867  1
  O  O387  1  0.22718886  0.24994263  0.80939947  1
  O  O388  1  0.22753863  0.58553492  0.05771503  1
  O  O389  1  0.22842006  0.58388897  0.30682745  1
  O  O390  1  0.22770960  0.58497945  0.55854473  1
  O  O391  1  0.22754627  0.58507557  0.80793138  1
  O  O392  1  0.22760026  0.91871782  0.05789265  1
  O  O393  1  0.22716995  0.91639226  0.30919516  1
  O  O394  1  0.22807348  0.91563162  0.55810365  1
  O  O395  1  0.22767706  0.91583268  0.80752512  1
  O  O396  1  0.72852081  0.24785545  0.05809734  1
  O  O397  1  0.72794703  0.24791032  0.30768203  1
  O  O398  1  0.72909490  0.24880348  0.55644030  1
  O  O399  1  0.72793698  0.24685610  0.80835213  1
  O  O400  1  0.72788502  0.58145264  0.05815142  1
  O  O401  1  0.72795611  0.58531928  0.30838137  1
  O  O402  1  0.72838751  0.58377173  0.55686395  1
  O  O403  1  0.72844648  0.58370992  0.80684675  1
  O  O404  1  0.72795091  0.91898425  0.05783302  1
  O  O405  1  0.72881437  0.91732816  0.30616718  1
  O  O406  1  0.72818877  0.91862509  0.55777564  1
  O  O407  1  0.72732993  0.91690406  0.80949972  1
  O  O408  1  0.27337416  0.08329986  0.19075091  1
  O  O409  1  0.27324102  0.08392468  0.44126779  1
  O  O410  1  0.27237655  0.08445473  0.69189498  1
  O  O411  1  0.27181633  0.08497309  0.94160016  1
  O  O412  1  0.27127081  0.41635423  0.19312749  1
  O  O413  1  0.27165178  0.41597487  0.44353684  1
  O  O414  1  0.27224464  0.41540224  0.69230593  1
  O  O415  1  0.27167241  0.41544228  0.94184268  1
  O  O416  1  0.27193254  0.74928798  0.19125593  1
  O  O417  1  0.27186990  0.75260917  0.44182727  1
  O  O418  1  0.27283633  0.75038470  0.69037218  1
  O  O419  1  0.27291826  0.75051872  0.94015962  1
  O  O420  1  0.77296056  0.08311395  0.19040415  1
  O  O421  1  0.77230600  0.08520449  0.44174060  1
  O  O422  1  0.77225122  0.08085346  0.69242948  1
  O  O423  1  0.77289740  0.08267113  0.94071706  1
  O  O424  1  0.77189826  0.41786047  0.19198012  1
  O  O425  1  0.77133001  0.41643970  0.44335791  1
  O  O426  1  0.77139440  0.41582990  0.69377062  1
  O  O427  1  0.77097987  0.41547892  0.94380719  1
  O  O428  1  0.77090663  0.75025979  0.19302009  1
  O  O429  1  0.77201315  0.74902835  0.44180407  1
  O  O430  1  0.77167989  0.75097733  0.69382167  1
  O  O431  1  0.77206472  0.75153468  0.94253467  1
  O  O432  1  0.02393286  0.08254564  0.18382404  1
  O  O433  1  0.02285354  0.08175511  0.43275132  1
  O  O434  1  0.02318763  0.08228057  0.68391335  1
  O  O435  1  0.02235231  0.08248631  0.93134297  1
  O  O436  1  0.02168591  0.41524036  0.18320711  1
  O  O437  1  0.02230857  0.41839505  0.43308401  1
  O  O438  1  0.02250653  0.41672853  0.68464840  1
  O  O439  1  0.02148587  0.41641731  0.93159618  1
  O  O440  1  0.02236938  0.74835174  0.18258535  1
  O  O441  1  0.02162664  0.75071623  0.43178770  1
  O  O442  1  0.02226512  0.75135834  0.68266453  1
  O  O443  1  0.02333302  0.75015280  0.93354212  1
  O  O444  1  0.52243850  0.08167506  0.18320035  1
  O  O445  1  0.52302698  0.08358287  0.43443299  1
  O  O446  1  0.52118717  0.08278879  0.68194780  1
  O  O447  1  0.52262451  0.08342297  0.93443977  1
  O  O448  1  0.52156094  0.41427520  0.18336972  1
  O  O449  1  0.52121490  0.41809328  0.43385967  1
  O  O450  1  0.52159101  0.41856417  0.68347014  1
  O  O451  1  0.52075197  0.41647430  0.93184838  1
  O  O452  1  0.52113529  0.75103292  0.18197916  1
  O  O453  1  0.52176824  0.74887266  0.43352717  1
  O  O454  1  0.52301966  0.75068135  0.68437605  1
  O  O455  1  0.52216544  0.75195965  0.93286760  1
  O  O456  1  0.47774759  0.24757220  0.06737943  1
  O  O457  1  0.47775330  0.25093096  0.31756576  1
  O  O458  1  0.47769856  0.24893458  0.56740397  1
  O  O459  1  0.47788857  0.24974850  0.81867934  1
  O  O460  1  0.47828103  0.58377673  0.06825682  1
  O  O461  1  0.47789330  0.58309207  0.31837325  1
  O  O462  1  0.47675407  0.58399878  0.56617131  1
  O  O463  1  0.47689626  0.58308669  0.81592927  1
  O  O464  1  0.47700812  0.91599371  0.06605594  1
  O  O465  1  0.47773475  0.91917487  0.31736116  1
  O  O466  1  0.47813062  0.91788534  0.56701095  1
  O  O467  1  0.47733901  0.91472832  0.81706982  1
  O  O468  1  0.97839991  0.24925771  0.06829850  1
  O  O469  1  0.97745473  0.25054658  0.31581805  1
  O  O470  1  0.97845226  0.24993946  0.56781222  1
  O  O471  1  0.97715557  0.25066324  0.81511221  1
  O  O472  1  0.97792411  0.58467815  0.06685395  1
  O  O473  1  0.97835811  0.58532287  0.31654746  1
  O  O474  1  0.97796930  0.58174785  0.56683386  1
  O  O475  1  0.97809508  0.58233622  0.81660000  1
  O  O476  1  0.97848977  0.91431113  0.06633596  1
  O  O477  1  0.97862287  0.91841539  0.31623833  1
  O  O478  1  0.97820086  0.91937017  0.56673779  1
  O  O479  1  0.97754939  0.91674840  0.81554069  1
  O  O480  1  0.07366360  0.31283320  0.07518853  1
  O  O481  1  0.07260605  0.31388867  0.32373699  1
  O  O482  1  0.07366545  0.31345623  0.57563675  1
  O  O483  1  0.07271065  0.31324832  0.82299548  1
  O  O484  1  0.07340032  0.64747173  0.07292391  1
  O  O485  1  0.07341580  0.64850373  0.32428624  1
  O  O486  1  0.07286690  0.64601140  0.57561341  1
  O  O487  1  0.07351074  0.64599099  0.82423823  1
  O  O488  1  0.07346445  0.97879158  0.07372288  1
  O  O489  1  0.07406054  0.98140305  0.32312266  1
  O  O490  1  0.07372818  0.98190347  0.57428968  1
  O  O491  1  0.07297492  0.97966174  0.82371655  1
  O  O492  1  0.57298076  0.31178022  0.07485066  1
  O  O493  1  0.57232956  0.31492725  0.32483052  1
  O  O494  1  0.57310557  0.31278483  0.57527668  1
  O  O495  1  0.57346035  0.31259403  0.82629852  1
  O  O496  1  0.57413545  0.64635874  0.07502131  1
  O  O497  1  0.57299232  0.64699565  0.32604238  1
  O  O498  1  0.57196231  0.64730163  0.57443677  1
  O  O499  1  0.57150150  0.64725644  0.82293771  1
  O  O500  1  0.57166036  0.98027618  0.07252851  1
  O  O501  1  0.57321311  0.98199227  0.32396531  1
  O  O502  1  0.57294995  0.98141530  0.57471344  1
  O  O503  1  0.57207041  0.97939998  0.82545220  1
  O  O504  1  0.42751018  0.01813730  0.17613571  1
  O  O505  1  0.42786529  0.02000292  0.42697485  1
  O  O506  1  0.42558351  0.01984238  0.67437726  1
  O  O507  1  0.42808626  0.01887794  0.92734205  1
  O  O508  1  0.42650969  0.35094744  0.17654531  1
  O  O509  1  0.42575970  0.35426283  0.42637138  1
  O  O510  1  0.42669046  0.35432007  0.67501948  1
  O  O511  1  0.42518349  0.35359196  0.92415283  1
  O  O512  1  0.42604726  0.68712840  0.17417559  1
  O  O513  1  0.42633762  0.68614996  0.42663943  1
  O  O514  1  0.42841834  0.68659348  0.67712793  1
  O  O515  1  0.42729178  0.68755381  0.92454629  1
  O  O516  1  0.92882327  0.01876944  0.17580363  1
  O  O517  1  0.92729725  0.01929172  0.42519898  1
  O  O518  1  0.92749038  0.01979430  0.67666986  1
  O  O519  1  0.92688684  0.01946651  0.92401684  1
  O  O520  1  0.92650842  0.35202293  0.17632676  1
  O  O521  1  0.92703688  0.35436942  0.42550584  1
  O  O522  1  0.92743899  0.35332370  0.67579380  1
  O  O523  1  0.92616398  0.35276370  0.92431710  1
  O  O524  1  0.92721609  0.68522410  0.17506900  1
  O  O525  1  0.92611828  0.68745355  0.42486509  1
  O  O526  1  0.92662686  0.68812947  0.67512737  1
  O  O527  1  0.92852293  0.68617115  0.92541932  1
  O  O528  1  0.17877921  0.01931954  0.19865827  1
  O  O529  1  0.17893739  0.01945512  0.44820155  1
  O  O530  1  0.17706826  0.02110811  0.69988335  1
  O  O531  1  0.17647677  0.02127407  0.94915171  1
  O  O532  1  0.17610376  0.35243534  0.20059365  1
  O  O533  1  0.17589873  0.35304750  0.45099023  1
  O  O534  1  0.17727994  0.35184395  0.69931414  1
  O  O535  1  0.17673118  0.35173173  0.94910905  1
  O  O536  1  0.17714579  0.68588173  0.19852260  1
  O  O537  1  0.17678492  0.68833961  0.44993355  1
  O  O538  1  0.17771953  0.68695102  0.69825171  1
  O  O539  1  0.17770528  0.68711038  0.94731724  1
  O  O540  1  0.67807476  0.01953859  0.19822292  1
  O  O541  1  0.67708644  0.02095972  0.44867421  1
  O  O542  1  0.67713379  0.01784145  0.69942608  1
  O  O543  1  0.67771793  0.01933555  0.94889283  1
  O  O544  1  0.67672152  0.35385269  0.20003068  1
  O  O545  1  0.67591674  0.35293443  0.44982236  1
  O  O546  1  0.67597540  0.35207743  0.70035670  1
  O  O547  1  0.67560630  0.35219814  0.95170626  1
  O  O548  1  0.67532521  0.68683120  0.20007121  1
  O  O549  1  0.67666497  0.68623599  0.44931202  1
  O  O550  1  0.67642852  0.68729788  0.70117326  1
  O  O551  1  0.67651830  0.68789440  0.94961647  1
  O  O552  1  0.32302495  0.31209136  0.05042991  1
  O  O553  1  0.32274854  0.31163993  0.30060793  1
  O  O554  1  0.32207217  0.31320390  0.55166158  1
  O  O555  1  0.32220336  0.31355475  0.80178679  1
  O  O556  1  0.32277553  0.64866542  0.05018862  1
  O  O557  1  0.32408556  0.64704776  0.30003148  1
  O  O558  1  0.32251685  0.64886857  0.55142100  1
  O  O559  1  0.32274707  0.64840633  0.80048095  1
  O  O560  1  0.32265087  0.98175824  0.05081386  1
  O  O561  1  0.32181564  0.98048767  0.30226662  1
  O  O562  1  0.32321027  0.97945421  0.54978309  1
  O  O563  1  0.32315215  0.97916906  0.79950729  1
  O  O564  1  0.82397260  0.31119900  0.05009849  1
  O  O565  1  0.82288206  0.31214956  0.29927853  1
  O  O566  1  0.82411586  0.31296842  0.54974462  1
  O  O567  1  0.82278301  0.31138452  0.80105864  1
  O  O568  1  0.82295675  0.64598391  0.05030555  1
  O  O569  1  0.82298609  0.64831234  0.30017376  1
  O  O570  1  0.82404489  0.64728791  0.55032075  1
  O  O571  1  0.82428916  0.64656967  0.80038641  1
  O  O572  1  0.82356074  0.98128646  0.04991732  1
  O  O573  1  0.82439741  0.98066599  0.29925779  1
  O  O574  1  0.82325194  0.98190846  0.55131753  1
  O  O575  1  0.82270744  0.98012283  0.80203932  1
  O  O576  1  0.42693155  0.14494181  0.17563186  1
  O  O577  1  0.42829363  0.14744525  0.42646737  1
  O  O578  1  0.42591203  0.14646625  0.67484601  1
  O  O579  1  0.42731415  0.14641328  0.92719207  1
  O  O580  1  0.42628122  0.47832434  0.17561124  1
  O  O581  1  0.42616919  0.48129883  0.42600913  1
  O  O582  1  0.42622720  0.48156688  0.67610494  1
  O  O583  1  0.42554739  0.48050877  0.92510022  1
  O  O584  1  0.42545564  0.81401073  0.17509198  1
  O  O585  1  0.42691686  0.81335613  0.42604094  1
  O  O586  1  0.42792904  0.81400365  0.67592749  1
  O  O587  1  0.42674820  0.81451138  0.92542973  1
  O  O588  1  0.92921244  0.14629524  0.17688765  1
  O  O589  1  0.92799265  0.14614783  0.42445010  1
  O  O590  1  0.92894707  0.14708500  0.67615095  1
  O  O591  1  0.92715574  0.14617693  0.92400553  1
  O  O592  1  0.92653938  0.47928635  0.17535298  1
  O  O593  1  0.92735607  0.48155975  0.42546517  1
  O  O594  1  0.92758235  0.48073643  0.67686205  1
  O  O595  1  0.92589989  0.47945856  0.92463562  1
  O  O596  1  0.92708769  0.81212859  0.17393500  1
  O  O597  1  0.92642145  0.81432753  0.42358558  1
  O  O598  1  0.92740897  0.81531188  0.67612741  1
  O  O599  1  0.92807552  0.81352918  0.92633544  1
  O  O600  1  0.07389543  0.18611842  0.07582278  1
  O  O601  1  0.07197258  0.18624976  0.32330478  1
  O  O602  1  0.07378758  0.18670883  0.57566328  1
  O  O603  1  0.07131219  0.18572583  0.82236373  1
  O  O604  1  0.07294699  0.52040561  0.07490268  1
  O  O605  1  0.07367820  0.52140113  0.32440218  1
  O  O606  1  0.07322697  0.51874704  0.57416168  1
  O  O607  1  0.07310788  0.51892301  0.82449905  1
  O  O608  1  0.07380549  0.85170293  0.07346413  1
  O  O609  1  0.07359496  0.85442009  0.32482812  1
  O  O610  1  0.07309680  0.85495729  0.57440714  1
  O  O611  1  0.07220659  0.85237239  0.82236882  1
  O  O612  1  0.57291187  0.18466165  0.07497883  1
  O  O613  1  0.57351966  0.18785161  0.32495365  1
  O  O614  1  0.57279671  0.18557844  0.57427055  1
  O  O615  1  0.57316881  0.18566851  0.82546150  1
  O  O616  1  0.57316841  0.51930287  0.07503070  1
  O  O617  1  0.57353569  0.52021176  0.32631319  1
  O  O618  1  0.57151767  0.51999033  0.57403364  1
  O  O619  1  0.57217966  0.51979687  0.82339605  1
  O  O620  1  0.57239544  0.85304161  0.07356496  1
  O  O621  1  0.57267341  0.85490751  0.32517851  1
  O  O622  1  0.57367513  0.85436757  0.57458058  1
  O  O623  1  0.57287456  0.85247279  0.82435157  1
  O  O624  1  0.32306796  0.18515180  0.05071623  1
  O  O625  1  0.32365747  0.18459689  0.30155972  1
  O  O626  1  0.32198322  0.18586865  0.55231964  1
  O  O627  1  0.32216863  0.18631955  0.80121381  1
  O  O628  1  0.32257441  0.52140930  0.04925457  1
  O  O629  1  0.32355483  0.52013173  0.29974777  1
  O  O630  1  0.32326511  0.52162649  0.55104503  1
  O  O631  1  0.32262141  0.52126822  0.79972279  1
  O  O632  1  0.32274531  0.85474800  0.05021993  1
  O  O633  1  0.32228690  0.85315144  0.30085980  1
  O  O634  1  0.32326112  0.85257496  0.55060302  1
  O  O635  1  0.32261539  0.85211167  0.80093286  1
  O  O636  1  0.82364598  0.18417692  0.05107408  1
  O  O637  1  0.82329940  0.18494579  0.30045219  1
  O  O638  1  0.82510431  0.18617908  0.54995060  1
  O  O639  1  0.82333055  0.18406616  0.80083630  1
  O  O640  1  0.82324330  0.51860922  0.05127813  1
  O  O641  1  0.82323041  0.52111462  0.30057219  1
  O  O642  1  0.82369147  0.52033099  0.54945894  1
  O  O643  1  0.82363380  0.51953405  0.80038611  1
  O  O644  1  0.82277491  0.85430677  0.04972676  1
  O  O645  1  0.82412303  0.85384843  0.29881870  1
  O  O646  1  0.82352364  0.85470441  0.55055816  1
  O  O647  1  0.82203328  0.85293292  0.80178069  1
  O  O648  1  0.17813497  0.14646396  0.19892503  1
  O  O649  1  0.17760497  0.14671353  0.44854859  1
  O  O650  1  0.17745612  0.14819915  0.69882088  1
  O  O651  1  0.17659119  0.14811202  0.94870788  1
  O  O652  1  0.17571472  0.47948218  0.20001178  1
  O  O653  1  0.17669942  0.48003122  0.45144057  1
  O  O654  1  0.17695591  0.47896573  0.70117722  1
  O  O655  1  0.17629958  0.47903546  0.94951675  1
  O  O656  1  0.17657686  0.81303339  0.19863148  1
  O  O657  1  0.17654329  0.81528827  0.44914729  1
  O  O658  1  0.17787733  0.81413366  0.69838372  1
  O  O659  1  0.17827861  0.81444554  0.94762822  1
  O  O660  1  0.67767406  0.14684570  0.19741770  1
  O  O661  1  0.67710131  0.14796558  0.44895888  1
  O  O662  1  0.67698727  0.14478318  0.70014882  1
  O  O663  1  0.67804286  0.14642254  0.94856060  1
  O  O664  1  0.67679231  0.48125440  0.19959271  1
  O  O665  1  0.67581770  0.47990779  0.45039007  1
  O  O666  1  0.67594589  0.47923960  0.70020416  1
  O  O667  1  0.67543376  0.47910986  0.95046251  1
  O  O668  1  0.67554818  0.81364150  0.20064775  1
  O  O669  1  0.67706451  0.81361378  0.44962794  1
  O  O670  1  0.67601194  0.81409156  0.70016273  1
  O  O671  1  0.67710890  0.81527588  0.94911938  1
