# generated using pymatgen
data_Na2MnFe(PO4)2
_symmetry_space_group_name_H-M   'P 1'
_cell_length_a   22.34577503
_cell_length_b   20.09779733
_cell_length_c   19.44663194
_cell_angle_alpha   90.01056988
_cell_angle_beta   89.99753196
_cell_angle_gamma   90.03781440
_symmetry_Int_Tables_number   1
_chemical_formula_structural   Na2MnFe(PO4)2
_chemical_formula_sum   'Na96 Mn48 Fe48 P96 O384'
_cell_volume   8733.49702634
_cell_formula_units_Z   48
loop_
 _symmetry_equiv_pos_site_id
 _symmetry_equiv_pos_as_xyz
  1  'x, y, z'
loop_
 _atom_site_type_symbol
 _atom_site_label
 _atom_site_symmetry_multiplicity
 _atom_site_fract_x
 _atom_site_fract_y
 _atom_site_fract_z
 _atom_site_occupancy
  Na  Na0  1  0.14024200  0.25027633  0.24392975  1
  Na  Na1  1  0.14050451  0.25003871  0.49444020  1
  Na  Na2  1  0.14097576  0.24959166  0.74320295  1
  Na  Na3  1  0.14108095  0.24929967  0.99290848  1
  Na  Na4  1  0.14054574  0.58335570  0.24187383  1
  Na  Na5  1  0.14043652  0.58405015  0.49420133  1
  Na  Na6  1  0.14067974  0.58313718  0.74287277  1
  Na  Na7  1  0.14006388  0.58271979  0.99359658  1
  Na  Na8  1  0.14041584  0.91672770  0.24446024  1
  Na  Na9  1  0.14003106  0.91845167  0.49253329  1
  Na  Na10  1  0.14070041  0.91838685  0.74223226  1
  Na  Na11  1  0.14112872  0.91745070  0.99314832  1
  Na  Na12  1  0.63983970  0.24933483  0.24419438  1
  Na  Na13  1  0.63988061  0.25069136  0.49361575  1
  Na  Na14  1  0.64062649  0.25100312  0.74309047  1
  Na  Na15  1  0.64033644  0.24978503  0.99352177  1
  Na  Na16  1  0.63962681  0.58177134  0.24434772  1
  Na  Na17  1  0.63945205  0.58256439  0.49480594  1
  Na  Na18  1  0.64010888  0.58175656  0.74345377  1
  Na  Na19  1  0.63985944  0.58299408  0.99385355  1
  Na  Na20  1  0.64012008  0.91589518  0.24405458  1
  Na  Na21  1  0.64053820  0.91718265  0.49377192  1
  Na  Na22  1  0.64051521  0.91632654  0.74488479  1
  Na  Na23  1  0.64005931  0.91600233  0.99349786  1
  Na  Na24  1  0.35961706  0.08464160  0.00641459  1
  Na  Na25  1  0.35944876  0.08373707  0.25739447  1
  Na  Na26  1  0.35932081  0.08523316  0.50600417  1
  Na  Na27  1  0.35927050  0.08534005  0.75646541  1
  Na  Na28  1  0.35975586  0.41752021  0.00723035  1
  Na  Na29  1  0.35977518  0.41664716  0.25629990  1
  Na  Na30  1  0.35933433  0.41760174  0.50814303  1
  Na  Na31  1  0.36004170  0.41664823  0.75684796  1
  Na  Na32  1  0.35950501  0.74998107  0.00823920  1
  Na  Na33  1  0.35951242  0.75091393  0.25653794  1
  Na  Na34  1  0.35886532  0.75112997  0.50569169  1
  Na  Na35  1  0.35885965  0.75075077  0.75634802  1
  Na  Na36  1  0.86042868  0.08257488  0.00467162  1
  Na  Na37  1  0.85995064  0.08250667  0.25625145  1
  Na  Na38  1  0.85967038  0.08385436  0.50659511  1
  Na  Na39  1  0.86039632  0.08286479  0.75620037  1
  Na  Na40  1  0.85998602  0.41684154  0.00564577  1
  Na  Na41  1  0.86033628  0.41488170  0.25722304  1
  Na  Na42  1  0.85946360  0.41668729  0.50699597  1
  Na  Na43  1  0.85968520  0.41636700  0.75441933  1
  Na  Na44  1  0.86008610  0.74952703  0.00483302  1
  Na  Na45  1  0.85975558  0.74841006  0.25572777  1
  Na  Na46  1  0.85940164  0.74919597  0.50670508  1
  Na  Na47  1  0.85952754  0.74848765  0.75617057  1
  Na  Na48  1  0.10983161  0.08279039  0.11954224  1
  Na  Na49  1  0.11017064  0.08352848  0.36869340  1
  Na  Na50  1  0.11046851  0.08309001  0.61778388  1
  Na  Na51  1  0.11058407  0.08351252  0.86714411  1
  Na  Na52  1  0.10993997  0.41544083  0.11751621  1
  Na  Na53  1  0.10982691  0.41651712  0.36966496  1
  Na  Na54  1  0.11031585  0.41642063  0.61809303  1
  Na  Na55  1  0.11010041  0.41680973  0.86855143  1
  Na  Na56  1  0.11023749  0.74919052  0.11786579  1
  Na  Na57  1  0.10962853  0.75159047  0.36845525  1
  Na  Na58  1  0.10932349  0.74969953  0.61789985  1
  Na  Na59  1  0.10983467  0.75010574  0.86872125  1
  Na  Na60  1  0.60905726  0.08291966  0.11925731  1
  Na  Na61  1  0.60946156  0.08456417  0.36859111  1
  Na  Na62  1  0.60993133  0.08424869  0.61870069  1
  Na  Na63  1  0.60959588  0.08441725  0.86869786  1
  Na  Na64  1  0.60948845  0.41608513  0.11970752  1
  Na  Na65  1  0.60890269  0.41712701  0.36893224  1
  Na  Na66  1  0.60965709  0.41602567  0.61878649  1
  Na  Na67  1  0.60948684  0.41780309  0.86838473  1
  Na  Na68  1  0.60922508  0.74917166  0.11937058  1
  Na  Na69  1  0.60874045  0.74882661  0.36882799  1
  Na  Na70  1  0.60926078  0.74863983  0.61952313  1
  Na  Na71  1  0.60915993  0.75033201  0.86880800  1
  Na  Na72  1  0.39048073  0.25089997  0.13173089  1
  Na  Na73  1  0.38987400  0.25128683  0.38155729  1
  Na  Na74  1  0.38980227  0.25095137  0.63255444  1
  Na  Na75  1  0.38998610  0.25243976  0.88184061  1
  Na  Na76  1  0.39029384  0.58309910  0.13269502  1
  Na  Na77  1  0.38974398  0.58363330  0.38031331  1
  Na  Na78  1  0.38940392  0.58219034  0.63231593  1
  Na  Na79  1  0.39012281  0.58401054  0.88164956  1
  Na  Na80  1  0.39031741  0.91598401  0.13244760  1
  Na  Na81  1  0.38988661  0.91727963  0.38161807  1
  Na  Na82  1  0.38988493  0.91812543  0.63049364  1
  Na  Na83  1  0.38988861  0.91842045  0.88228304  1
  Na  Na84  1  0.89116023  0.24811026  0.13095425  1
  Na  Na85  1  0.89040561  0.24970377  0.38242400  1
  Na  Na86  1  0.89010235  0.24937101  0.63116020  1
  Na  Na87  1  0.89083079  0.24977546  0.87996276  1
  Na  Na88  1  0.89081396  0.58174793  0.13042804  1
  Na  Na89  1  0.89044154  0.58232699  0.38248631  1
  Na  Na90  1  0.89005665  0.58225510  0.63114356  1
  Na  Na91  1  0.89070085  0.58305714  0.88042885  1
  Na  Na92  1  0.89072376  0.91593180  0.12957472  1
  Na  Na93  1  0.89087449  0.91689205  0.38116510  1
  Na  Na94  1  0.89088300  0.91624422  0.63176512  1
  Na  Na95  1  0.89062454  0.91690374  0.88083721  1
  Mn  Mn96  1  0.75062096  0.33273663  0.12511913  1
  Mn  Mn97  1  0.75000661  0.66576154  0.12473956  1
  Mn  Mn98  1  0.24989067  0.66779591  0.37443205  1
  Mn  Mn99  1  0.75024631  -0.00071894  0.12485542  1
  Mn  Mn100  1  0.75017155  0.49929724  0.12514576  1
  Mn  Mn101  1  0.49906546  0.33382798  0.49969997  1
  Mn  Mn102  1  0.75071318  0.33388291  0.87361981  1
  Mn  Mn103  1  0.75053524  0.00047252  0.62479865  1
  Mn  Mn104  1  0.75028100  0.00064557  0.37465776  1
  Mn  Mn105  1  0.00062388  0.49861542  0.25026061  1
  Mn  Mn106  1  0.00003166  0.33290661  0.74997519  1
  Mn  Mn107  1  0.49969271  0.16841455  0.75005300  1
  Mn  Mn108  1  0.50040456  0.00117659  0.49982938  1
  Mn  Mn109  1  0.75002483  0.83247815  0.62503422  1
  Mn  Mn110  1  -0.00029319  0.83387102  0.24898264  1
  Mn  Mn111  1  -0.00004601  0.66647219  0.49948351  1
  Mn  Mn112  1  0.24984013  0.83497075  0.62499227  1
  Mn  Mn113  1  0.50023843  0.33406670  0.00065983  1
  Mn  Mn114  1  0.00028748  0.83301228  0.74956553  1
  Mn  Mn115  1  0.25074687  0.49948665  0.87499326  1
  Mn  Mn116  1  0.24977168  0.50028136  0.37508326  1
  Mn  Mn117  1  0.00052203  0.33220209  -0.00057573  1
  Mn  Mn118  1  0.49963098  0.83325408  0.49996727  1
  Mn  Mn119  1  0.00013858  0.50031257  0.74952995  1
  Mn  Mn120  1  0.00018430  0.66625667  0.25027159  1
  Mn  Mn121  1  0.24931053  0.33317757  0.37588720  1
  Mn  Mn122  1  0.74914031  0.66484053  0.37594740  1
  Mn  Mn123  1  0.74978726  0.83248391  0.37554787  1
  Mn  Mn124  1  0.49978809  0.00059613  0.00089451  1
  Mn  Mn125  1  0.75001767  0.16593159  0.12423049  1
  Mn  Mn126  1  0.49882877  0.66616721  0.75046753  1
  Mn  Mn127  1  0.24998808  0.66674949  0.87563864  1
  Mn  Mn128  1  0.49987133  0.00108956  0.75061336  1
  Mn  Mn129  1  0.00113067  0.83262362  -0.00039934  1
  Mn  Mn130  1  0.24946585  0.16736179  0.12486089  1
  Mn  Mn131  1  0.00123668  0.00058587  -0.00058619  1
  Mn  Mn132  1  0.24992982  -0.00019027  0.12578451  1
  Mn  Mn133  1  0.49979894  0.66640421  0.00056873  1
  Mn  Mn134  1  0.74988261  0.33282539  0.37581788  1
  Mn  Mn135  1  0.49943630  0.83382035  0.75023858  1
  Mn  Mn136  1  0.74992797  0.66570377  0.87469887  1
  Mn  Mn137  1  0.75108514  0.16600315  0.87417708  1
  Mn  Mn138  1  0.75019755  0.83261883  0.12465079  1
  Mn  Mn139  1  0.49965396  0.00017547  0.24981693  1
  Mn  Mn140  1  0.49828077  0.66549586  0.49967927  1
  Mn  Mn141  1  -0.00001841  0.16604350  0.25079850  1
  Mn  Mn142  1  0.00012522  0.16624933  0.49979876  1
  Mn  Mn143  1  0.24951730  0.83435068  0.87495353  1
  Fe  Fe144  1  0.24985464  0.50042795  0.62552444  1
  Fe  Fe145  1  -0.00036311  0.83354471  0.49980945  1
  Fe  Fe146  1  0.00090826  0.16628830  0.74920616  1
  Fe  Fe147  1  0.49950212  0.49989355  0.25030666  1
  Fe  Fe148  1  0.25012059  0.16716906  0.62528334  1
  Fe  Fe149  1  0.25037399  0.83392758  0.12519138  1
  Fe  Fe150  1  0.49934371  0.49985657  0.49968924  1
  Fe  Fe151  1  0.74970070  0.16675613  0.37529735  1
  Fe  Fe152  1  0.00020525  0.33275909  0.24995631  1
  Fe  Fe153  1  0.49956115  0.16775077  0.50008666  1
  Fe  Fe154  1  0.00006747  0.49918936  -0.00019780  1
  Fe  Fe155  1  0.00056362  0.66626703  0.74922333  1
  Fe  Fe156  1  0.50005327  0.83299636  0.25033229  1
  Fe  Fe157  1  0.74943216  0.66565229  0.62576212  1
  Fe  Fe158  1  0.75018673  0.49941784  0.87408401  1
  Fe  Fe159  1  0.25041402  0.33333028  0.12500354  1
  Fe  Fe160  1  0.49977977  0.33349872  0.24990271  1
  Fe  Fe161  1  0.00005352  0.66577896  -0.00085404  1
  Fe  Fe162  1  0.50027758  0.16773356  0.00029787  1
  Fe  Fe163  1  -0.00004433  -0.00028221  0.49991022  1
  Fe  Fe164  1  0.24968388  0.49965210  0.12469117  1
  Fe  Fe165  1  0.25031771  0.16733533  0.37572755  1
  Fe  Fe166  1  0.24988720  0.00074679  0.37494868  1
  Fe  Fe167  1  0.74959896  0.16681613  0.62518641  1
  Fe  Fe168  1  0.50001512  0.50003368  0.00092227  1
  Fe  Fe169  1  0.00066583  0.49952494  0.49996621  1
  Fe  Fe170  1  0.24943031  0.83417525  0.37512834  1
  Fe  Fe171  1  0.00019166  -0.00027846  0.24977098  1
  Fe  Fe172  1  0.49963801  0.66620688  0.24983998  1
  Fe  Fe173  1  0.74969214  0.49981083  0.62489449  1
  Fe  Fe174  1  0.74972831  -0.00050591  0.87449897  1
  Fe  Fe175  1  0.24957849  0.66776931  0.62482864  1
  Fe  Fe176  1  0.75001711  0.49940918  0.37596861  1
  Fe  Fe177  1  0.24956767  0.33366958  0.87493825  1
  Fe  Fe178  1  0.00018867  0.33304188  0.50037849  1
  Fe  Fe179  1  0.74989024  0.83261705  0.87474063  1
  Fe  Fe180  1  0.00057496  -0.00010817  0.74942179  1
  Fe  Fe181  1  0.74993560  0.33352110  0.62432911  1
  Fe  Fe182  1  0.25057321  0.00143176  0.62401990  1
  Fe  Fe183  1  0.25053575  0.16728404  0.87460577  1
  Fe  Fe184  1  0.50050379  0.33420704  0.75047281  1
  Fe  Fe185  1  0.49933087  0.16730192  0.25011060  1
  Fe  Fe186  1  0.25041065  0.33333295  0.62568888  1
  Fe  Fe187  1  0.24983228  0.66714642  0.12527095  1
  Fe  Fe188  1  0.25054772  0.00093401  0.87420940  1
  Fe  Fe189  1  0.49991170  0.49999699  0.75051054  1
  Fe  Fe190  1  0.00046379  0.16589964  -0.00012158  1
  Fe  Fe191  1  0.49958804  0.83319424  0.00082772  1
  P  P192  1  0.04291140  0.24807216  0.10251864  1
  P  P193  1  0.04209635  0.25142015  0.35306097  1
  P  P194  1  0.04207232  0.25027320  0.60267279  1
  P  P195  1  0.04260174  0.24824053  0.85229538  1
  P  P196  1  0.04158930  0.58241517  0.10127016  1
  P  P197  1  0.04321556  0.58252787  0.35342378  1
  P  P198  1  0.04217255  0.58241411  0.60231685  1
  P  P199  1  0.04265337  0.58469635  0.85265288  1
  P  P200  1  0.04350168  0.91682890  0.10302689  1
  P  P201  1  0.04195143  0.91786513  0.35303406  1
  P  P202  1  0.04146620  0.91666330  0.60158563  1
  P  P203  1  0.04294390  0.91779532  0.85159975  1
  P  P204  1  0.54225515  0.24909898  0.10341421  1
  P  P205  1  0.54065968  0.25053168  0.35188645  1
  P  P206  1  0.54175669  0.24998597  0.60253141  1
  P  P207  1  0.54260525  0.25228589  0.85294185  1
  P  P208  1  0.54183877  0.58185518  0.10371125  1
  P  P209  1  0.54071608  0.58279353  0.35186769  1
  P  P210  1  0.54083300  0.58097182  0.60295619  1
  P  P211  1  0.54193901  0.58224046  0.85309844  1
  P  P212  1  0.54178952  0.91498495  0.10327804  1
  P  P213  1  0.54199674  0.91592612  0.35236349  1
  P  P214  1  0.54290059  0.91707142  0.60317448  1
  P  P215  1  0.54223306  0.91708094  0.85423532  1
  P  P216  1  0.45752315  0.08522694  0.14756026  1
  P  P217  1  0.45793740  0.08595528  0.39709439  1
  P  P218  1  0.45721806  0.08456541  0.64665789  1
  P  P219  1  0.45775373  0.08584996  0.89813396  1
  P  P220  1  0.45857067  0.41707378  0.14852076  1
  P  P221  1  0.45687434  0.41851116  0.39691117  1
  P  P222  1  0.45844139  0.41674087  0.64864441  1
  P  P223  1  0.45783370  0.41875297  0.89769187  1
  P  P224  1  0.45861081  0.75001916  0.14844104  1
  P  P225  1  0.45674645  0.74986965  0.39586016  1
  P  P226  1  0.45632069  0.74969780  0.64704923  1
  P  P227  1  0.45701172  0.75121452  0.89845835  1
  P  P228  1  0.95797437  0.08198549  0.14722819  1
  P  P229  1  0.95801953  0.08173906  0.39738835  1
  P  P230  1  0.95926318  0.08265497  0.64766975  1
  P  P231  1  0.95883419  0.08460804  0.89606562  1
  P  P232  1  0.95817229  0.41462692  0.14720045  1
  P  P233  1  0.95872736  0.41594427  0.39855494  1
  P  P234  1  0.95806749  0.41633800  0.64575408  1
  P  P235  1  0.95813931  0.41733343  0.89724269  1
  P  P236  1  0.95772496  0.74883694  0.14590438  1
  P  P237  1  0.95747268  0.75121132  0.39746795  1
  P  P238  1  0.95775501  0.74872521  0.64687683  1
  P  P239  1  0.95852152  0.74839734  0.89659315  1
  P  P240  1  0.20759108  0.08371671  0.22912428  1
  P  P241  1  0.20878945  0.08404869  0.47716857  1
  P  P242  1  0.20923789  0.08374252  0.72670819  1
  P  P243  1  0.20907226  0.08365428  0.97593677  1
  P  P244  1  0.20844652  0.41623436  0.22634395  1
  P  P245  1  0.20776501  0.41700967  0.47964231  1
  P  P246  1  0.20885487  0.41621583  0.72697423  1
  P  P247  1  0.20814673  0.41541704  0.97808309  1
  P  P248  1  0.20848801  0.75096452  0.22673696  1
  P  P249  1  0.20755508  0.75188461  0.47757194  1
  P  P250  1  0.20737730  0.74987142  0.72704672  1
  P  P251  1  0.20763624  0.75041417  0.97919117  1
  P  P252  1  0.70705908  0.08333107  0.22838022  1
  P  P253  1  0.70762047  0.08520826  0.47789408  1
  P  P254  1  0.70793972  0.08391319  0.72770683  1
  P  P255  1  0.70771360  0.08180418  0.97678233  1
  P  P256  1  0.70748010  0.41591258  0.22898671  1
  P  P257  1  0.70759576  0.41775511  0.47864716  1
  P  P258  1  0.70872977  0.41676719  0.72629902  1
  P  P259  1  0.70777664  0.41752645  0.97679431  1
  P  P260  1  0.70698439  0.74881694  0.22830150  1
  P  P261  1  0.70643658  0.74869415  0.47918624  1
  P  P262  1  0.70769797  0.74851798  0.72811059  1
  P  P263  1  0.70751923  0.75039590  0.97702965  1
  P  P264  1  0.29225517  0.25163882  0.02194748  1
  P  P265  1  0.29179328  0.24957809  0.27282563  1
  P  P266  1  0.29147380  0.25027186  0.52381893  1
  P  P267  1  0.29120602  0.25101082  0.77297210  1
  P  P268  1  0.29134274  0.58353203  0.02401358  1
  P  P269  1  0.29175296  0.58363208  0.27074347  1
  P  P270  1  0.29088184  0.58425472  0.52376485  1
  P  P271  1  0.29235503  0.58356660  0.77127875  1
  P  P272  1  0.29248648  0.91640039  0.02263392  1
  P  P273  1  0.29129179  0.91679456  0.27351004  1
  P  P274  1  0.29174241  0.91906436  0.52133949  1
  P  P275  1  0.29225728  0.91895722  0.77194201  1
  P  P276  1  0.79351900  0.24968754  0.02129514  1
  P  P277  1  0.79260162  0.24841770  0.27309365  1
  P  P278  1  0.79095545  0.24956501  0.52315624  1
  P  P279  1  0.79310004  0.24991051  0.77014415  1
  P  P280  1  0.79283911  0.58254987  0.02106935  1
  P  P281  1  0.79270864  0.58099296  0.27326920  1
  P  P282  1  0.79123916  0.58267148  0.52361360  1
  P  P283  1  0.79208932  0.58134845  0.77129150  1
  P  P284  1  0.79271269  0.91608856  0.02036384  1
  P  P285  1  0.79312509  0.91592442  0.27198468  1
  P  P286  1  0.79311247  0.91657728  0.52208493  1
  P  P287  1  0.79162101  0.91607620  0.77325081  1
  O  O288  1  0.03743117  0.24871294  0.18245385  1
  O  O289  1  0.03678819  0.25168531  0.43300984  1
  O  O290  1  0.03694044  0.24939354  0.68260749  1
  O  O291  1  0.03742772  0.24782058  0.93226826  1
  O  O292  1  0.03676112  0.58225116  0.18130858  1
  O  O293  1  0.03816095  0.58209948  0.43339175  1
  O  O294  1  0.03701773  0.58330523  0.68226464  1
  O  O295  1  0.03714398  0.58450290  0.93253800  1
  O  O296  1  0.03801645  0.91742215  0.18296263  1
  O  O297  1  0.03623826  0.91745529  0.43293515  1
  O  O298  1  0.03650953  0.91703440  0.68160227  1
  O  O299  1  0.03825600  0.91754596  0.93158099  1
  O  O300  1  0.53679852  0.24904711  0.18328381  1
  O  O301  1  0.53573123  0.25070200  0.43188206  1
  O  O302  1  0.53701285  0.25087550  0.68247643  1
  O  O303  1  0.53775405  0.25179502  0.93289503  1
  O  O304  1  0.53635328  0.58214338  0.18357591  1
  O  O305  1  0.53554031  0.58282892  0.43182019  1
  O  O306  1  0.53563296  0.58077592  0.68291399  1
  O  O307  1  0.53713020  0.58231136  0.93311416  1
  O  O308  1  0.53635426  0.91487793  0.18325304  1
  O  O309  1  0.53708725  0.91650224  0.43235411  1
  O  O310  1  0.53771510  0.91733237  0.68319148  1
  O  O311  1  0.53692853  0.91663049  0.93421145  1
  O  O312  1  0.46300945  0.08515313  0.06763726  1
  O  O313  1  0.46327165  0.08619112  0.31713140  1
  O  O314  1  0.46242406  0.08499940  0.56668859  1
  O  O315  1  0.46282129  0.08553017  0.81813951  1
  O  O316  1  0.46349844  0.41699553  0.06857260  1
  O  O317  1  0.46204477  0.41837529  0.31708152  1
  O  O318  1  0.46292200  0.41668174  0.56863931  1
  O  O319  1  0.46325116  0.41857364  0.81781891  1
  O  O320  1  0.46334821  0.75024640  0.06842280  1
  O  O321  1  0.46232611  0.74994606  0.31594548  1
  O  O322  1  0.46130763  0.74939563  0.56705590  1
  O  O323  1  0.46185892  0.75072621  0.81844930  1
  O  O324  1  0.96363536  0.08318869  0.06730816  1
  O  O325  1  0.96307508  0.08167104  0.31744230  1
  O  O326  1  0.96410911  0.08208319  0.56765955  1
  O  O327  1  0.96438825  0.08438245  0.81616371  1
  O  O328  1  0.96335708  0.41531427  0.06726352  1
  O  O329  1  0.96376083  0.41545735  0.31853013  1
  O  O330  1  0.96335923  0.41638289  0.56584800  1
  O  O331  1  0.96330047  0.41725533  0.81729572  1
  O  O332  1  0.96327721  0.74818741  0.06595571  1
  O  O333  1  0.96256451  0.75088977  0.31747701  1
  O  O334  1  0.96306608  0.74973550  0.56692974  1
  O  O335  1  0.96378453  0.74831245  0.81662415  1
  O  O336  1  0.21352449  0.08382299  0.05592714  1
  O  O337  1  0.21304873  0.08375373  0.30898935  1
  O  O338  1  0.21402632  0.08371609  0.55706050  1
  O  O339  1  0.21413110  0.08375535  0.80658721  1
  O  O340  1  0.21336638  0.41556066  0.05797674  1
  O  O341  1  0.21279964  0.41676109  0.30640725  1
  O  O342  1  0.21326100  0.41684054  0.55948987  1
  O  O343  1  0.21365409  0.41614083  0.80698385  1
  O  O344  1  0.21307333  0.75052118  0.05911239  1
  O  O345  1  0.21351430  0.75140767  0.30676048  1
  O  O346  1  0.21282799  0.75131180  0.55749137  1
  O  O347  1  0.21255837  0.75007301  0.80701533  1
  O  O348  1  0.71265387  0.08200291  0.05679051  1
  O  O349  1  0.71203300  0.08407264  0.30840468  1
  O  O350  1  0.71282129  0.08534980  0.55788013  1
  O  O351  1  0.71334884  0.08288481  0.80763562  1
  O  O352  1  0.71276257  0.41685499  0.05679833  1
  O  O353  1  0.71240944  0.41618273  0.30897666  1
  O  O354  1  0.71292433  0.41745386  0.55854579  1
  O  O355  1  0.71379430  0.41700037  0.80623200  1
  O  O356  1  0.71238262  0.75007561  0.05704673  1
  O  O357  1  0.71180208  0.74865298  0.30832558  1
  O  O358  1  0.71164695  0.74818033  0.55917087  1
  O  O359  1  0.71339287  0.74936528  0.80803884  1
  O  O360  1  0.28669226  0.25025198  0.19291204  1
  O  O361  1  0.28650646  0.24957805  0.44387833  1
  O  O362  1  0.28635311  0.25083820  0.69307666  1
  O  O363  1  0.28693742  0.25169067  0.94208925  1
  O  O364  1  0.28632093  0.58360169  0.19087370  1
  O  O365  1  0.28605007  0.58393077  0.44373042  1
  O  O366  1  0.28685709  0.58384952  0.69140501  1
  O  O367  1  0.28698623  0.58315008  0.94393867  1
  O  O368  1  0.28644741  0.91616716  0.19349950  1
  O  O369  1  0.28608117  0.91864552  0.44147273  1
  O  O370  1  0.28687596  0.91909992  0.69198148  1
  O  O371  1  0.28752851  0.91694873  0.94268612  1
  O  O372  1  0.78791347  0.24877865  0.19307820  1
  O  O373  1  0.78614474  0.24929322  0.44314740  1
  O  O374  1  0.78747732  0.25002337  0.69025209  1
  O  O375  1  0.78876844  0.24994662  0.94128169  1
  O  O376  1  0.78811142  0.58141324  0.19323293  1
  O  O377  1  0.78623244  0.58216486  0.44363345  1
  O  O378  1  0.78634782  0.58181738  0.69141488  1
  O  O379  1  0.78767606  0.58214663  0.94110018  1
  O  O380  1  0.78813133  0.91594522  0.19194626  1
  O  O381  1  0.78807254  0.91661031  0.44215382  1
  O  O382  1  0.78674147  0.91609454  0.69322590  1
  O  O383  1  0.78724512  0.91611566  0.94042178  1
  O  O384  1  0.22804407  0.25222785  0.05800695  1
  O  O385  1  0.22756611  0.24853657  0.30869919  1
  O  O386  1  0.22736459  0.25116530  0.55982717  1
  O  O387  1  0.22717296  0.25097364  0.80925809  1
  O  O388  1  0.22703437  0.58422447  0.05933180  1
  O  O389  1  0.22765324  0.58379121  0.30674741  1
  O  O390  1  0.22676961  0.58445581  0.55965498  1
  O  O391  1  0.22824575  0.58312685  0.80725665  1
  O  O392  1  0.22811757  0.91584693  0.05810216  1
  O  O393  1  0.22714742  0.91738749  0.30949492  1
  O  O394  1  0.22773522  0.91934014  0.55778259  1
  O  O395  1  0.22799560  0.91931088  0.80776269  1
  O  O396  1  0.72892783  0.24977438  0.05599429  1
  O  O397  1  0.72809441  0.24832004  0.30823003  1
  O  O398  1  0.72684687  0.24906352  0.55908043  1
  O  O399  1  0.72898644  0.24976160  0.80608074  1
  O  O400  1  0.72841247  0.58253868  0.05629414  1
  O  O401  1  0.72808533  0.58042983  0.30817346  1
  O  O402  1  0.72703767  0.58294544  0.55956003  1
  O  O403  1  0.72800195  0.58090547  0.80760825  1
  O  O404  1  0.72847656  0.91610584  0.05615048  1
  O  O405  1  0.72863743  0.91623174  0.30693792  1
  O  O406  1  0.72865324  0.91657492  0.55698150  1
  O  O407  1  0.72742956  0.91624595  0.80903001  1
  O  O408  1  0.27169539  0.08404649  0.19314679  1
  O  O409  1  0.27271478  0.08432697  0.44048255  1
  O  O410  1  0.27330042  0.08348540  0.69050597  1
  O  O411  1  0.27330618  0.08319611  0.94025931  1
  O  O412  1  0.27278136  0.41598393  0.19093193  1
  O  O413  1  0.27185053  0.41683502  0.44358643  1
  O  O414  1  0.27298517  0.41596093  0.69103890  1
  O  O415  1  0.27234776  0.41486983  0.94209434  1
  O  O416  1  0.27263286  0.75033382  0.19068861  1
  O  O417  1  0.27176219  0.75223250  0.44172077  1
  O  O418  1  0.27167496  0.74992592  0.69149042  1
  O  O419  1  0.27180747  0.75078706  0.94336570  1
  O  O420  1  0.77153097  0.08292141  0.19336858  1
  O  O421  1  0.77195645  0.08526560  0.44228238  1
  O  O422  1  0.77220113  0.08494194  0.69192917  1
  O  O423  1  0.77212777  0.08120068  0.94146759  1
  O  O424  1  0.77194681  0.41596301  0.19388730  1
  O  O425  1  0.77179094  0.41764266  0.44261513  1
  O  O426  1  0.77276314  0.41715268  0.69018478  1
  O  O427  1  0.77221895  0.41814507  0.94144727  1
  O  O428  1  0.77150353  0.74891547  0.19340680  1
  O  O429  1  0.77085991  0.74860550  0.44405692  1
  O  O430  1  0.77181140  0.74772623  0.69200243  1
  O  O431  1  0.77189634  0.75030631  0.94178004  1
  O  O432  1  0.02209499  0.08167680  0.18343402  1
  O  O433  1  0.02230445  0.08192426  0.43298911  1
  O  O434  1  0.02347714  0.08251063  0.68346026  1
  O  O435  1  0.02299350  0.08527134  0.93229405  1
  O  O436  1  0.02250686  0.41426243  0.18287834  1
  O  O437  1  0.02292222  0.41588638  0.43445982  1
  O  O438  1  0.02220960  0.41648687  0.68157658  1
  O  O439  1  0.02237688  0.41737088  0.93293243  1
  O  O440  1  0.02194307  0.74957486  0.18155774  1
  O  O441  1  0.02179375  0.75137343  0.43289894  1
  O  O442  1  0.02202824  0.74842166  0.68269090  1
  O  O443  1  0.02269163  0.74813783  0.93249571  1
  O  O444  1  0.52168821  0.08489862  0.18343282  1
  O  O445  1  0.52211976  0.08615194  0.43305158  1
  O  O446  1  0.52155996  0.08466546  0.68197496  1
  O  O447  1  0.52203903  0.08551484  0.93368734  1
  O  O448  1  0.52264386  0.41740197  0.18456063  1
  O  O449  1  0.52111678  0.41833801  0.43286044  1
  O  O450  1  0.52268254  0.41661678  0.68445776  1
  O  O451  1  0.52201888  0.41888813  0.93379783  1
  O  O452  1  0.52268240  0.75026932  0.18440264  1
  O  O453  1  0.52085111  0.74922379  0.43183773  1
  O  O454  1  0.52075431  0.74962040  0.68207244  1
  O  O455  1  0.52142437  0.75134692  0.93377913  1
  O  O456  1  0.47810333  0.24923974  0.06726342  1
  O  O457  1  0.47653989  0.25050520  0.31598923  1
  O  O458  1  0.47735196  0.24953205  0.56713520  1
  O  O459  1  0.47818093  0.25292185  0.81762523  1
  O  O460  1  0.47770408  0.58167856  0.06750186  1
  O  O461  1  0.47669447  0.58257626  0.31565425  1
  O  O462  1  0.47659565  0.58087063  0.56711392  1
  O  O463  1  0.47754820  0.58194013  0.81777516  1
  O  O464  1  0.47757777  0.91535613  0.06739582  1
  O  O465  1  0.47765300  0.91587794  0.31700030  1
  O  O466  1  0.47848080  0.91746895  0.56808555  1
  O  O467  1  0.47787552  0.91741827  0.81887054  1
  O  O468  1  0.97870027  0.24755474  0.06651117  1
  O  O469  1  0.97792139  0.25122611  0.31711958  1
  O  O470  1  0.97789029  0.25044900  0.56683775  1
  O  O471  1  0.97839257  0.24803335  0.81654515  1
  O  O472  1  0.97748058  0.58202547  0.06526539  1
  O  O473  1  0.97877582  0.58237932  0.31840208  1
  O  O474  1  0.97799672  0.58186430  0.56649284  1
  O  O475  1  0.97848774  0.58515154  0.81645773  1
  O  O476  1  0.97933572  0.91664697  0.06733047  1
  O  O477  1  0.97795572  0.91833298  0.31645841  1
  O  O478  1  0.97726612  0.91644309  0.56576702  1
  O  O479  1  0.97852609  0.91774443  0.81638448  1
  O  O480  1  0.07391466  0.31157148  0.07419360  1
  O  O481  1  0.07304351  0.31462351  0.32406900  1
  O  O482  1  0.07279491  0.31400012  0.57464439  1
  O  O483  1  0.07328526  0.31245864  0.82514051  1
  O  O484  1  0.07220129  0.64627288  0.07338409  1
  O  O485  1  0.07387874  0.64641150  0.32545299  1
  O  O486  1  0.07337228  0.64580624  0.57407772  1
  O  O487  1  0.07390774  0.64776965  0.82364563  1
  O  O488  1  0.07492564  0.98000344  0.07456283  1
  O  O489  1  0.07315701  0.98123177  0.32470288  1
  O  O490  1  0.07245970  0.98016671  0.57312886  1
  O  O491  1  0.07347925  0.98139998  0.82300142  1
  O  O492  1  0.57354206  0.31272303  0.07557645  1
  O  O493  1  0.57113314  0.31454378  0.32358322  1
  O  O494  1  0.57273707  0.31336552  0.57390602  1
  O  O495  1  0.57335183  0.31583014  0.82429753  1
  O  O496  1  0.57294209  0.64545187  0.07551480  1
  O  O497  1  0.57106809  0.64676855  0.32341028  1
  O  O498  1  0.57167665  0.64484976  0.57529640  1
  O  O499  1  0.57248845  0.64623857  0.82512260  1
  O  O500  1  0.57299586  0.97881229  0.07593295  1
  O  O501  1  0.57308499  0.97954650  0.32443824  1
  O  O502  1  0.57424739  0.98033464  0.57485287  1
  O  O503  1  0.57329202  0.98073327  0.82634357  1
  O  O504  1  0.42630117  0.02148167  0.17528140  1
  O  O505  1  0.42719327  0.02182339  0.42427913  1
  O  O506  1  0.42642853  0.02083945  0.67469094  1
  O  O507  1  0.42632542  0.02249046  0.92604173  1
  O  O508  1  0.42841907  0.35291723  0.17690575  1
  O  O509  1  0.42564711  0.35500531  0.42516160  1
  O  O510  1  0.42795028  0.35290183  0.67717986  1
  O  O511  1  0.42679740  0.35511112  0.92580493  1
  O  O512  1  0.42842546  0.68573383  0.17636775  1
  O  O513  1  0.42505715  0.68663468  0.42402718  1
  O  O514  1  0.42530270  0.68630630  0.67543663  1
  O  O515  1  0.42612823  0.68748048  0.92648445  1
  O  O516  1  0.92728294  0.01807750  0.17483088  1
  O  O517  1  0.92699955  0.01864004  0.42637929  1
  O  O518  1  0.92804280  0.01938565  0.67640193  1
  O  O519  1  0.92810424  0.02072702  0.92411545  1
  O  O520  1  0.92755426  0.35088414  0.17553987  1
  O  O521  1  0.92745123  0.35265639  0.42706586  1
  O  O522  1  0.92694901  0.35289237  0.67414458  1
  O  O523  1  0.92704215  0.35359829  0.92471563  1
  O  O524  1  0.92669455  0.68553827  0.17466938  1
  O  O525  1  0.92636395  0.68748079  0.42511513  1
  O  O526  1  0.92712771  0.68492831  0.67483432  1
  O  O527  1  0.92725524  0.68527530  0.92532055  1
  O  O528  1  0.17666022  0.02014597  0.20065945  1
  O  O529  1  0.17787552  0.02054747  0.44848797  1
  O  O530  1  0.17787772  0.02060093  0.69785436  1
  O  O531  1  0.17789480  0.02020495  0.94781248  1
  O  O532  1  0.17762963  0.35250564  0.19846915  1
  O  O533  1  0.17647893  0.35361184  0.45119645  1
  O  O534  1  0.17735705  0.35296901  0.69881021  1
  O  O535  1  0.17677064  0.35238644  0.94906059  1
  O  O536  1  0.17733548  0.68725345  0.19889654  1
  O  O537  1  0.17636560  0.68847531  0.44925117  1
  O  O538  1  0.17671613  0.68628287  0.69859965  1
  O  O539  1  0.17669391  0.68678390  0.95093330  1
  O  O540  1  0.67599223  0.01967225  0.20052576  1
  O  O541  1  0.67675259  0.02130150  0.45020931  1
  O  O542  1  0.67709389  0.02031936  0.69934221  1
  O  O543  1  0.67663067  0.01846081  0.94838219  1
  O  O544  1  0.67683488  0.35216762  0.20064804  1
  O  O545  1  0.67623007  0.35425898  0.45059833  1
  O  O546  1  0.67861050  0.35254801  0.69806393  1
  O  O547  1  0.67710399  0.35378689  0.94856050  1
  O  O548  1  0.67624005  0.68517675  0.19999776  1
  O  O549  1  0.67496494  0.68559315  0.45056635  1
  O  O550  1  0.67659997  0.68483749  0.70032778  1
  O  O551  1  0.67620622  0.68686178  0.94925177  1
  O  O552  1  0.32363003  0.31462947  0.05113624  1
  O  O553  1  0.32228056  0.31338649  0.30122830  1
  O  O554  1  0.32294907  0.31375633  0.55157784  1
  O  O555  1  0.32232948  0.31443945  0.80141872  1
  O  O556  1  0.32274005  0.64687237  0.05203478  1
  O  O557  1  0.32308303  0.64694910  0.29917602  1
  O  O558  1  0.32185329  0.64804634  0.55134341  1
  O  O559  1  0.32342977  0.64695918  0.79994909  1
  O  O560  1  0.32340512  0.97997483  0.05102375  1
  O  O561  1  0.32234346  0.98059453  0.30120073  1
  O  O562  1  0.32296690  0.98248358  0.54965503  1
  O  O563  1  0.32356568  0.98204536  0.80071620  1
  O  O564  1  0.82446769  0.31308438  0.04985196  1
  O  O565  1  0.82350406  0.31197432  0.30144229  1
  O  O566  1  0.82089791  0.31406820  0.55096964  1
  O  O567  1  0.82430877  0.31339539  0.79841953  1
  O  O568  1  0.82351871  0.64636440  0.04916439  1
  O  O569  1  0.82337596  0.64472892  0.30149908  1
  O  O570  1  0.82197751  0.64648314  0.55169763  1
  O  O571  1  0.82317907  0.64493437  0.79943561  1
  O  O572  1  0.82402116  0.97941768  0.04885268  1
  O  O573  1  0.82415320  0.97947485  0.30004879  1
  O  O574  1  0.82406006  0.98015356  0.55024587  1
  O  O575  1  0.82250705  0.97984020  0.80114531  1
  O  O576  1  0.42660055  0.14851579  0.17619137  1
  O  O577  1  0.42681496  0.14904127  0.42607617  1
  O  O578  1  0.42583054  0.14766077  0.67528152  1
  O  O579  1  0.42749944  0.14978977  0.92618563  1
  O  O580  1  0.42699384  0.48018717  0.17661703  1
  O  O581  1  0.42619436  0.48186224  0.42610274  1
  O  O582  1  0.42753765  0.48017724  0.67707332  1
  O  O583  1  0.42678740  0.48196067  0.92668925  1
  O  O584  1  0.42725586  0.81320421  0.17692523  1
  O  O585  1  0.42589667  0.81339666  0.42436416  1
  O  O586  1  0.42545489  0.81338958  0.67485927  1
  O  O587  1  0.42632316  0.81474737  0.92681009  1
  O  O588  1  0.92662904  0.14517245  0.17578866  1
  O  O589  1  0.92717795  0.14564127  0.42514526  1
  O  O590  1  0.92884691  0.14674479  0.67539075  1
  O  O591  1  0.92743311  0.14761851  0.92490669  1
  O  O592  1  0.92706866  0.47800344  0.17563869  1
  O  O593  1  0.92837977  0.48004248  0.42650806  1
  O  O594  1  0.92672857  0.47957296  0.67422078  1
  O  O595  1  0.92750910  0.48090168  0.92559351  1
  O  O596  1  0.92634204  0.81240852  0.17341853  1
  O  O597  1  0.92677929  0.81467374  0.42599036  1
  O  O598  1  0.92659026  0.81206272  0.67535114  1
  O  O599  1  0.92788521  0.81247467  0.92408750  1
  O  O600  1  0.07383816  0.18451551  0.07438633  1
  O  O601  1  0.07310414  0.18752594  0.32574414  1
  O  O602  1  0.07331914  0.18693722  0.57433878  1
  O  O603  1  0.07378765  0.18535856  0.82293329  1
  O  O604  1  0.07243303  0.51868910  0.07318882  1
  O  O605  1  0.07463664  0.51951789  0.32465717  1
  O  O606  1  0.07297346  0.51868286  0.57439750  1
  O  O607  1  0.07348657  0.52078616  0.82479417  1
  O  O608  1  0.07445319  0.85313893  0.07528771  1
  O  O609  1  0.07289953  0.85419289  0.32490922  1
  O  O610  1  0.07206283  0.85277135  0.57358261  1
  O  O611  1  0.07401506  0.85421326  0.82377342  1
  O  O612  1  0.57303515  0.18576905  0.07432973  1
  O  O613  1  0.57187082  0.18719608  0.32370674  1
  O  O614  1  0.57239397  0.18636569  0.57410704  1
  O  O615  1  0.57351889  0.18880283  0.82459452  1
  O  O616  1  0.57282732  0.51849113  0.07508672  1
  O  O617  1  0.57216751  0.51946753  0.32398133  1
  O  O618  1  0.57182082  0.51777487  0.57403098  1
  O  O619  1  0.57300835  0.51919018  0.82404458  1
  O  O620  1  0.57254377  0.85163846  0.07449188  1
  O  O621  1  0.57266451  0.85222401  0.32431554  1
  O  O622  1  0.57353752  0.85327492  0.57536353  1
  O  O623  1  0.57325291  0.85378015  0.82562152  1
  O  O624  1  0.32279500  0.18772305  0.05001267  1
  O  O625  1  0.32304287  0.18632183  0.30113604  1
  O  O626  1  0.32171037  0.18653033  0.55271361  1
  O  O627  1  0.32184384  0.18726569  0.80165898  1
  O  O628  1  0.32129981  0.51937851  0.05236211  1
  O  O629  1  0.32283579  0.52021859  0.29921516  1
  O  O630  1  0.32132685  0.52039685  0.55216359  1
  O  O631  1  0.32373586  0.52023424  0.79956144  1
  O  O632  1  0.32324162  0.85293670  0.05139073  1
  O  O633  1  0.32188446  0.85318827  0.30207282  1
  O  O634  1  0.32296990  0.85560130  0.54954053  1
  O  O635  1  0.32283735  0.85494346  0.79957228  1
  O  O636  1  0.82420384  0.18601181  0.04936418  1
  O  O637  1  0.82321393  0.18488567  0.30158517  1
  O  O638  1  0.82269781  0.18662875  0.55156310  1
  O  O639  1  0.82454225  0.18671049  0.79848461  1
  O  O640  1  0.82415631  0.51950402  0.04972107  1
  O  O641  1  0.82342577  0.51757623  0.30198751  1
  O  O642  1  0.82225144  0.51919423  0.55183268  1
  O  O643  1  0.82324356  0.51799440  0.79963685  1
  O  O644  1  0.82386831  0.85266292  0.04871345  1
  O  O645  1  0.82390884  0.85234838  0.30007712  1
  O  O646  1  0.82405857  0.85316272  0.55036497  1
  O  O647  1  0.82219240  0.85214824  0.80110367  1
  O  O648  1  0.17606387  0.14680745  0.20060181  1
  O  O649  1  0.17778900  0.14779366  0.44928199  1
  O  O650  1  0.17884557  0.14767183  0.69807356  1
  O  O651  1  0.17904151  0.14768121  0.94740273  1
  O  O652  1  0.17806181  0.47998629  0.19757046  1
  O  O653  1  0.17665654  0.48034911  0.45115368  1
  O  O654  1  0.17864818  0.48032354  0.69868709  1
  O  O655  1  0.17747184  0.47922379  0.94986922  1
  O  O656  1  0.17796934  0.81467751  0.19835842  1
  O  O657  1  0.17687412  0.81555978  0.44926920  1
  O  O658  1  0.17626044  0.81349832  0.69935961  1
  O  O659  1  0.17614970  0.81351064  0.95051131  1
  O  O660  1  0.67611322  0.14653722  0.19944973  1
  O  O661  1  0.67667972  0.14844123  0.44906670  1
  O  O662  1  0.67675603  0.14743936  0.69983841  1
  O  O663  1  0.67717342  0.14572842  0.94898716  1
  O  O664  1  0.67618348  0.47899561  0.20038411  1
  O  O665  1  0.67697161  0.48124477  0.44988962  1
  O  O666  1  0.67702735  0.47980057  0.69814115  1
  O  O667  1  0.67690733  0.48099484  0.94852517  1
  O  O668  1  0.67605421  0.81228143  0.20017497  1
  O  O669  1  0.67577002  0.81249703  0.45123224  1
  O  O670  1  0.67659043  0.81201434  0.70010075  1
  O  O671  1  0.67706129  0.81400608  0.94844887  1
