# generated using pymatgen
data_Na2MnFe(PO4)2
_symmetry_space_group_name_H-M   'P 1'
_cell_length_a   22.34061341
_cell_length_b   20.09646646
_cell_length_c   19.45311774
_cell_angle_alpha   90.00406610
_cell_angle_beta   89.97588209
_cell_angle_gamma   90.00263380
_symmetry_Int_Tables_number   1
_chemical_formula_structural   Na2MnFe(PO4)2
_chemical_formula_sum   'Na96 Mn48 Fe48 P96 O384'
_cell_volume   8733.81465343
_cell_formula_units_Z   48
loop_
 _symmetry_equiv_pos_site_id
 _symmetry_equiv_pos_as_xyz
  1  'x, y, z'
loop_
 _atom_site_type_symbol
 _atom_site_label
 _atom_site_symmetry_multiplicity
 _atom_site_fract_x
 _atom_site_fract_y
 _atom_site_fract_z
 _atom_site_occupancy
  Na  Na0  1  0.14094118  0.25080988  0.24560266  1
  Na  Na1  1  0.14088059  0.25010173  0.49378021  1
  Na  Na2  1  0.14057310  0.25076504  0.74341619  1
  Na  Na3  1  0.14082603  0.24974080  0.99406469  1
  Na  Na4  1  0.14061623  0.58326135  0.24443979  1
  Na  Na5  1  0.14030072  0.58193589  0.49373000  1
  Na  Na6  1  0.14075836  0.58329948  0.74416201  1
  Na  Na7  1  0.14121715  0.58348614  0.99533717  1
  Na  Na8  1  0.14085040  0.91679922  0.24501967  1
  Na  Na9  1  0.14018995  0.91840417  0.49382272  1
  Na  Na10  1  0.14068281  0.91772845  0.74417431  1
  Na  Na11  1  0.14083136  0.91681029  0.99441961  1
  Na  Na12  1  0.64018387  0.24871459  0.24377933  1
  Na  Na13  1  0.63974917  0.25087341  0.49271920  1
  Na  Na14  1  0.63976808  0.24930127  0.74130458  1
  Na  Na15  1  0.64044970  0.25120106  0.99375461  1
  Na  Na16  1  0.63975609  0.58315319  0.24286263  1
  Na  Na17  1  0.64021655  0.58463204  0.49138592  1
  Na  Na18  1  0.64045420  0.58259681  0.74316467  1
  Na  Na19  1  0.64041802  0.58404600  0.99350661  1
  Na  Na20  1  0.64067768  0.91517477  0.24331175  1
  Na  Na21  1  0.63982556  0.91694171  0.49236391  1
  Na  Na22  1  0.64005947  0.91499549  0.74241035  1
  Na  Na23  1  0.64036783  0.91596923  0.99343558  1
  Na  Na24  1  0.36019121  0.08279740  0.00551257  1
  Na  Na25  1  0.36053667  0.08466826  0.25726624  1
  Na  Na26  1  0.36053677  0.08425394  0.50774240  1
  Na  Na27  1  0.35996192  0.08396059  0.75607668  1
  Na  Na28  1  0.36031056  0.41709308  0.00690351  1
  Na  Na29  1  0.36007538  0.41604053  0.25797930  1
  Na  Na30  1  0.36046413  0.41573144  0.50619923  1
  Na  Na31  1  0.36024540  0.41675109  0.75542629  1
  Na  Na32  1  0.35951803  0.74953911  0.00629507  1
  Na  Na33  1  0.36036975  0.74786225  0.25686653  1
  Na  Na34  1  0.36041241  0.75002818  0.50729254  1
  Na  Na35  1  0.35986895  0.75141055  0.75590554  1
  Na  Na36  1  0.85884793  0.08307935  0.00692734  1
  Na  Na37  1  0.85930545  0.08140708  0.25713155  1
  Na  Na38  1  0.85928029  0.08432355  0.50715550  1
  Na  Na39  1  0.85889921  0.08231422  0.75431741  1
  Na  Na40  1  0.85891070  0.41801145  0.00556591  1
  Na  Na41  1  0.85887701  0.41637424  0.25702496  1
  Na  Na42  1  0.85890611  0.41775674  0.50666863  1
  Na  Na43  1  0.85893118  0.41629795  0.75562105  1
  Na  Na44  1  0.85864370  0.75049303  0.00607718  1
  Na  Na45  1  0.85893830  0.74879468  0.25642610  1
  Na  Na46  1  0.85916084  0.75115894  0.50561278  1
  Na  Na47  1  0.85846535  0.74879768  0.75538417  1
  Na  Na48  1  0.10993136  0.08292579  0.12024252  1
  Na  Na49  1  0.11014042  0.08421582  0.37070773  1
  Na  Na50  1  0.10996794  0.08293305  0.61788326  1
  Na  Na51  1  0.10975856  0.08394510  0.86813446  1
  Na  Na52  1  0.11012592  0.41722522  0.11991034  1
  Na  Na53  1  0.10993811  0.41834711  0.36901606  1
  Na  Na54  1  0.10955107  0.41592661  0.61854983  1
  Na  Na55  1  0.11021435  0.41646216  0.86924527  1
  Na  Na56  1  0.11024047  0.74965685  0.11978695  1
  Na  Na57  1  0.10945924  0.75142332  0.36932407  1
  Na  Na58  1  0.10920110  0.75000493  0.61884649  1
  Na  Na59  1  0.11001362  0.75036088  0.86952869  1
  Na  Na60  1  0.60983345  0.08344617  0.11887716  1
  Na  Na61  1  0.60997275  0.08418919  0.36919604  1
  Na  Na62  1  0.60962346  0.08382500  0.61630270  1
  Na  Na63  1  0.60941314  0.08256249  0.86753942  1
  Na  Na64  1  0.60995297  0.41614552  0.11916010  1
  Na  Na65  1  0.60937744  0.41673850  0.36766180  1
  Na  Na66  1  0.60920010  0.41594416  0.61690241  1
  Na  Na67  1  0.60956209  0.41665480  0.86808481  1
  Na  Na68  1  0.61014626  0.74894564  0.11770000  1
  Na  Na69  1  0.60990963  0.74913285  0.36780753  1
  Na  Na70  1  0.60914761  0.74972407  0.61702850  1
  Na  Na71  1  0.61002368  0.74964886  0.86783830  1
  Na  Na72  1  0.39107669  0.25061635  0.13233464  1
  Na  Na73  1  0.39082159  0.25008048  0.38250631  1
  Na  Na74  1  0.39051676  0.24975363  0.63094069  1
  Na  Na75  1  0.39086990  0.25042684  0.88069774  1
  Na  Na76  1  0.39066436  0.58190090  0.13303736  1
  Na  Na77  1  0.39091989  0.58228912  0.38177388  1
  Na  Na78  1  0.39083248  0.58290570  0.63049961  1
  Na  Na79  1  0.39087036  0.58288184  0.88151649  1
  Na  Na80  1  0.39085180  0.91738975  0.13074296  1
  Na  Na81  1  0.39163692  0.91699843  0.38280347  1
  Na  Na82  1  0.39065460  0.91798862  0.63138887  1
  Na  Na83  1  0.39005868  0.91651920  0.88108390  1
  Na  Na84  1  0.89002478  0.24933523  0.13183730  1
  Na  Na85  1  0.89000569  0.24978558  0.38260814  1
  Na  Na86  1  0.88960984  0.24961220  0.63092131  1
  Na  Na87  1  0.88988834  0.25054943  0.87999613  1
  Na  Na88  1  0.88958636  0.58397254  0.13136387  1
  Na  Na89  1  0.88945453  0.58513541  0.38170621  1
  Na  Na90  1  0.88957057  0.58257471  0.63091739  1
  Na  Na91  1  0.88948809  0.58310265  0.88113871  1
  Na  Na92  1  0.88965617  0.91575598  0.13239274  1
  Na  Na93  1  0.89041349  0.91773052  0.38140352  1
  Na  Na94  1  0.88967957  0.91692582  0.63001232  1
  Na  Na95  1  0.88949007  0.91634629  0.88130707  1
  Mn  Mn96  1  0.25092177  0.83318379  0.37552227  1
  Mn  Mn97  1  -0.00108733  0.50148898  0.24979074  1
  Mn  Mn98  1  0.25003697  0.33367315  0.62462183  1
  Mn  Mn99  1  0.74947556  0.50065608  0.62461291  1
  Mn  Mn100  1  0.25056168  0.16691311  0.12505041  1
  Mn  Mn101  1  -0.00048679  0.83359308  0.74969444  1
  Mn  Mn102  1  -0.00017424  0.66700743  0.50033783  1
  Mn  Mn103  1  0.00000546  0.49997906  0.00019810  1
  Mn  Mn104  1  0.74895852  0.83276429  0.62429939  1
  Mn  Mn105  1  0.74990159  0.16613429  0.12484641  1
  Mn  Mn106  1  0.25113079  0.49968871  0.87543861  1
  Mn  Mn107  1  0.00024225  0.49879008  0.75073618  1
  Mn  Mn108  1  -0.00017848  0.66667571  0.00010176  1
  Mn  Mn109  1  0.25102083  0.66717034  0.87496048  1
  Mn  Mn110  1  0.50024704  0.66702448  0.74928235  1
  Mn  Mn111  1  0.50063788  0.33364206  0.00053065  1
  Mn  Mn112  1  -0.00024398  -0.00004582  0.00028969  1
  Mn  Mn113  1  -0.00020214  0.33381163  0.25100488  1
  Mn  Mn114  1  0.74963757  -0.00028804  0.37460172  1
  Mn  Mn115  1  0.50081229  0.00096343  0.25101586  1
  Mn  Mn116  1  0.74986168  0.33402597  0.87406834  1
  Mn  Mn117  1  0.49967213  0.66544130  -0.00052375  1
  Mn  Mn118  1  -0.00010681  0.16665055  0.00030701  1
  Mn  Mn119  1  0.25142217  0.00108841  0.37515277  1
  Mn  Mn120  1  0.50100415  0.16629106  -0.00009571  1
  Mn  Mn121  1  0.00035143  0.16595710  0.25125621  1
  Mn  Mn122  1  0.24935082  0.83455899  0.62596407  1
  Mn  Mn123  1  0.25124666  0.33402735  0.12554336  1
  Mn  Mn124  1  -0.00017218  0.83317827  0.00095050  1
  Mn  Mn125  1  0.25071209  -0.00000474  0.12549297  1
  Mn  Mn126  1  0.25143198  0.83257240  0.12503718  1
  Mn  Mn127  1  0.74945472  0.16650041  0.87446463  1
  Mn  Mn128  1  0.50075032  0.83274849  0.25029851  1
  Mn  Mn129  1  0.50052315  -0.00009669  0.74875582  1
  Mn  Mn130  1  -0.00017304  0.00007710  0.74961875  1
  Mn  Mn131  1  -0.00055427  0.33372400  0.49996949  1
  Mn  Mn132  1  -0.00011996  0.33324223  0.00044477  1
  Mn  Mn133  1  0.49975669  0.83333279  -0.00022652  1
  Mn  Mn134  1  0.00024272  0.83406127  0.25055128  1
  Mn  Mn135  1  0.50056863  0.49915973  0.74902961  1
  Mn  Mn136  1  0.24983464  0.66534060  0.37623908  1
  Mn  Mn137  1  0.74976413  0.50038328  0.12475497  1
  Mn  Mn138  1  -0.00072804  0.16717809  0.74942459  1
  Mn  Mn139  1  -0.00061318  0.66625550  0.74931789  1
  Mn  Mn140  1  0.74916299  -0.00109475  0.87503344  1
  Mn  Mn141  1  0.24981079  0.66602188  0.62584529  1
  Mn  Mn142  1  0.74994273  0.33283606  0.37523870  1
  Mn  Mn143  1  0.25032275  0.16692451  0.87494958  1
  Fe  Fe144  1  0.00028964  0.66748611  0.25090473  1
  Fe  Fe145  1  0.25041798  0.66626665  0.12556671  1
  Fe  Fe146  1  0.50050096  0.33332653  0.25067385  1
  Fe  Fe147  1  0.75006988  0.83298871  0.37422260  1
  Fe  Fe148  1  0.74932078  -0.00108018  0.12541579  1
  Fe  Fe149  1  0.50017205  0.49914738  0.00081591  1
  Fe  Fe150  1  0.00021476  0.16668235  0.50044552  1
  Fe  Fe151  1  -0.00035362  0.50034602  0.50007354  1
  Fe  Fe152  1  0.75000947  0.66709231  0.12445636  1
  Fe  Fe153  1  0.25069704  0.49935854  0.37503934  1
  Fe  Fe154  1  0.25030736  0.33348156  0.37552094  1
  Fe  Fe155  1  0.24961968  0.83399355  0.87554796  1
  Fe  Fe156  1  0.50011527  0.66642440  0.49920125  1
  Fe  Fe157  1  0.74992013  0.83291094  0.87473987  1
  Fe  Fe158  1  0.50038252  0.16668946  0.74891429  1
  Fe  Fe159  1  0.24978359  0.00071619  0.87487373  1
  Fe  Fe160  1  0.74915282  0.33358308  0.62449331  1
  Fe  Fe161  1  0.49969813  0.83358071  0.74918271  1
  Fe  Fe162  1  0.00022122  0.00032402  0.25113674  1
  Fe  Fe163  1  0.74935327  0.66699563  0.37390474  1
  Fe  Fe164  1  0.74959778  0.50021998  0.37494318  1
  Fe  Fe165  1  0.25028780  0.33381829  0.87493516  1
  Fe  Fe166  1  0.25045698  0.16706154  0.37621881  1
  Fe  Fe167  1  -0.00030226  0.00021579  0.50016066  1
  Fe  Fe168  1  0.74928758  0.16662533  0.62445729  1
  Fe  Fe169  1  -0.00038510  0.83398579  0.49930048  1
  Fe  Fe170  1  0.49963208  0.16694166  0.25044968  1
  Fe  Fe171  1  0.50017654  0.00057707  0.50025495  1
  Fe  Fe172  1  0.74931429  0.66647528  0.62424028  1
  Fe  Fe173  1  0.25037712  0.00083736  0.62531678  1
  Fe  Fe174  1  0.50020214  0.00000269  -0.00035715  1
  Fe  Fe175  1  0.25023519  0.49945787  0.62494299  1
  Fe  Fe176  1  0.50024312  0.49965986  0.25051855  1
  Fe  Fe177  1  0.25035260  0.16714192  0.62551889  1
  Fe  Fe178  1  0.50003536  0.66616667  0.25003101  1
  Fe  Fe179  1  0.75011669  0.16661389  0.37546147  1
  Fe  Fe180  1  0.74951821  0.66667673  0.87474256  1
  Fe  Fe181  1  0.49995124  0.33285991  0.74912260  1
  Fe  Fe182  1  0.74963932  0.83251070  0.12446696  1
  Fe  Fe183  1  -0.00030638  0.33302107  0.74943811  1
  Fe  Fe184  1  0.50020473  0.83314392  0.49946342  1
  Fe  Fe185  1  0.74911275  0.50035535  0.87447168  1
  Fe  Fe186  1  0.50034736  0.49963270  0.49892436  1
  Fe  Fe187  1  0.50034845  0.16753656  0.49953229  1
  Fe  Fe188  1  0.75019654  0.33317343  0.12518217  1
  Fe  Fe189  1  0.50027350  0.33293828  0.49936402  1
  Fe  Fe190  1  0.74944499  -0.00045303  0.62421101  1
  Fe  Fe191  1  0.25023030  0.49985278  0.12578489  1
  P  P192  1  0.04316153  0.24982038  0.10397031  1
  P  P193  1  0.04259294  0.25007821  0.35453285  1
  P  P194  1  0.04213584  0.24934238  0.60255570  1
  P  P195  1  0.04248844  0.25130081  0.85211381  1
  P  P196  1  0.04273181  0.58390869  0.10399151  1
  P  P197  1  0.04189680  0.58510262  0.35322191  1
  P  P198  1  0.04210962  0.58178543  0.60248941  1
  P  P199  1  0.04311641  0.58336716  0.85313003  1
  P  P200  1  0.04288060  0.91697275  0.10437260  1
  P  P201  1  0.04235314  0.91865806  0.35392932  1
  P  P202  1  0.04138048  0.91656333  0.60117696  1
  P  P203  1  0.04267989  0.91683706  0.85320638  1
  P  P204  1  0.54286570  0.25006506  0.10413023  1
  P  P205  1  0.54147855  0.25009247  0.35224861  1
  P  P206  1  0.54144209  0.25003552  0.60157829  1
  P  P207  1  0.54176370  0.24988366  0.85073799  1
  P  P208  1  0.54210374  0.58140118  0.10321187  1
  P  P209  1  0.54118447  0.58327660  0.35202930  1
  P  P210  1  0.54133485  0.58305655  0.60040462  1
  P  P211  1  0.54270979  0.58273750  0.85263531  1
  P  P212  1  0.54234496  0.91786335  0.10231491  1
  P  P213  1  0.54293392  0.91654911  0.35415989  1
  P  P214  1  0.54128992  0.91639561  0.60116378  1
  P  P215  1  0.54211813  0.91556559  0.85182301  1
  P  P216  1  0.45816206  0.08452151  0.14773545  1
  P  P217  1  0.45895851  0.08427033  0.39862136  1
  P  P218  1  0.45839711  0.08495001  0.64626992  1
  P  P219  1  0.45842424  0.08221555  0.89675586  1
  P  P220  1  0.45893085  0.41644887  0.14919026  1
  P  P221  1  0.45937513  0.41600491  0.39753495  1
  P  P222  1  0.45830699  0.41477680  0.64599344  1
  P  P223  1  0.45820071  0.41733383  0.89754876  1
  P  P224  1  0.45831908  0.74845492  0.14769938  1
  P  P225  1  0.45884211  0.74934433  0.39796152  1
  P  P226  1  0.45814940  0.75161635  0.64609774  1
  P  P227  1  0.45715702  0.74997713  0.89623503  1
  P  P228  1  0.95731780  0.08184654  0.14851798  1
  P  P229  1  0.95828068  0.08339106  0.39888726  1
  P  P230  1  0.95727689  0.08324813  0.64548625  1
  P  P231  1  0.95640828  0.08365937  0.89687940  1
  P  P232  1  0.95640758  0.41678781  0.14730787  1
  P  P233  1  0.95703341  0.41876077  0.39782206  1
  P  P234  1  0.95729145  0.41544773  0.64713097  1
  P  P235  1  0.95683917  0.41611658  0.89651466  1
  P  P236  1  0.95749605  0.74909179  0.14844664  1
  P  P237  1  0.95772123  0.75149537  0.39721386  1
  P  P238  1  0.95671473  0.75044801  0.64578048  1
  P  P239  1  0.95661409  0.75010327  0.89693006  1
  P  P240  1  0.20804947  0.08411776  0.22914642  1
  P  P241  1  0.20883431  0.08481612  0.47888683  1
  P  P242  1  0.20869928  0.08362302  0.72694527  1
  P  P243  1  0.20757875  0.08247695  0.97737615  1
  P  P244  1  0.20841254  0.41789574  0.22871381  1
  P  P245  1  0.20907860  0.41681314  0.47702254  1
  P  P246  1  0.20783316  0.41770568  0.72762155  1
  P  P247  1  0.20835170  0.41580393  0.97818688  1
  P  P248  1  0.20853828  0.74847101  0.22799196  1
  P  P249  1  0.20729066  0.74996075  0.47886432  1
  P  P250  1  0.20706106  0.75069205  0.72903492  1
  P  P251  1  0.20832639  0.75070744  0.97810797  1
  P  P252  1  0.70776720  0.08153644  0.22778415  1
  P  P253  1  0.70803171  0.08462784  0.47795931  1
  P  P254  1  0.70787328  0.08244519  0.72566526  1
  P  P255  1  0.70671840  0.08292126  0.97822311  1
  P  P256  1  0.70813404  0.41538076  0.22762506  1
  P  P257  1  0.70744261  0.41799227  0.47724031  1
  P  P258  1  0.70694174  0.41587909  0.72677589  1
  P  P259  1  0.70747752  0.41832745  0.97731015  1
  P  P260  1  0.70840805  0.74957697  0.22657539  1
  P  P261  1  0.70834107  0.75030153  0.47584106  1
  P  P262  1  0.70707883  0.74769549  0.72719603  1
  P  P263  1  0.70812650  0.75014348  0.97662245  1
  P  P264  1  0.29378722  0.25039533  0.02173711  1
  P  P265  1  0.29192391  0.25010762  0.27439698  1
  P  P266  1  0.29219021  0.24878744  0.52226063  1
  P  P267  1  0.29218431  0.25151806  0.77219386  1
  P  P268  1  0.29226950  0.58306074  0.02418349  1
  P  P269  1  0.29248719  0.58160543  0.27255633  1
  P  P270  1  0.29225027  0.58126813  0.52254792  1
  P  P271  1  0.29361305  0.58298882  0.77164096  1
  P  P272  1  0.29301460  0.91671682  0.02108433  1
  P  P273  1  0.29430417  0.91644907  0.27237245  1
  P  P274  1  0.29254513  0.91842272  0.52327442  1
  P  P275  1  0.29117808  0.91776334  0.77341760  1
  P  P276  1  0.79210074  0.25146087  0.02244994  1
  P  P277  1  0.79235834  0.24814965  0.27268320  1
  P  P278  1  0.79060867  0.25032845  0.52305366  1
  P  P279  1  0.79165732  0.24968763  0.77029196  1
  P  P280  1  0.79168861  0.58540395  0.02170482  1
  P  P281  1  0.79068380  0.58306681  0.27303584  1
  P  P282  1  0.79130768  0.58511687  0.52131919  1
  P  P283  1  0.79090331  0.58335754  0.77282057  1
  P  P284  1  0.79111791  0.91609893  0.02334610  1
  P  P285  1  0.79180997  0.91460606  0.27168894  1
  P  P286  1  0.79130911  0.91754741  0.52175017  1
  P  P287  1  0.79146798  0.91499377  0.77183141  1
  O  O288  1  0.03814446  0.24977342  0.18398139  1
  O  O289  1  0.03717658  0.24971952  0.43445113  1
  O  O290  1  0.03682098  0.25015244  0.68247131  1
  O  O291  1  0.03766834  0.25079750  0.93212362  1
  O  O292  1  0.03739870  0.58465333  0.18394750  1
  O  O293  1  0.03663851  0.58419167  0.43315246  1
  O  O294  1  0.03704985  0.58176538  0.68241537  1
  O  O295  1  0.03814813  0.58343843  0.93311689  1
  O  O296  1  0.03789159  0.91754784  0.18437780  1
  O  O297  1  0.03649963  0.91816557  0.43377090  1
  O  O298  1  0.03642831  0.91656861  0.68114646  1
  O  O299  1  0.03777829  0.91683028  0.93320210  1
  O  O300  1  0.53747748  0.25005467  0.18399409  1
  O  O301  1  0.53606931  0.25024964  0.43213326  1
  O  O302  1  0.53641320  0.24985209  0.68145570  1
  O  O303  1  0.53711609  0.24985658  0.93074356  1
  O  O304  1  0.53683526  0.58194951  0.18310364  1
  O  O305  1  0.53618793  0.58317682  0.43189012  1
  O  O306  1  0.53670176  0.58316677  0.68036040  1
  O  O307  1  0.53740579  0.58226993  0.93253966  1
  O  O308  1  0.53744344  0.91763159  0.18228986  1
  O  O309  1  0.53732742  0.91633695  0.43401521  1
  O  O310  1  0.53650922  0.91618253  0.68115517  1
  O  O311  1  0.53697900  0.91630370  0.93173526  1
  O  O312  1  0.46345223  0.08378101  0.06783025  1
  O  O313  1  0.46360800  0.08432909  0.31865194  1
  O  O314  1  0.46354684  0.08490335  0.56641290  1
  O  O315  1  0.46364899  0.08253633  0.81682781  1
  O  O316  1  0.46353944  0.41709601  0.06922184  1
  O  O317  1  0.46442527  0.41618407  0.31768050  1
  O  O318  1  0.46391509  0.41477723  0.56617514  1
  O  O319  1  0.46336964  0.41662761  0.81764660  1
  O  O320  1  0.46326818  0.74853106  0.06775110  1
  O  O321  1  0.46388205  0.74869251  0.31800445  1
  O  O322  1  0.46375792  0.75164442  0.56623147  1
  O  O323  1  0.46216344  0.75046700  0.81626839  1
  O  O324  1  0.96211376  0.08234613  0.06852502  1
  O  O325  1  0.96337844  0.08283635  0.31892927  1
  O  O326  1  0.96285308  0.08331384  0.56559837  1
  O  O327  1  0.96127828  0.08368669  0.81684408  1
  O  O328  1  0.96154629  0.41665168  0.06734385  1
  O  O329  1  0.96200350  0.41853760  0.31789476  1
  O  O330  1  0.96245965  0.41634999  0.56719318  1
  O  O331  1  0.96191951  0.41546292  0.81652981  1
  O  O332  1  0.96232430  0.74935106  0.06847780  1
  O  O333  1  0.96337190  0.75074646  0.31735156  1
  O  O334  1  0.96222191  0.75106210  0.56583588  1
  O  O335  1  0.96135037  0.75006444  0.81691378  1
  O  O336  1  0.21266889  0.08283059  0.05732029  1
  O  O337  1  0.21343550  0.08483948  0.30908646  1
  O  O338  1  0.21406451  0.08446463  0.55878246  1
  O  O339  1  0.21374884  0.08307832  0.80690224  1
  O  O340  1  0.21358037  0.41641247  0.05812518  1
  O  O341  1  0.21365783  0.41772500  0.30859413  1
  O  O342  1  0.21361663  0.41697298  0.55698836  1
  O  O343  1  0.21313598  0.41698361  0.80751482  1
  O  O344  1  0.21389081  0.74974262  0.05803654  1
  O  O345  1  0.21352660  0.74860930  0.30796096  1
  O  O346  1  0.21203445  0.75014237  0.55883791  1
  O  O347  1  0.21253153  0.75122965  0.80895329  1
  O  O348  1  0.71195775  0.08259799  0.05814954  1
  O  O349  1  0.71323577  0.08205310  0.30767076  1
  O  O350  1  0.71336929  0.08437675  0.55781046  1
  O  O351  1  0.71254501  0.08250939  0.80567168  1
  O  O352  1  0.71280773  0.41784651  0.05718396  1
  O  O353  1  0.71342797  0.41580967  0.30750287  1
  O  O354  1  0.71265800  0.41748562  0.55713231  1
  O  O355  1  0.71206254  0.41652820  0.80665254  1
  O  O356  1  0.71338335  0.75050575  0.05648155  1
  O  O357  1  0.71359732  0.74963313  0.30640981  1
  O  O358  1  0.71267083  0.74974947  0.55576847  1
  O  O359  1  0.71237965  0.74759922  0.80696680  1
  O  O360  1  0.28761054  0.25054434  0.19440493  1
  O  O361  1  0.28699748  0.24868605  0.44242612  1
  O  O362  1  0.28674299  0.25088742  0.69227463  1
  O  O363  1  0.28866839  0.25074368  0.94179288  1
  O  O364  1  0.28725800  0.58201815  0.19268966  1
  O  O365  1  0.28690984  0.58101404  0.44261690  1
  O  O366  1  0.28827997  0.58239171  0.69173430  1
  O  O367  1  0.28749167  0.58316004  0.94418124  1
  O  O368  1  0.28933272  0.91638199  0.19239132  1
  O  O369  1  0.28798539  0.91801830  0.44330064  1
  O  O370  1  0.28592981  0.91832012  0.69344412  1
  O  O371  1  0.28727610  0.91668322  0.94121510  1
  O  O372  1  0.78734885  0.24857061  0.19279997  1
  O  O373  1  0.78587839  0.24963174  0.44308127  1
  O  O374  1  0.78599504  0.24979495  0.69042998  1
  O  O375  1  0.78679057  0.25134011  0.94251269  1
  O  O376  1  0.78625480  0.58329949  0.19311239  1
  O  O377  1  0.78596752  0.58469308  0.44149588  1
  O  O378  1  0.78589896  0.58334110  0.69284937  1
  O  O379  1  0.78614781  0.58556983  0.94192060  1
  O  O380  1  0.78617346  0.91493224  0.19187970  1
  O  O381  1  0.78632814  0.91694521  0.44187977  1
  O  O382  1  0.78594359  0.91567844  0.69195939  1
  O  O383  1  0.78597589  0.91582142  0.94338098  1
  O  O384  1  0.22937676  0.25059982  0.05697904  1
  O  O385  1  0.22763631  0.24966567  0.30985741  1
  O  O386  1  0.22805074  0.24874200  0.55837472  1
  O  O387  1  0.22806695  0.25171730  0.80832579  1
  O  O388  1  0.22804116  0.58311638  0.06005383  1
  O  O389  1  0.22824817  0.58120661  0.30853325  1
  O  O390  1  0.22800515  0.58112163  0.55842921  1
  O  O391  1  0.22934250  0.58314789  0.80709976  1
  O  O392  1  0.22893453  0.91637840  0.05724484  1
  O  O393  1  0.22977200  0.91690513  0.30721530  1
  O  O394  1  0.22804449  0.91895919  0.55831114  1
  O  O395  1  0.22711935  0.91787281  0.80972099  1
  O  O396  1  0.72784373  0.25126378  0.05826746  1
  O  O397  1  0.72798768  0.24811077  0.30829202  1
  O  O398  1  0.72641703  0.25093994  0.55884564  1
  O  O399  1  0.72751333  0.24990729  0.80634026  1
  O  O400  1  0.72762981  0.58531366  0.05812173  1
  O  O401  1  0.72644913  0.58252726  0.30875942  1
  O  O402  1  0.72709712  0.58501311  0.55737466  1
  O  O403  1  0.72679610  0.58325165  0.80896005  1
  O  O404  1  0.72695994  0.91615673  0.05949971  1
  O  O405  1  0.72770198  0.91458249  0.30796504  1
  O  O406  1  0.72703368  0.91780388  0.55752726  1
  O  O407  1  0.72727088  0.91447247  0.80785063  1
  O  O408  1  0.27242082  0.08383368  0.19377252  1
  O  O409  1  0.27304712  0.08533636  0.44288197  1
  O  O410  1  0.27290235  0.08371172  0.69092387  1
  O  O411  1  0.27196892  0.08228296  0.94191424  1
  O  O412  1  0.27266945  0.41847470  0.19275161  1
  O  O413  1  0.27333786  0.41698631  0.44135810  1
  O  O414  1  0.27215082  0.41807144  0.69186653  1
  O  O415  1  0.27266800  0.41499632  0.94241541  1
  O  O416  1  0.27289609  0.74799422  0.19252156  1
  O  O417  1  0.27186359  0.74941098  0.44413648  1
  O  O418  1  0.27134540  0.75052689  0.69351990  1
  O  O419  1  0.27244993  0.75162211  0.94199208  1
  O  O420  1  0.77185836  0.08106402  0.19161421  1
  O  O421  1  0.77212269  0.08455101  0.44170198  1
  O  O422  1  0.77208209  0.08208326  0.68992677  1
  O  O423  1  0.77105528  0.08296665  0.94278750  1
  O  O424  1  0.77225653  0.41543935  0.19152485  1
  O  O425  1  0.77171337  0.41810853  0.44152559  1
  O  O426  1  0.77125039  0.41552534  0.69106295  1
  O  O427  1  0.77162968  0.41871450  0.94120355  1
  O  O428  1  0.77244607  0.74993891  0.19008110  1
  O  O429  1  0.77257206  0.75063564  0.44013051  1
  O  O430  1  0.77123537  0.74803375  0.69098962  1
  O  O431  1  0.77212141  0.75001336  0.94006160  1
  O  O432  1  0.02184651  0.08159188  0.18364383  1
  O  O433  1  0.02246031  0.08354069  0.43478962  1
  O  O434  1  0.02145622  0.08358640  0.68131449  1
  O  O435  1  0.02104266  0.08342920  0.93149814  1
  O  O436  1  0.02090015  0.41737342  0.18220111  1
  O  O437  1  0.02145892  0.41853441  0.43303170  1
  O  O438  1  0.02162803  0.41472769  0.68273643  1
  O  O439  1  0.02131878  0.41650158  0.93156633  1
  O  O440  1  0.02195097  0.74892042  0.18367092  1
  O  O441  1  0.02185380  0.75171128  0.43322083  1
  O  O442  1  0.02102255  0.75004361  0.68121494  1
  O  O443  1  0.02120589  0.75026571  0.93161371  1
  O  O444  1  0.52240024  0.08539381  0.18359193  1
  O  O445  1  0.52314777  0.08434917  0.43434759  1
  O  O446  1  0.52259704  0.08480442  0.68215560  1
  O  O447  1  0.52263844  0.08165358  0.93268707  1
  O  O448  1  0.52316544  0.41560560  0.18486975  1
  O  O449  1  0.52334674  0.41576106  0.43385546  1
  O  O450  1  0.52236311  0.41429854  0.68235764  1
  O  O451  1  0.52247935  0.41828079  0.93338627  1
  O  O452  1  0.52267420  0.74801293  0.18314959  1
  O  O453  1  0.52304008  0.75002274  0.43377011  1
  O  O454  1  0.52220707  0.75192739  0.68246219  1
  O  O455  1  0.52148801  0.74953319  0.93155272  1
  O  O456  1  0.47874446  0.24988841  0.06820395  1
  O  O457  1  0.47746243  0.25035047  0.31576403  1
  O  O458  1  0.47738815  0.25031030  0.56528554  1
  O  O459  1  0.47753331  0.24987172  0.81497912  1
  O  O460  1  0.47789205  0.58102197  0.06716221  1
  O  O461  1  0.47720301  0.58395826  0.31571244  1
  O  O462  1  0.47711378  0.58301686  0.56492531  1
  O  O463  1  0.47849562  0.58280393  0.81702576  1
  O  O464  1  0.47804477  0.91814512  0.06676172  1
  O  O465  1  0.47881909  0.91662760  0.31827976  1
  O  O466  1  0.47716261  0.91601093  0.56534301  1
  O  O467  1  0.47787668  0.91561176  0.81599339  1
  O  O468  1  0.97858507  0.24979496  0.06919547  1
  O  O469  1  0.97827725  0.24985407  0.31919906  1
  O  O470  1  0.97785788  0.24892903  0.56691486  1
  O  O471  1  0.97799790  0.25172280  0.81687254  1
  O  O472  1  0.97831726  0.58333497  0.06880278  1
  O  O473  1  0.97757143  0.58611871  0.31761054  1
  O  O474  1  0.97771172  0.58202634  0.56717268  1
  O  O475  1  0.97853498  0.58290876  0.81840764  1
  O  O476  1  0.97837467  0.91673579  0.06936915  1
  O  O477  1  0.97828328  0.91876246  0.31759116  1
  O  O478  1  0.97715018  0.91654499  0.56542326  1
  O  O479  1  0.97810493  0.91696574  0.81848072  1
  O  O480  1  0.07416044  0.31331055  0.07585354  1
  O  O481  1  0.07324183  0.31402854  0.32677884  1
  O  O482  1  0.07342957  0.31269232  0.57429676  1
  O  O483  1  0.07320173  0.31476348  0.82353577  1
  O  O484  1  0.07384408  0.64710913  0.07532554  1
  O  O485  1  0.07306758  0.64865501  0.32532517  1
  O  O486  1  0.07342436  0.64535720  0.57497134  1
  O  O487  1  0.07371752  0.64693602  0.82462435  1
  O  O488  1  0.07414574  0.98003026  0.07559370  1
  O  O489  1  0.07330884  0.98217462  0.32564115  1
  O  O490  1  0.07210367  0.98044924  0.57334836  1
  O  O491  1  0.07361609  0.98031590  0.82480444  1
  O  O492  1  0.57384088  0.31357868  0.07554280  1
  O  O493  1  0.57286298  0.31348361  0.32403410  1
  O  O494  1  0.57264287  0.31337804  0.57298446  1
  O  O495  1  0.57243052  0.31363683  0.82258163  1
  O  O496  1  0.57316202  0.64490347  0.07478127  1
  O  O497  1  0.57275067  0.64645897  0.32358430  1
  O  O498  1  0.57210436  0.64679166  0.57217795  1
  O  O499  1  0.57358960  0.64647844  0.82471305  1
  O  O500  1  0.57296402  0.98139089  0.07376199  1
  O  O501  1  0.57426086  0.98003727  0.32625605  1
  O  O502  1  0.57129379  0.98081683  0.57321702  1
  O  O503  1  0.57369916  0.97870846  0.82344448  1
  O  O504  1  0.42726755  0.02102728  0.17617564  1
  O  O505  1  0.42861018  0.02027778  0.42704654  1
  O  O506  1  0.42705870  0.02146973  0.67430806  1
  O  O507  1  0.42766095  0.01869273  0.92539882  1
  O  O508  1  0.42758092  0.35300051  0.17721746  1
  O  O509  1  0.42800873  0.35265211  0.42577924  1
  O  O510  1  0.42709881  0.35165711  0.67503544  1
  O  O511  1  0.42767808  0.35356176  0.92592228  1
  O  O512  1  0.42737516  0.68505802  0.17618692  1
  O  O513  1  0.42830161  0.68561949  0.42670128  1
  O  O514  1  0.42715756  0.68774069  0.67369492  1
  O  O515  1  0.42602088  0.68637937  0.92418170  1
  O  O516  1  0.92671245  0.01828743  0.17705439  1
  O  O517  1  0.92718680  0.01995899  0.42731056  1
  O  O518  1  0.92625364  0.01968644  0.67371907  1
  O  O519  1  0.92524198  0.02032060  0.92517150  1
  O  O520  1  0.92584395  0.35319121  0.17582032  1
  O  O521  1  0.92571181  0.35519979  0.42545695  1
  O  O522  1  0.92657592  0.35169899  0.67516629  1
  O  O523  1  0.92564954  0.35296662  0.92520720  1
  O  O524  1  0.92675853  0.68561589  0.17702399  1
  O  O525  1  0.92622857  0.68827780  0.42534985  1
  O  O526  1  0.92574806  0.68661395  0.67336637  1
  O  O527  1  0.92580796  0.68653604  0.92514075  1
  O  O528  1  0.17713295  0.02032159  0.20147625  1
  O  O529  1  0.17794306  0.02119903  0.45054956  1
  O  O530  1  0.17757844  0.02029353  0.69833050  1
  O  O531  1  0.17671110  0.01906506  0.94896491  1
  O  O532  1  0.17760230  0.35408025  0.20075597  1
  O  O533  1  0.17898040  0.35256338  0.44885094  1
  O  O534  1  0.17669095  0.35433656  0.69919923  1
  O  O535  1  0.17743375  0.35234569  0.94966996  1
  O  O536  1  0.17765950  0.68504703  0.19947869  1
  O  O537  1  0.17603766  0.68653272  0.45094973  1
  O  O538  1  0.17610395  0.68696869  0.70120805  1
  O  O539  1  0.17739391  0.68707756  0.95000243  1
  O  O540  1  0.67681475  0.01791847  0.19970465  1
  O  O541  1  0.67663042  0.02124427  0.44991963  1
  O  O542  1  0.67679607  0.01889038  0.69760445  1
  O  O543  1  0.67548996  0.01970282  0.94970493  1
  O  O544  1  0.67781714  0.35144631  0.19929608  1
  O  O545  1  0.67615205  0.35461157  0.44918275  1
  O  O546  1  0.67622969  0.35230421  0.69829410  1
  O  O547  1  0.67625937  0.35483234  0.94926419  1
  O  O548  1  0.67791408  0.68568182  0.19813288  1
  O  O549  1  0.67779351  0.68672841  0.44677496  1
  O  O550  1  0.67641774  0.68434054  0.69788863  1
  O  O551  1  0.67691503  0.68661983  0.94856658  1
  O  O552  1  0.32523808  0.31339424  0.05052729  1
  O  O553  1  0.32197486  0.31417627  0.30300783  1
  O  O554  1  0.32330173  0.31255713  0.54988920  1
  O  O555  1  0.32280504  0.31526204  0.80033066  1
  O  O556  1  0.32296658  0.64684619  0.05223159  1
  O  O557  1  0.32350353  0.64510364  0.30106110  1
  O  O558  1  0.32303626  0.64525909  0.54999079  1
  O  O559  1  0.32458952  0.64675324  0.79935901  1
  O  O560  1  0.32406747  0.98023573  0.04939735  1
  O  O561  1  0.32555290  0.97981382  0.30050108  1
  O  O562  1  0.32340752  0.98189863  0.55170051  1
  O  O563  1  0.32254492  0.98111684  0.80162778  1
  O  O564  1  0.82249004  0.31521032  0.05092862  1
  O  O565  1  0.82362549  0.31153216  0.30091181  1
  O  O566  1  0.82167920  0.31414115  0.55055117  1
  O  O567  1  0.82312351  0.31292785  0.79860958  1
  O  O568  1  0.82259330  0.64869558  0.05086347  1
  O  O569  1  0.82104805  0.64695569  0.30155978  1
  O  O570  1  0.82197696  0.64863894  0.55007901  1
  O  O571  1  0.82207582  0.64672723  0.80102147  1
  O  O572  1  0.82173405  0.97995046  0.05149178  1
  O  O573  1  0.82305812  0.97806175  0.29993117  1
  O  O574  1  0.82193801  0.98124376  0.55007581  1
  O  O575  1  0.82260570  0.97845868  0.80004730  1
  O  O576  1  0.42715206  0.14807552  0.17604852  1
  O  O577  1  0.42777538  0.14767785  0.42681567  1
  O  O578  1  0.42769271  0.14832828  0.67540837  1
  O  O579  1  0.42744943  0.14588369  0.92465451  1
  O  O580  1  0.42871386  0.48020614  0.17824285  1
  O  O581  1  0.42885461  0.47984202  0.42620659  1
  O  O582  1  0.42738293  0.47855471  0.67389932  1
  O  O583  1  0.42706554  0.48066315  0.92605014  1
  O  O584  1  0.42764555  0.81237194  0.17536821  1
  O  O585  1  0.42757014  0.81288904  0.42579530  1
  O  O586  1  0.42699034  0.81481909  0.67507403  1
  O  O587  1  0.42614544  0.81322949  0.92496865  1
  O  O588  1  0.92644198  0.14547935  0.17667334  1
  O  O589  1  0.92758477  0.14731350  0.42680016  1
  O  O590  1  0.92573181  0.14642152  0.67378961  1
  O  O591  1  0.92578085  0.14734613  0.92518141  1
  O  O592  1  0.92495043  0.48016176  0.17512952  1
  O  O593  1  0.92663876  0.48244210  0.42639998  1
  O  O594  1  0.92618209  0.47886873  0.67547420  1
  O  O595  1  0.92595977  0.47987219  0.92442552  1
  O  O596  1  0.92661361  0.81280195  0.17627651  1
  O  O597  1  0.92704023  0.81537270  0.42504397  1
  O  O598  1  0.92546124  0.81362841  0.67428361  1
  O  O599  1  0.92574214  0.81353944  0.92547687  1
  O  O600  1  0.07399228  0.18627795  0.07558319  1
  O  O601  1  0.07419350  0.18703321  0.32624780  1
  O  O602  1  0.07290638  0.18562063  0.57448325  1
  O  O603  1  0.07325357  0.18754755  0.82405807  1
  O  O604  1  0.07382747  0.52024532  0.07620652  1
  O  O605  1  0.07262248  0.52150225  0.32481371  1
  O  O606  1  0.07253078  0.51813786  0.57378713  1
  O  O607  1  0.07442064  0.51995307  0.82521084  1
  O  O608  1  0.07362118  0.85307406  0.07656454  1
  O  O609  1  0.07374056  0.85519832  0.32584360  1
  O  O610  1  0.07226310  0.85293991  0.57306017  1
  O  O611  1  0.07353740  0.85337017  0.82491190  1
  O  O612  1  0.57435615  0.18698149  0.07545635  1
  O  O613  1  0.57212211  0.18626589  0.32404105  1
  O  O614  1  0.57219378  0.18638557  0.57291783  1
  O  O615  1  0.57237385  0.18605725  0.82249268  1
  O  O616  1  0.57296526  0.51787615  0.07466673  1
  O  O617  1  0.57143634  0.51921788  0.32352206  1
  O  O618  1  0.57200177  0.51927230  0.57221858  1
  O  O619  1  0.57408298  0.51967897  0.82391966  1
  O  O620  1  0.57315152  0.85398407  0.07466534  1
  O  O621  1  0.57409717  0.85326004  0.32539093  1
  O  O622  1  0.57302380  0.85344796  0.57271411  1
  O  O623  1  0.57242962  0.85168933  0.82344443  1
  O  O624  1  0.32443560  0.18656818  0.04983389  1
  O  O625  1  0.32315324  0.18674807  0.30245816  1
  O  O626  1  0.32317105  0.18568935  0.55161310  1
  O  O627  1  0.32352073  0.18804672  0.80001180  1
  O  O628  1  0.32292847  0.51924626  0.05217823  1
  O  O629  1  0.32357047  0.51828627  0.30129883  1
  O  O630  1  0.32336117  0.51801565  0.55106778  1
  O  O631  1  0.32500446  0.51991424  0.80033338  1
  O  O632  1  0.32466517  0.85354227  0.04939583  1
  O  O633  1  0.32487872  0.85272109  0.30056467  1
  O  O634  1  0.32320890  0.85466471  0.55130131  1
  O  O635  1  0.32158652  0.85362373  0.80113104  1
  O  O636  1  0.82341944  0.18789742  0.05002975  1
  O  O637  1  0.82279551  0.18446173  0.30138411  1
  O  O638  1  0.82112885  0.18668581  0.55180792  1
  O  O639  1  0.82274529  0.18615279  0.79852798  1
  O  O640  1  0.82298353  0.52185535  0.04959814  1
  O  O641  1  0.82176749  0.51960362  0.30147446  1
  O  O642  1  0.82261672  0.52174792  0.54972755  1
  O  O643  1  0.82134740  0.51932114  0.80091491  1
  O  O644  1  0.82215700  0.85257909  0.05153242  1
  O  O645  1  0.82273870  0.85118022  0.30028776  1
  O  O646  1  0.82237191  0.85413646  0.55003674  1
  O  O647  1  0.82226412  0.85134517  0.80004400  1
  O  O648  1  0.17684519  0.14726917  0.20041616  1
  O  O649  1  0.17767307  0.14809663  0.45025767  1
  O  O650  1  0.17814310  0.14770894  0.69931964  1
  O  O651  1  0.17672899  0.14618381  0.94933439  1
  O  O652  1  0.17719229  0.48102283  0.19977356  1
  O  O653  1  0.17771878  0.47991219  0.44846427  1
  O  O654  1  0.17709609  0.48130740  0.69927212  1
  O  O655  1  0.17751869  0.47952309  0.95021100  1
  O  O656  1  0.17772572  0.81230469  0.20035759  1
  O  O657  1  0.17683415  0.81365628  0.45042407  1
  O  O658  1  0.17563677  0.81384734  0.70061827  1
  O  O659  1  0.17718509  0.81428603  0.95020422  1
  O  O660  1  0.67663552  0.14507132  0.19993311  1
  O  O661  1  0.67734734  0.14824662  0.44929537  1
  O  O662  1  0.67753268  0.14640887  0.69739025  1
  O  O663  1  0.67584940  0.14660857  0.95006629  1
  O  O664  1  0.67661626  0.47868523  0.19977156  1
  O  O665  1  0.67687543  0.48166860  0.44876186  1
  O  O666  1  0.67583066  0.47935567  0.69858768  1
  O  O667  1  0.67681718  0.48196625  0.94887207  1
  O  O668  1  0.67700971  0.81282651  0.19809187  1
  O  O669  1  0.67750513  0.81402013  0.44782438  1
  O  O670  1  0.67575210  0.81120914  0.69913973  1
  O  O671  1  0.67739336  0.81379478  0.94788286  1
