# generated using pymatgen
data_Na2MnFe(PO4)2
_symmetry_space_group_name_H-M   'P 1'
_cell_length_a   22.34602266
_cell_length_b   20.09652999
_cell_length_c   19.44557421
_cell_angle_alpha   89.98784069
_cell_angle_beta   90.01409016
_cell_angle_gamma   90.02769797
_symmetry_Int_Tables_number   1
_chemical_formula_structural   Na2MnFe(PO4)2
_chemical_formula_sum   'Na96 Mn48 Fe48 P96 O384'
_cell_volume   8732.56865462
_cell_formula_units_Z   48
loop_
 _symmetry_equiv_pos_site_id
 _symmetry_equiv_pos_as_xyz
  1  'x, y, z'
loop_
 _atom_site_type_symbol
 _atom_site_label
 _atom_site_symmetry_multiplicity
 _atom_site_fract_x
 _atom_site_fract_y
 _atom_site_fract_z
 _atom_site_occupancy
  Na  Na0  1  0.14055524  0.25020708  0.24368908  1
  Na  Na1  1  0.14018631  0.25123114  0.49439713  1
  Na  Na2  1  0.13986837  0.24979725  0.74487409  1
  Na  Na3  1  0.14077986  0.24896287  0.99291544  1
  Na  Na4  1  0.13976828  0.58442585  0.24403775  1
  Na  Na5  1  0.13954633  0.58401456  0.49428823  1
  Na  Na6  1  0.13967054  0.58353449  0.74275631  1
  Na  Na7  1  0.13965651  0.58305224  0.99274865  1
  Na  Na8  1  0.14031313  0.91663075  0.24458470  1
  Na  Na9  1  0.13978699  0.91504682  0.49400876  1
  Na  Na10  1  0.13985145  0.91555587  0.74377411  1
  Na  Na11  1  0.14047428  0.91760116  0.99275535  1
  Na  Na12  1  0.64088659  0.25065373  0.24362561  1
  Na  Na13  1  0.64093293  0.25063284  0.49481152  1
  Na  Na14  1  0.64048409  0.25134632  0.74432452  1
  Na  Na15  1  0.64079263  0.25019654  0.99265227  1
  Na  Na16  1  0.64049072  0.58336306  0.24539194  1
  Na  Na17  1  0.64043242  0.58427442  0.49352906  1
  Na  Na18  1  0.64004022  0.58376968  0.74369029  1
  Na  Na19  1  0.64052653  0.58256439  0.99251387  1
  Na  Na20  1  0.64061776  0.91594568  0.24398530  1
  Na  Na21  1  0.63982220  0.91574441  0.49303678  1
  Na  Na22  1  0.64012417  0.91648649  0.74278091  1
  Na  Na23  1  0.64053466  0.91609384  0.99224958  1
  Na  Na24  1  0.35999811  0.08409124  0.00515924  1
  Na  Na25  1  0.35991535  0.08314695  0.25521541  1
  Na  Na26  1  0.35977244  0.08290703  0.50740877  1
  Na  Na27  1  0.35916200  0.08331717  0.75716891  1
  Na  Na28  1  0.35962498  0.41710425  0.00529579  1
  Na  Na29  1  0.35952806  0.41858503  0.25565659  1
  Na  Na30  1  0.35958757  0.41788977  0.50695017  1
  Na  Na31  1  0.35942966  0.41589526  0.75602808  1
  Na  Na32  1  0.35982584  0.75188926  0.00545569  1
  Na  Na33  1  0.36010959  0.75086218  0.25592162  1
  Na  Na34  1  0.36049411  0.75001127  0.50721625  1
  Na  Na35  1  0.36026085  0.75123121  0.75619413  1
  Na  Na36  1  0.85986947  0.08311116  0.00627289  1
  Na  Na37  1  0.85966990  0.08269363  0.25530399  1
  Na  Na38  1  0.85947432  0.08262999  0.50674838  1
  Na  Na39  1  0.85920677  0.08370801  0.75712104  1
  Na  Na40  1  0.85939534  0.41607474  0.00596835  1
  Na  Na41  1  0.85977509  0.41750270  0.25651598  1
  Na  Na42  1  0.86006334  0.41752590  0.50796496  1
  Na  Na43  1  0.85909865  0.41733910  0.75700087  1
  Na  Na44  1  0.85963888  0.74749354  0.00490572  1
  Na  Na45  1  0.85976757  0.74829770  0.25769154  1
  Na  Na46  1  0.86007114  0.74861361  0.50711060  1
  Na  Na47  1  0.85975092  0.74814865  0.75691688  1
  Na  Na48  1  0.10987710  0.08219242  0.11738836  1
  Na  Na49  1  0.10929035  0.08236974  0.36987172  1
  Na  Na50  1  0.10901466  0.08301142  0.61930989  1
  Na  Na51  1  0.10985195  0.08211528  0.86879090  1
  Na  Na52  1  0.10960416  0.41709495  0.11755261  1
  Na  Na53  1  0.10926020  0.41757541  0.36957975  1
  Na  Na54  1  0.10890718  0.41742523  0.61859985  1
  Na  Na55  1  0.10937045  0.41726209  0.86854552  1
  Na  Na56  1  0.10919163  0.74893443  0.11848486  1
  Na  Na57  1  0.10981947  0.74917151  0.37033902  1
  Na  Na58  1  0.10944938  0.74951411  0.61836604  1
  Na  Na59  1  0.10938945  0.74880934  0.86745398  1
  Na  Na60  1  0.60997534  0.08288144  0.11771706  1
  Na  Na61  1  0.60945062  0.08194315  0.36918252  1
  Na  Na62  1  0.60965033  0.08267457  0.61904110  1
  Na  Na63  1  0.60976515  0.08497664  0.86781033  1
  Na  Na64  1  0.61016738  0.41700542  0.11819658  1
  Na  Na65  1  0.60999845  0.41799865  0.36981973  1
  Na  Na66  1  0.60973374  0.41773197  0.61916328  1
  Na  Na67  1  0.60988233  0.41846879  0.86815149  1
  Na  Na68  1  0.60997251  0.74975003  0.11870878  1
  Na  Na69  1  0.61032807  0.74978073  0.36921082  1
  Na  Na70  1  0.60971951  0.74979586  0.61808987  1
  Na  Na71  1  0.60956833  0.75171110  0.86715199  1
  Na  Na72  1  0.39072792  0.24998109  0.12972712  1
  Na  Na73  1  0.39066491  0.25009929  0.38159625  1
  Na  Na74  1  0.39015864  0.24988452  0.63202937  1
  Na  Na75  1  0.39016103  0.25198602  0.88154702  1
  Na  Na76  1  0.39028882  0.58395760  0.13079811  1
  Na  Na77  1  0.39043121  0.58493135  0.38193509  1
  Na  Na78  1  0.39057230  0.58461538  0.63103217  1
  Na  Na79  1  0.39061961  0.58561747  0.88081049  1
  Na  Na80  1  0.39036480  0.91706068  0.12946606  1
  Na  Na81  1  0.39116679  0.91539067  0.38166834  1
  Na  Na82  1  0.39078800  0.91571320  0.63178986  1
  Na  Na83  1  0.39004949  0.91837451  0.88096245  1
  Na  Na84  1  0.89030158  0.24869921  0.13045866  1
  Na  Na85  1  0.89077512  0.24984908  0.38204183  1
  Na  Na86  1  0.89020457  0.25072866  0.63207236  1
  Na  Na87  1  0.88986253  0.24948376  0.88300730  1
  Na  Na88  1  0.88983648  0.58228141  0.13074782  1
  Na  Na89  1  0.89011667  0.58333703  0.38318060  1
  Na  Na90  1  0.88964247  0.58383144  0.63207398  1
  Na  Na91  1  0.88986533  0.58282582  0.88092327  1
  Na  Na92  1  0.89055449  0.91516826  0.13027768  1
  Na  Na93  1  0.89061518  0.91498401  0.38212485  1
  Na  Na94  1  0.89039774  0.91525123  0.63072111  1
  Na  Na95  1  0.89042944  0.91468396  0.88161411  1
  Mn  Mn96  1  0.75020996  0.33387279  0.62582335  1
  Mn  Mn97  1  0.25027751  0.49934355  0.87346045  1
  Mn  Mn98  1  0.25016495  0.33452753  0.37426070  1
  Mn  Mn99  1  0.49980175  0.66825525  0.00005046  1
  Mn  Mn100  1  0.50045337  0.66765033  0.25026352  1
  Mn  Mn101  1  0.50072561  0.00043801  -0.00042138  1
  Mn  Mn102  1  0.50024182  0.50071229  0.25017535  1
  Mn  Mn103  1  0.25021608  0.66732739  0.87450515  1
  Mn  Mn104  1  -0.00002180  -0.00118803  0.25011965  1
  Mn  Mn105  1  0.24937112  0.83466643  0.12533852  1
  Mn  Mn106  1  0.25048206  0.33418947  0.12462371  1
  Mn  Mn107  1  0.50008701  -0.00158688  0.24884661  1
  Mn  Mn108  1  0.24959848  0.66682579  0.12448630  1
  Mn  Mn109  1  0.50044518  0.33392955  0.50018829  1
  Mn  Mn110  1  -0.00006136  0.16672754  0.50020977  1
  Mn  Mn111  1  0.50051323  0.16596535  0.25056020  1
  Mn  Mn112  1  0.00029497  0.33301424  0.24964347  1
  Mn  Mn113  1  0.00037380  0.83160930  0.25047322  1
  Mn  Mn114  1  -0.00051331  0.50055110  0.24995405  1
  Mn  Mn115  1  0.25031987  0.16614823  0.12399952  1
  Mn  Mn116  1  0.24939538  0.16745875  0.62625004  1
  Mn  Mn117  1  0.50012582  0.33353070  0.24981732  1
  Mn  Mn118  1  0.49967478  0.50149886  0.74948032  1
  Mn  Mn119  1  0.24918985  -0.00088355  0.62620252  1
  Mn  Mn120  1  0.50051924  0.33465809  -0.00006383  1
  Mn  Mn121  1  0.75022090  0.00004452  0.62473889  1
  Mn  Mn122  1  0.75012313  0.83217521  0.12467034  1
  Mn  Mn123  1  -0.00111476  -0.00143159  0.74978598  1
  Mn  Mn124  1  0.00011463  0.16564088  0.25068037  1
  Mn  Mn125  1  -0.00015184  0.83136959  0.00033731  1
  Mn  Mn126  1  0.75006819  0.16680026  0.37488464  1
  Mn  Mn127  1  0.24972984  0.50016165  0.62486571  1
  Mn  Mn128  1  -0.00068786  0.16644156  0.74994701  1
  Mn  Mn129  1  0.75068719  -0.00007743  0.12394727  1
  Mn  Mn130  1  0.24964387  0.50197499  0.37592767  1
  Mn  Mn131  1  0.25026289  -0.00029787  0.37595952  1
  Mn  Mn132  1  0.75097927  0.33469962  0.37489750  1
  Mn  Mn133  1  0.74948832  -0.00056071  0.37485969  1
  Mn  Mn134  1  -0.00003131  0.33314704  -0.00006749  1
  Mn  Mn135  1  0.75022245  0.33343998  0.12499045  1
  Mn  Mn136  1  0.25001282  0.16679481  0.37508717  1
  Mn  Mn137  1  0.49965122  0.16732031  0.74931363  1
  Mn  Mn138  1  0.74939984  0.66521528  0.12555467  1
  Mn  Mn139  1  0.50048779  0.16567477  0.50091820  1
  Mn  Mn140  1  0.25082303  0.83244264  0.37465967  1
  Mn  Mn141  1  0.74991895  -0.00025596  0.87450465  1
  Mn  Mn142  1  -0.00021313  0.33448372  0.75115998  1
  Mn  Mn143  1  0.75038616  0.83195580  0.62448796  1
  Fe  Fe144  1  -0.00023590  0.33378475  0.50063506  1
  Fe  Fe145  1  0.75005721  0.50047184  0.37609791  1
  Fe  Fe146  1  0.00011578  -0.00144509  -0.00015511  1
  Fe  Fe147  1  0.49981282  -0.00107519  0.49983537  1
  Fe  Fe148  1  0.00044568  0.16559394  0.00031436  1
  Fe  Fe149  1  -0.00052539  -0.00098378  0.50042577  1
  Fe  Fe150  1  0.25027054  0.66720882  0.37494727  1
  Fe  Fe151  1  -0.00048503  0.50050092  0.50023065  1
  Fe  Fe152  1  0.50036389  0.83329516  0.50065206  1
  Fe  Fe153  1  0.49975351  0.00027522  0.74970248  1
  Fe  Fe154  1  0.24972534  0.50077114  0.12445154  1
  Fe  Fe155  1  0.74984801  0.49967001  0.12487398  1
  Fe  Fe156  1  0.50037136  0.83431780  0.74924863  1
  Fe  Fe157  1  -0.00051496  0.66655448  0.50100471  1
  Fe  Fe158  1  -0.00060885  0.50076360  0.74942032  1
  Fe  Fe159  1  0.75055029  0.66581224  0.37586634  1
  Fe  Fe160  1  0.75007197  0.16668886  0.87519118  1
  Fe  Fe161  1  0.25017971  0.00051862  0.12422660  1
  Fe  Fe162  1  0.25006782  0.16669489  0.87489092  1
  Fe  Fe163  1  0.24939459  0.33327801  0.87530238  1
  Fe  Fe164  1  0.75066420  0.83254112  0.37487980  1
  Fe  Fe165  1  0.50042976  0.16764778  -0.00103906  1
  Fe  Fe166  1  0.74945823  0.66613365  0.62551408  1
  Fe  Fe167  1  0.75013511  0.83219289  0.87406017  1
  Fe  Fe168  1  0.75013486  0.16675863  0.12467967  1
  Fe  Fe169  1  0.24984854  -0.00014612  0.87459391  1
  Fe  Fe170  1  0.24937657  0.83350200  0.87498944  1
  Fe  Fe171  1  0.49978082  0.33458950  0.75022092  1
  Fe  Fe172  1  0.75002170  0.33330523  0.87530682  1
  Fe  Fe173  1  0.50031260  0.66745213  0.50039129  1
  Fe  Fe174  1  -0.00042244  0.66598206  0.25045931  1
  Fe  Fe175  1  0.25020273  0.66736139  0.62493753  1
  Fe  Fe176  1  0.49950191  0.50057530  0.50053966  1
  Fe  Fe177  1  -0.00000655  0.83223836  0.50038492  1
  Fe  Fe178  1  0.74992274  0.16728160  0.62562468  1
  Fe  Fe179  1  0.74943779  0.50067110  0.62595115  1
  Fe  Fe180  1  0.49985806  0.50129289  -0.00064981  1
  Fe  Fe181  1  -0.00021490  0.66557087  -0.00100975  1
  Fe  Fe182  1  0.50053717  0.66782692  0.74973543  1
  Fe  Fe183  1  0.24967315  0.33333717  0.62526465  1
  Fe  Fe184  1  0.50046143  0.83300107  0.25025735  1
  Fe  Fe185  1  -0.00001749  0.83220776  0.75003143  1
  Fe  Fe186  1  0.74971435  0.49979772  0.87501369  1
  Fe  Fe187  1  0.25012390  0.83298605  0.62535748  1
  Fe  Fe188  1  -0.00014537  0.50039591  -0.00063160  1
  Fe  Fe189  1  -0.00005666  0.66603917  0.74948573  1
  Fe  Fe190  1  0.74948569  0.66559205  0.87487196  1
  Fe  Fe191  1  0.50047009  0.83423359  -0.00129015  1
  P  P192  1  0.04264185  0.24844552  0.10222526  1
  P  P193  1  0.04275701  0.25030660  0.35391518  1
  P  P194  1  0.04186821  0.25159421  0.60291170  1
  P  P195  1  0.04191509  0.24930129  0.85402990  1
  P  P196  1  0.04121729  0.58350955  0.10136946  1
  P  P197  1  0.04153396  0.58452859  0.35353785  1
  P  P198  1  0.04072569  0.58360486  0.60240658  1
  P  P199  1  0.04134738  0.58307467  0.85163131  1
  P  P200  1  0.04253767  0.91618568  0.10214296  1
  P  P201  1  0.04244625  0.91537077  0.35443012  1
  P  P202  1  0.04099944  0.91551597  0.60207725  1
  P  P203  1  0.04155689  0.91464045  0.85272198  1
  P  P204  1  0.54283194  0.24912795  0.10191080  1
  P  P205  1  0.54340125  0.25007593  0.35346638  1
  P  P206  1  0.54273977  0.25045287  0.60396407  1
  P  P207  1  0.54177934  0.25201537  0.85247323  1
  P  P208  1  0.54260719  0.58306066  0.10194774  1
  P  P209  1  0.54242125  0.58409322  0.35456373  1
  P  P210  1  0.54124514  0.58409901  0.60189573  1
  P  P211  1  0.54194238  0.58572224  0.85254056  1
  P  P212  1  0.54292248  0.91485726  0.10191923  1
  P  P213  1  0.54246844  0.91487882  0.35313106  1
  P  P214  1  0.54167849  0.91664363  0.60231928  1
  P  P215  1  0.54166926  0.91761855  0.85114813  1
  P  P216  1  0.45790613  0.08339962  0.14587685  1
  P  P217  1  0.45774267  0.08146181  0.39788099  1
  P  P218  1  0.45736863  0.08143326  0.64719283  1
  P  P219  1  0.45835530  0.08498514  0.89665065  1
  P  P220  1  0.45754183  0.41748989  0.14616787  1
  P  P221  1  0.45750640  0.41841517  0.39792106  1
  P  P222  1  0.45765071  0.41665982  0.64726448  1
  P  P223  1  0.45801903  0.41907750  0.89683097  1
  P  P224  1  0.45789919  0.75191240  0.14702309  1
  P  P225  1  0.45911370  0.75065911  0.39864002  1
  P  P226  1  0.45933731  0.75043042  0.64767398  1
  P  P227  1  0.45806892  0.75262167  0.89619632  1
  P  P228  1  0.95789202  0.08237261  0.14594325  1
  P  P229  1  0.95747563  0.08146361  0.39813940  1
  P  P230  1  0.95672330  0.08244464  0.64649744  1
  P  P231  1  0.95874326  0.08215604  0.89862061  1
  P  P232  1  0.95731302  0.41676184  0.14632458  1
  P  P233  1  0.95842227  0.41676707  0.39892858  1
  P  P234  1  0.95749827  0.41828309  0.64721380  1
  P  P235  1  0.95776646  0.41845254  0.89725447  1
  P  P236  1  0.95749527  0.74724498  0.14744873  1
  P  P237  1  0.95852010  0.74890965  0.39884001  1
  P  P238  1  0.95850931  0.74945151  0.64791298  1
  P  P239  1  0.95812020  0.74772143  0.89629408  1
  P  P240  1  0.20757036  0.08214809  0.22710799  1
  P  P241  1  0.20695006  0.08343876  0.47895273  1
  P  P242  1  0.20692575  0.08314417  0.72970035  1
  P  P243  1  0.20903539  0.08287617  0.97636512  1
  P  P244  1  0.20745528  0.41899578  0.22700069  1
  P  P245  1  0.20723617  0.41706571  0.47869354  1
  P  P246  1  0.20732123  0.41500654  0.72756799  1
  P  P247  1  0.20756179  0.41625925  0.97723145  1
  P  P248  1  0.20693392  0.75000504  0.22828479  1
  P  P249  1  0.20846182  0.74847243  0.47841337  1
  P  P250  1  0.20848555  0.75035586  0.72687885  1
  P  P251  1  0.20731942  0.75132467  0.97711397  1
  P  P252  1  0.70780436  0.08412357  0.22668684  1
  P  P253  1  0.70720526  0.08365229  0.47866642  1
  P  P254  1  0.70808715  0.08488862  0.72779497  1
  P  P255  1  0.70801370  0.08439685  0.97736344  1
  P  P256  1  0.70803183  0.41850213  0.22784396  1
  P  P257  1  0.70825313  0.41855063  0.47860328  1
  P  P258  1  0.70781466  0.41834305  0.72861435  1
  P  P259  1  0.70863577  0.41665789  0.97680171  1
  P  P260  1  0.70765334  0.74924716  0.22912731  1
  P  P261  1  0.70928970  0.74932208  0.47690983  1
  P  P262  1  0.70797623  0.74836623  0.72804200  1
  P  P263  1  0.70841528  0.74905384  0.97589092  1
  P  P264  1  0.29266594  0.25032170  0.02057841  1
  P  P265  1  0.29318549  0.25039013  0.27155047  1
  P  P266  1  0.29251544  0.25144513  0.52307490  1
  P  P267  1  0.29107628  0.25068815  0.77347865  1
  P  P268  1  0.29219855  0.58257651  0.02180782  1
  P  P269  1  0.29241808  0.58517113  0.27222770  1
  P  P270  1  0.29211887  0.58543503  0.52258468  1
  P  P271  1  0.29263764  0.58414015  0.77073946  1
  P  P272  1  0.29177352  0.91835237  0.02130795  1
  P  P273  1  0.29322047  0.91735446  0.27165529  1
  P  P274  1  0.29227533  0.91518760  0.52340895  1
  P  P275  1  0.29103197  0.91601972  0.77330922  1
  P  P276  1  0.79196941  0.24870981  0.02175102  1
  P  P277  1  0.79336982  0.25025635  0.27157925  1
  P  P278  1  0.79263259  0.24942654  0.52327382  1
  P  P279  1  0.79146709  0.25004427  0.77365665  1
  P  P280  1  0.79145003  0.58139633  0.02187472  1
  P  P281  1  0.79168597  0.58258561  0.27398122  1
  P  P282  1  0.79105666  0.58333541  0.52363484  1
  P  P283  1  0.79079306  0.58284819  0.77296703  1
  P  P284  1  0.79265764  0.91525264  0.02060168  1
  P  P285  1  0.79265002  0.91505968  0.27246397  1
  P  P286  1  0.79240825  0.91563550  0.52123037  1
  P  P287  1  0.79223294  0.91500207  0.77219856  1
  O  O288  1  0.03782257  0.24859636  0.18228360  1
  O  O289  1  0.03725733  0.25110175  0.43389454  1
  O  O290  1  0.03663038  0.25141643  0.68290833  1
  O  O291  1  0.03662687  0.24862025  0.93396396  1
  O  O292  1  0.03649496  0.58341688  0.18135287  1
  O  O293  1  0.03630379  0.58441304  0.43339840  1
  O  O294  1  0.03578656  0.58327846  0.68231838  1
  O  O295  1  0.03627671  0.58311635  0.93155571  1
  O  O296  1  0.03769380  0.91601811  0.18213687  1
  O  O297  1  0.03694420  0.91561835  0.43434027  1
  O  O298  1  0.03600520  0.91472918  0.68207076  1
  O  O299  1  0.03626523  0.91521519  0.93266130  1
  O  O300  1  0.53785344  0.24925643  0.18191662  1
  O  O301  1  0.53835446  0.25003965  0.43348423  1
  O  O302  1  0.53714115  0.25103333  0.68390942  1
  O  O303  1  0.53658092  0.25124643  0.93243885  1
  O  O304  1  0.53768827  0.58339594  0.18196797  1
  O  O305  1  0.53688591  0.58387419  0.43444181  1
  O  O306  1  0.53641159  0.58496819  0.68189497  1
  O  O307  1  0.53649816  0.58509491  0.93243221  1
  O  O308  1  0.53766339  0.91456618  0.18187678  1
  O  O309  1  0.53702892  0.91538260  0.43303691  1
  O  O310  1  0.53633091  0.91710519  0.68223230  1
  O  O311  1  0.53716421  0.91700872  0.93113179  1
  O  O312  1  0.46343829  0.08427923  0.06590258  1
  O  O313  1  0.46302069  0.08158830  0.31787609  1
  O  O314  1  0.46263334  0.08106469  0.56725246  1
  O  O315  1  0.46344873  0.08429639  0.81668555  1
  O  O316  1  0.46293691  0.41810826  0.06618257  1
  O  O317  1  0.46255230  0.41808293  0.31790526  1
  O  O318  1  0.46300740  0.41724114  0.56734526  1
  O  O319  1  0.46318652  0.41834643  0.81686188  1
  O  O320  1  0.46293346  0.75179143  0.06704000  1
  O  O321  1  0.46368908  0.75068539  0.31863857  1
  O  O322  1  0.46435687  0.75067352  0.56776335  1
  O  O323  1  0.46356657  0.75210027  0.81634829  1
  O  O324  1  0.96355103  0.08231343  0.06599431  1
  O  O325  1  0.96275838  0.08176295  0.31813406  1
  O  O326  1  0.96203275  0.08211597  0.56659474  1
  O  O327  1  0.96311497  0.08229814  0.81853376  1
  O  O328  1  0.96242455  0.41722733  0.06637405  1
  O  O329  1  0.96304640  0.41706747  0.31890818  1
  O  O330  1  0.96286516  0.41755862  0.56731861  1
  O  O331  1  0.96295669  0.41894572  0.81729809  1
  O  O332  1  0.96262884  0.74702190  0.06746704  1
  O  O333  1  0.96312015  0.74878060  0.31886881  1
  O  O334  1  0.96364167  0.74933134  0.56799807  1
  O  O335  1  0.96366749  0.74836362  0.81643427  1
  O  O336  1  0.21393724  0.08265532  0.05636752  1
  O  O337  1  0.21261917  0.08261808  0.30714403  1
  O  O338  1  0.21165986  0.08353161  0.55900791  1
  O  O339  1  0.21255124  0.08297153  0.80959901  1
  O  O340  1  0.21294282  0.41744839  0.05714806  1
  O  O341  1  0.21254132  0.41898859  0.30702144  1
  O  O342  1  0.21241189  0.41627943  0.55865632  1
  O  O343  1  0.21259130  0.41490797  0.80753112  1
  O  O344  1  0.21211187  0.75108885  0.05708140  1
  O  O345  1  0.21227428  0.74944296  0.30825071  1
  O  O346  1  0.21374455  0.74864360  0.55835523  1
  O  O347  1  0.21316296  0.75088488  0.80689297  1
  O  O348  1  0.71329053  0.08430847  0.05729890  1
  O  O349  1  0.71283797  0.08351986  0.30669894  1
  O  O350  1  0.71253128  0.08397763  0.55864628  1
  O  O351  1  0.71368736  0.08472499  0.80775208  1
  O  O352  1  0.71345417  0.41643661  0.05677708  1
  O  O353  1  0.71339048  0.41871828  0.30780743  1
  O  O354  1  0.71328918  0.41849039  0.55859328  1
  O  O355  1  0.71323533  0.41807434  0.80847770  1
  O  O356  1  0.71291685  0.74882568  0.05593406  1
  O  O357  1  0.71317567  0.74963725  0.30899618  1
  O  O358  1  0.71380077  0.74850140  0.55692996  1
  O  O359  1  0.71325529  0.74896877  0.80790774  1
  O  O360  1  0.28810837  0.25023158  0.19153547  1
  O  O361  1  0.28770892  0.25106699  0.44305399  1
  O  O362  1  0.28626528  0.25087976  0.69346498  1
  O  O363  1  0.28716088  0.25035603  0.94066465  1
  O  O364  1  0.28726960  0.58431083  0.19225829  1
  O  O365  1  0.28719557  0.58576311  0.44258531  1
  O  O366  1  0.28718648  0.58473729  0.69082551  1
  O  O367  1  0.28724148  0.58273229  0.94179459  1
  O  O368  1  0.28797510  0.91805373  0.19167598  1
  O  O369  1  0.28771485  0.91527966  0.44341921  1
  O  O370  1  0.28593523  0.91543640  0.69335852  1
  O  O371  1  0.28606657  0.91785767  0.94142727  1
  O  O372  1  0.78806480  0.24992926  0.19158866  1
  O  O373  1  0.78763276  0.24998791  0.44331710  1
  O  O374  1  0.78665014  0.24995949  0.69364666  1
  O  O375  1  0.78659246  0.24894673  0.94183288  1
  O  O376  1  0.78693610  0.58250396  0.19401418  1
  O  O377  1  0.78604836  0.58322547  0.44373400  1
  O  O378  1  0.78580519  0.58336008  0.69306062  1
  O  O379  1  0.78600268  0.58163585  0.94203422  1
  O  O380  1  0.78771471  0.91532284  0.19240168  1
  O  O381  1  0.78713069  0.91530130  0.44128023  1
  O  O382  1  0.78729485  0.91530848  0.69218839  1
  O  O383  1  0.78709395  0.91483681  0.94063700  1
  O  O384  1  0.22854119  0.25033441  0.05647962  1
  O  O385  1  0.22867920  0.25045072  0.30647957  1
  O  O386  1  0.22799289  0.25172739  0.55823414  1
  O  O387  1  0.22695451  0.25079713  0.80941244  1
  O  O388  1  0.22779959  0.58232232  0.05714514  1
  O  O389  1  0.22805711  0.58593012  0.30786178  1
  O  O390  1  0.22782698  0.58512133  0.55808594  1
  O  O391  1  0.22835950  0.58370870  0.80613036  1
  O  O392  1  0.22771327  0.91894749  0.05773367  1
  O  O393  1  0.22889072  0.91653274  0.30702295  1
  O  O394  1  0.22776553  0.91472002  0.55843375  1
  O  O395  1  0.22686422  0.91641384  0.80923475  1
  O  O396  1  0.72794166  0.24875008  0.05810331  1
  O  O397  1  0.72902169  0.25090876  0.30686750  1
  O  O398  1  0.72831639  0.24929074  0.55889540  1
  O  O399  1  0.72731075  0.24963993  0.80946739  1
  O  O400  1  0.72734962  0.58111252  0.05815811  1
  O  O401  1  0.72751095  0.58231703  0.30986654  1
  O  O402  1  0.72692380  0.58349147  0.55992912  1
  O  O403  1  0.72674507  0.58227075  0.80912829  1
  O  O404  1  0.72846275  0.91578310  0.05622552  1
  O  O405  1  0.72824442  0.91446895  0.30772629  1
  O  O406  1  0.72815943  0.91585143  0.55670206  1
  O  O407  1  0.72786851  0.91525178  0.80742079  1
  O  O408  1  0.27198653  0.08179227  0.19167676  1
  O  O409  1  0.27153249  0.08351397  0.44428649  1
  O  O410  1  0.27108563  0.08314044  0.69388967  1
  O  O411  1  0.27306595  0.08243975  0.94030286  1
  O  O412  1  0.27184256  0.41925516  0.19160426  1
  O  O413  1  0.27156609  0.41776855  0.44339263  1
  O  O414  1  0.27160801  0.41527226  0.69193060  1
  O  O415  1  0.27180135  0.41529778  0.94139058  1
  O  O416  1  0.27122440  0.75045390  0.19289250  1
  O  O417  1  0.27265423  0.74808413  0.44232296  1
  O  O418  1  0.27282227  0.75035914  0.69136737  1
  O  O419  1  0.27176870  0.75179002  0.94194412  1
  O  O420  1  0.77217738  0.08456155  0.19124822  1
  O  O421  1  0.77149225  0.08309753  0.44324334  1
  O  O422  1  0.77221859  0.08502808  0.69178691  1
  O  O423  1  0.77226300  0.08415471  0.94164554  1
  O  O424  1  0.77225005  0.41832169  0.19198133  1
  O  O425  1  0.77256680  0.41881002  0.44295558  1
  O  O426  1  0.77190302  0.41872511  0.69244327  1
  O  O427  1  0.77274237  0.41714241  0.94083921  1
  O  O428  1  0.77182330  0.74870905  0.19324864  1
  O  O429  1  0.77342847  0.74981615  0.44108436  1
  O  O430  1  0.77216796  0.74752889  0.69207571  1
  O  O431  1  0.77266044  0.74914877  0.94041670  1
  O  O432  1  0.02204456  0.08235409  0.18189339  1
  O  O433  1  0.02170388  0.08143656  0.43387560  1
  O  O434  1  0.02101819  0.08239528  0.68194115  1
  O  O435  1  0.02301174  0.08212709  0.93411332  1
  O  O436  1  0.02164504  0.41701553  0.18168753  1
  O  O437  1  0.02258562  0.41650276  0.43464475  1
  O  O438  1  0.02165505  0.41866396  0.68332480  1
  O  O439  1  0.02196168  0.41797694  0.93299560  1
  O  O440  1  0.02181722  0.74707097  0.18316489  1
  O  O441  1  0.02267593  0.74812183  0.43473271  1
  O  O442  1  0.02258418  0.74961201  0.68422890  1
  O  O443  1  0.02214413  0.74738515  0.93268980  1
  O  O444  1  0.52212165  0.08276256  0.18153808  1
  O  O445  1  0.52205589  0.08120123  0.43353261  1
  O  O446  1  0.52166077  0.08188521  0.68282487  1
  O  O447  1  0.52256600  0.08508304  0.93245676  1
  O  O448  1  0.52189069  0.41713413  0.18157345  1
  O  O449  1  0.52189031  0.41895702  0.43333231  1
  O  O450  1  0.52186332  0.41652043  0.68312473  1
  O  O451  1  0.52226333  0.41954069  0.93262318  1
  O  O452  1  0.52222190  0.75184376  0.18275544  1
  O  O453  1  0.52327427  0.75110555  0.43452746  1
  O  O454  1  0.52335583  0.75001780  0.68397182  1
  O  O455  1  0.52221343  0.75242232  0.93240795  1
  O  O456  1  0.47849571  0.24960379  0.06648068  1
  O  O457  1  0.47889660  0.24999817  0.31853682  1
  O  O458  1  0.47853046  0.25015999  0.56839396  1
  O  O459  1  0.47759547  0.25220986  0.81655250  1
  O  O460  1  0.47816945  0.58303562  0.06666152  1
  O  O461  1  0.47834115  0.58436993  0.31846121  1
  O  O462  1  0.47711625  0.58368816  0.56601247  1
  O  O463  1  0.47783156  0.58615032  0.81642172  1
  O  O464  1  0.47865592  0.91538323  0.06611387  1
  O  O465  1  0.47833572  0.91457258  0.31684007  1
  O  O466  1  0.47763246  0.91623474  0.56587459  1
  O  O467  1  0.47738934  0.91809331  0.81554462  1
  O  O468  1  0.97826751  0.24831628  0.06693797  1
  O  O469  1  0.97845323  0.24990447  0.31842121  1
  O  O470  1  0.97759573  0.25135813  0.56734489  1
  O  O471  1  0.97761605  0.24998298  0.81858875  1
  O  O472  1  0.97698422  0.58379140  0.06552616  1
  O  O473  1  0.97732131  0.58466794  0.31744584  1
  O  O474  1  0.97666928  0.58419165  0.56618751  1
  O  O475  1  0.97722279  0.58333185  0.81536620  1
  O  O476  1  0.97814283  0.91610643  0.06682337  1
  O  O477  1  0.97832283  0.91508801  0.31840490  1
  O  O478  1  0.97695863  0.91612148  0.56595756  1
  O  O479  1  0.97733825  0.91382966  0.81683415  1
  O  O480  1  0.07362766  0.31218659  0.07451599  1
  O  O481  1  0.07391398  0.31349458  0.32505282  1
  O  O482  1  0.07242392  0.31525667  0.57452328  1
  O  O483  1  0.07312329  0.31301320  0.82652354  1
  O  O484  1  0.07254207  0.64672650  0.07284129  1
  O  O485  1  0.07237724  0.64784935  0.32447511  1
  O  O486  1  0.07231055  0.64694329  0.57444337  1
  O  O487  1  0.07254544  0.64647236  0.82300174  1
  O  O488  1  0.07308217  0.97970040  0.07328800  1
  O  O489  1  0.07370359  0.97868838  0.32592353  1
  O  O490  1  0.07219871  0.97921986  0.57449093  1
  O  O491  1  0.07235301  0.97828577  0.82451315  1
  O  O492  1  0.57430891  0.31265554  0.07424426  1
  O  O493  1  0.57419309  0.31372311  0.32525349  1
  O  O494  1  0.57422832  0.31360988  0.57563756  1
  O  O495  1  0.57223738  0.31602177  0.82456523  1
  O  O496  1  0.57361773  0.64676930  0.07416985  1
  O  O497  1  0.57367887  0.64749541  0.32622705  1
  O  O498  1  0.57191256  0.64769856  0.57301392  1
  O  O499  1  0.57278972  0.64932287  0.82431776  1
  O  O500  1  0.57416227  0.97857696  0.07431217  1
  O  O501  1  0.57364268  0.97832624  0.32465235  1
  O  O502  1  0.57244817  0.98019373  0.57355984  1
  O  O503  1  0.57274655  0.98130687  0.82330733  1
  O  O504  1  0.42678585  0.01955696  0.17322661  1
  O  O505  1  0.42689159  0.01792710  0.42621563  1
  O  O506  1  0.42655256  0.01821133  0.67632925  1
  O  O507  1  0.42703741  0.02163266  0.92481672  1
  O  O508  1  0.42659610  0.35370143  0.17394737  1
  O  O509  1  0.42668889  0.35460319  0.42568200  1
  O  O510  1  0.42707058  0.35296080  0.67575155  1
  O  O511  1  0.42690424  0.35566922  0.92510215  1
  O  O512  1  0.42705462  0.68805918  0.17499049  1
  O  O513  1  0.42900391  0.68657320  0.42724486  1
  O  O514  1  0.42796864  0.68707600  0.67594937  1
  O  O515  1  0.42648562  0.68939045  0.92455930  1
  O  O516  1  0.92648658  0.01897772  0.17415517  1
  O  O517  1  0.92678887  0.01778742  0.42627496  1
  O  O518  1  0.92534087  0.01926579  0.67499336  1
  O  O519  1  0.92809355  0.01820751  0.92645688  1
  O  O520  1  0.92659810  0.35294704  0.17431449  1
  O  O521  1  0.92727627  0.35325803  0.42698317  1
  O  O522  1  0.92631687  0.35490947  0.67591308  1
  O  O523  1  0.92646893  0.35469717  0.92451439  1
  O  O524  1  0.92638930  0.68417647  0.17655604  1
  O  O525  1  0.92673860  0.68599731  0.42739657  1
  O  O526  1  0.92769267  0.68574477  0.67634232  1
  O  O527  1  0.92702933  0.68423904  0.92458190  1
  O  O528  1  0.17680183  0.01860525  0.19871711  1
  O  O529  1  0.17620558  0.01972972  0.45091620  1
  O  O530  1  0.17556508  0.01979712  0.70137055  1
  O  O531  1  0.17728113  0.01984798  0.94810016  1
  O  O532  1  0.17659769  0.35515817  0.19933510  1
  O  O533  1  0.17625121  0.35394470  0.44965379  1
  O  O534  1  0.17647005  0.35167122  0.69886551  1
  O  O535  1  0.17644889  0.35258519  0.94956344  1
  O  O536  1  0.17576982  0.68681837  0.19956750  1
  O  O537  1  0.17729131  0.68528151  0.44958190  1
  O  O538  1  0.17785587  0.68645589  0.69887126  1
  O  O539  1  0.17672252  0.68745576  0.94910815  1
  O  O540  1  0.67698002  0.02036001  0.19871041  1
  O  O541  1  0.67598493  0.02012368  0.45062537  1
  O  O542  1  0.67712123  0.02098105  0.70026674  1
  O  O543  1  0.67680903  0.02073012  0.94953989  1
  O  O544  1  0.67693908  0.35475945  0.20013198  1
  O  O545  1  0.67754723  0.35468569  0.45063491  1
  O  O546  1  0.67687937  0.35463608  0.70053160  1
  O  O547  1  0.67855814  0.35251778  0.94829798  1
  O  O548  1  0.67622335  0.68583765  0.20093724  1
  O  O549  1  0.67882243  0.68559467  0.44812544  1
  O  O550  1  0.67666192  0.68512438  0.69946865  1
  O  O551  1  0.67786940  0.68520362  0.94761372  1
  O  O552  1  0.32401028  0.31363403  0.04894522  1
  O  O553  1  0.32409407  0.31407330  0.29942544  1
  O  O554  1  0.32318668  0.31502366  0.55156913  1
  O  O555  1  0.32237887  0.31393593  0.80187107  1
  O  O556  1  0.32309867  0.64646550  0.04932946  1
  O  O557  1  0.32338542  0.64877470  0.30040484  1
  O  O558  1  0.32299978  0.64866972  0.55157955  1
  O  O559  1  0.32382972  0.64730483  0.79948467  1
  O  O560  1  0.32309402  0.98166634  0.04964634  1
  O  O561  1  0.32418064  0.98053246  0.30063606  1
  O  O562  1  0.32288449  0.97893908  0.55154631  1
  O  O563  1  0.32202139  0.97985897  0.80096335  1
  O  O564  1  0.82337321  0.31224471  0.04962047  1
  O  O565  1  0.82459103  0.31379255  0.29965212  1
  O  O566  1  0.82356098  0.31308012  0.55134824  1
  O  O567  1  0.82151937  0.31432714  0.80186594  1
  O  O568  1  0.82245389  0.64502890  0.05008509  1
  O  O569  1  0.82184789  0.64663307  0.30262565  1
  O  O570  1  0.82196134  0.64698608  0.55201578  1
  O  O571  1  0.82114767  0.64667905  0.80190077  1
  O  O572  1  0.82389450  0.97884394  0.04837347  1
  O  O573  1  0.82328641  0.97895413  0.30026222  1
  O  O574  1  0.82352549  0.97910881  0.54935575  1
  O  O575  1  0.82365176  0.97845958  0.79993238  1
  O  O576  1  0.42670054  0.14646145  0.17474091  1
  O  O577  1  0.42685713  0.14520535  0.42567084  1
  O  O578  1  0.42617213  0.14520776  0.67462229  1
  O  O579  1  0.42793137  0.14887411  0.92477148  1
  O  O580  1  0.42633584  0.48065094  0.17473617  1
  O  O581  1  0.42660650  0.48185571  0.42634203  1
  O  O582  1  0.42629114  0.48009236  0.67510937  1
  O  O583  1  0.42729569  0.48283435  0.92483135  1
  O  O584  1  0.42706209  0.81518553  0.17574122  1
  O  O585  1  0.42763134  0.81373319  0.42711598  1
  O  O586  1  0.42890437  0.81428658  0.67631959  1
  O  O587  1  0.42751124  0.81627052  0.92478551  1
  O  O588  1  0.92671165  0.14572920  0.17439184  1
  O  O589  1  0.92632593  0.14513542  0.42565199  1
  O  O590  1  0.92594166  0.14616604  0.67460742  1
  O  O591  1  0.92809680  0.14587477  0.92687538  1
  O  O592  1  0.92592989  0.47982470  0.17499941  1
  O  O593  1  0.92812889  0.48072602  0.42740556  1
  O  O594  1  0.92656129  0.48183863  0.67547217  1
  O  O595  1  0.92719758  0.48185839  0.92621617  1
  O  O596  1  0.92692080  0.81127590  0.17512235  1
  O  O597  1  0.92870387  0.81313277  0.42735487  1
  O  O598  1  0.92740734  0.81290452  0.67627658  1
  O  O599  1  0.92691763  0.81104446  0.92476752  1
  O  O600  1  0.07334811  0.18492612  0.07369402  1
  O  O601  1  0.07378177  0.18650976  0.32644239  1
  O  O602  1  0.07319862  0.18800693  0.57545601  1
  O  O603  1  0.07288468  0.18606231  0.82528948  1
  O  O604  1  0.07143641  0.51955255  0.07271297  1
  O  O605  1  0.07257708  0.52094149  0.32529236  1
  O  O606  1  0.07102104  0.51980944  0.57346043  1
  O  O607  1  0.07210177  0.51945208  0.82314868  1
  O  O608  1  0.07356357  0.85248462  0.07455394  1
  O  O609  1  0.07368017  0.85192436  0.32621285  1
  O  O610  1  0.07143902  0.85174794  0.57332864  1
  O  O611  1  0.07264736  0.85124223  0.82439262  1
  O  O612  1  0.57305269  0.18546077  0.07309058  1
  O  O613  1  0.57442078  0.18657431  0.32542620  1
  O  O614  1  0.57374056  0.18666894  0.57645415  1
  O  O615  1  0.57316374  0.18877255  0.82430859  1
  O  O616  1  0.57317400  0.51955076  0.07331989  1
  O  O617  1  0.57367738  0.52083515  0.32602113  1
  O  O618  1  0.57212961  0.52025517  0.57438343  1
  O  O619  1  0.57307580  0.52230553  0.82436563  1
  O  O620  1  0.57361710  0.85160305  0.07280811  1
  O  O621  1  0.57335897  0.85140275  0.32468485  1
  O  O622  1  0.57293241  0.85302847  0.57446362  1
  O  O623  1  0.57211243  0.85401798  0.82208008  1
  O  O624  1  0.32387583  0.18685689  0.04876025  1
  O  O625  1  0.32406359  0.18691844  0.29994800  1
  O  O626  1  0.32328878  0.18780799  0.55139034  1
  O  O627  1  0.32135879  0.18646884  0.80148261  1
  O  O628  1  0.32289551  0.51914715  0.05041595  1
  O  O629  1  0.32328087  0.52173833  0.30087352  1
  O  O630  1  0.32315800  0.52163222  0.55009471  1
  O  O631  1  0.32379880  0.52044883  0.79825160  1
  O  O632  1  0.32266452  0.85468124  0.04955251  1
  O  O633  1  0.32439209  0.85368355  0.29939000  1
  O  O634  1  0.32309940  0.85173526  0.55201154  1
  O  O635  1  0.32181770  0.85253983  0.80199359  1
  O  O636  1  0.82273698  0.18519874  0.05037633  1
  O  O637  1  0.82431570  0.18686317  0.30005893  1
  O  O638  1  0.82323997  0.18580989  0.55157558  1
  O  O639  1  0.82296582  0.18689359  0.80206707  1
  O  O640  1  0.82242292  0.51809025  0.05070618  1
  O  O641  1  0.82306828  0.51945790  0.30257398  1
  O  O642  1  0.82192215  0.51986372  0.55232707  1
  O  O643  1  0.82228848  0.51961466  0.80120187  1
  O  O644  1  0.82383550  0.85194599  0.04899760  1
  O  O645  1  0.82364449  0.85165802  0.30093941  1
  O  O646  1  0.82362815  0.85232185  0.54956337  1
  O  O647  1  0.82256278  0.85114869  0.80047470  1
  O  O648  1  0.17674325  0.14581674  0.19896298  1
  O  O649  1  0.17607624  0.14687160  0.45049633  1
  O  O650  1  0.17569722  0.14658622  0.70157145  1
  O  O651  1  0.17896456  0.14717698  0.94837821  1
  O  O652  1  0.17667347  0.48245164  0.19836479  1
  O  O653  1  0.17607640  0.48082576  0.45123270  1
  O  O654  1  0.17631117  0.47886121  0.70000718  1
  O  O655  1  0.17673026  0.47968213  0.94845603  1
  O  O656  1  0.17578448  0.81363067  0.20056220  1
  O  O657  1  0.17759913  0.81219655  0.45035280  1
  O  O658  1  0.17756700  0.81374459  0.69808292  1
  O  O659  1  0.17643538  0.81470884  0.94859418  1
  O  O660  1  0.67704016  0.14776862  0.19861260  1
  O  O661  1  0.67621791  0.14704583  0.45028347  1
  O  O662  1  0.67701707  0.14826091  0.69950726  1
  O  O663  1  0.67714426  0.14773657  0.94866036  1
  O  O664  1  0.67714802  0.48175601  0.19887929  1
  O  O665  1  0.67717574  0.48177644  0.44996223  1
  O  O666  1  0.67657856  0.48155375  0.69987785  1
  O  O667  1  0.67710644  0.47982755  0.94864412  1
  O  O668  1  0.67660859  0.81246980  0.20013770  1
  O  O669  1  0.67829753  0.81302473  0.44913747  1
  O  O670  1  0.67725581  0.81201157  0.69948524  1
  O  O671  1  0.67764254  0.81272722  0.94762083  1
