# generated using pymatgen
data_Na2MnFe(PO4)2
_symmetry_space_group_name_H-M   'P 1'
_cell_length_a   22.34291235
_cell_length_b   20.09317861
_cell_length_c   19.44980738
_cell_angle_alpha   90.02899440
_cell_angle_beta   89.96891940
_cell_angle_gamma   90.00087129
_symmetry_Int_Tables_number   1
_chemical_formula_structural   Na2MnFe(PO4)2
_chemical_formula_sum   'Na96 Mn48 Fe48 P96 O384'
_cell_volume   8731.79662262
_cell_formula_units_Z   48
loop_
 _symmetry_equiv_pos_site_id
 _symmetry_equiv_pos_as_xyz
  1  'x, y, z'
loop_
 _atom_site_type_symbol
 _atom_site_label
 _atom_site_symmetry_multiplicity
 _atom_site_fract_x
 _atom_site_fract_y
 _atom_site_fract_z
 _atom_site_occupancy
  Na  Na0  1  0.14104991  0.24947353  0.24315590  1
  Na  Na1  1  0.14048486  0.25011690  0.49309207  1
  Na  Na2  1  0.14030438  0.24955689  0.74383778  1
  Na  Na3  1  0.14091100  0.25003560  0.99374203  1
  Na  Na4  1  0.14009566  0.58325671  0.24265326  1
  Na  Na5  1  0.14073995  0.58392876  0.49172924  1
  Na  Na6  1  0.14022329  0.58156850  0.74392795  1
  Na  Na7  1  0.13998157  0.58273720  0.99241871  1
  Na  Na8  1  0.14118576  0.91762216  0.24379914  1
  Na  Na9  1  0.14131122  0.91596475  0.49313264  1
  Na  Na10  1  0.14070693  0.91549244  0.74544206  1
  Na  Na11  1  0.14039338  0.91713055  0.99442250  1
  Na  Na12  1  0.64036013  0.24971231  0.24444864  1
  Na  Na13  1  0.64013443  0.25132642  0.49268871  1
  Na  Na14  1  0.64068061  0.25138758  0.74410429  1
  Na  Na15  1  0.64069444  0.25008188  0.99435017  1
  Na  Na16  1  0.63981164  0.58317203  0.24453786  1
  Na  Na17  1  0.64036829  0.58406771  0.49346763  1
  Na  Na18  1  0.63980256  0.58369045  0.74427558  1
  Na  Na19  1  0.63967693  0.58240818  0.99370350  1
  Na  Na20  1  0.64074930  0.91508357  0.24426242  1
  Na  Na21  1  0.64057826  0.91727275  0.49312871  1
  Na  Na22  1  0.64011158  0.91680348  0.74436334  1
  Na  Na23  1  0.64051665  0.91631973  0.99347546  1
  Na  Na24  1  0.35868063  0.08274664  0.00704746  1
  Na  Na25  1  0.35930748  0.08333384  0.25678280  1
  Na  Na26  1  0.36018553  0.08402451  0.50653761  1
  Na  Na27  1  0.35941740  0.08331497  0.75627982  1
  Na  Na28  1  0.35949083  0.41647553  0.00594918  1
  Na  Na29  1  0.35923846  0.41682230  0.25716217  1
  Na  Na30  1  0.35958502  0.41808260  0.50619713  1
  Na  Na31  1  0.35947199  0.41701444  0.75568564  1
  Na  Na32  1  0.35978772  0.75106104  0.00669897  1
  Na  Na33  1  0.35897006  0.75055949  0.25665195  1
  Na  Na34  1  0.35946378  0.75004946  0.50604935  1
  Na  Na35  1  0.35950776  0.74994462  0.75699626  1
  Na  Na36  1  0.85957671  0.08351271  0.00605440  1
  Na  Na37  1  0.85966207  0.08248141  0.25642331  1
  Na  Na38  1  0.86011122  0.08436873  0.50588329  1
  Na  Na39  1  0.85980521  0.08450034  0.75652440  1
  Na  Na40  1  0.86002902  0.41684638  0.00632295  1
  Na  Na41  1  0.85965739  0.41773112  0.25559428  1
  Na  Na42  1  0.85991096  0.41741397  0.50543988  1
  Na  Na43  1  0.85969364  0.41742560  0.75694365  1
  Na  Na44  1  0.85926472  0.74865301  0.00705386  1
  Na  Na45  1  0.85929451  0.74793351  0.25634791  1
  Na  Na46  1  0.85995229  0.74865558  0.50479436  1
  Na  Na47  1  0.85971367  0.74939169  0.75581827  1
  Na  Na48  1  0.11031304  0.08456269  0.11845386  1
  Na  Na49  1  0.11021824  0.08332449  0.36826025  1
  Na  Na50  1  0.10988518  0.08367701  0.61937081  1
  Na  Na51  1  0.11001687  0.08222241  0.86992718  1
  Na  Na52  1  0.10982840  0.41740221  0.11787938  1
  Na  Na53  1  0.11014751  0.41650305  0.36701825  1
  Na  Na54  1  0.10979093  0.41627352  0.61846245  1
  Na  Na55  1  0.11010916  0.41513970  0.86849610  1
  Na  Na56  1  0.10951528  0.74988922  0.11856087  1
  Na  Na57  1  0.11045405  0.74865554  0.36738173  1
  Na  Na58  1  0.11030032  0.74930486  0.61827872  1
  Na  Na59  1  0.10956001  0.74865924  0.86930832  1
  Na  Na60  1  0.60964257  0.08219158  0.11874870  1
  Na  Na61  1  0.60969500  0.08451315  0.36880520  1
  Na  Na62  1  0.60926009  0.08483587  0.61837421  1
  Na  Na63  1  0.60920674  0.08299952  0.86887423  1
  Na  Na64  1  0.60935990  0.41708145  0.11923106  1
  Na  Na65  1  0.60968655  0.41758254  0.36966099  1
  Na  Na66  1  0.60946821  0.41841105  0.61828445  1
  Na  Na67  1  0.60972871  0.41728586  0.86917739  1
  Na  Na68  1  0.60941391  0.74833095  0.11829684  1
  Na  Na69  1  0.60997385  0.74938446  0.36876269  1
  Na  Na70  1  0.60921564  0.75092962  0.61873951  1
  Na  Na71  1  0.60940986  0.74902621  0.86988265  1
  Na  Na72  1  0.38963701  0.25028987  0.13203954  1
  Na  Na73  1  0.39060312  0.25119869  0.38225080  1
  Na  Na74  1  0.39027727  0.25184325  0.63046621  1
  Na  Na75  1  0.38997177  0.25130537  0.88154303  1
  Na  Na76  1  0.39000319  0.58267135  0.13068666  1
  Na  Na77  1  0.38944256  0.58298021  0.38294365  1
  Na  Na78  1  0.38986416  0.58490578  0.63057100  1
  Na  Na79  1  0.39048265  0.58347266  0.88109149  1
  Na  Na80  1  0.38940711  0.91573403  0.13148452  1
  Na  Na81  1  0.38988016  0.91702227  0.38214496  1
  Na  Na82  1  0.39064664  0.91723029  0.63067414  1
  Na  Na83  1  0.38966208  0.91528710  0.88253874  1
  Na  Na84  1  0.89069825  0.25104641  0.13046041  1
  Na  Na85  1  0.89058236  0.24939734  0.38062168  1
  Na  Na86  1  0.89060876  0.25033531  0.63129689  1
  Na  Na87  1  0.89013661  0.24959157  0.88192062  1
  Na  Na88  1  0.88992678  0.58305330  0.13109066  1
  Na  Na89  1  0.88979031  0.58283350  0.38028456  1
  Na  Na90  1  0.89042360  0.58317995  0.63028874  1
  Na  Na91  1  0.89062940  0.58191248  0.88208308  1
  Na  Na92  1  0.89030306  0.91743259  0.13159865  1
  Na  Na93  1  0.89062592  0.91565859  0.38130112  1
  Na  Na94  1  0.89068155  0.91684624  0.63013370  1
  Na  Na95  1  0.89060148  0.91580072  0.88166018  1
  Mn  Mn96  1  0.00007266  0.83241949  0.75033209  1
  Mn  Mn97  1  0.50000696  0.49919066  0.25131547  1
  Mn  Mn98  1  0.49909545  -0.00039679  0.74970644  1
  Mn  Mn99  1  0.75050521  0.33359770  0.12534349  1
  Mn  Mn100  1  0.25082456  0.83221220  0.62463956  1
  Mn  Mn101  1  0.00094702  0.83208532  0.49997236  1
  Mn  Mn102  1  0.49937793  0.66576945  0.24964104  1
  Mn  Mn103  1  0.49989057  0.66700469  0.75035225  1
  Mn  Mn104  1  0.00032926  0.83257656  0.25006378  1
  Mn  Mn105  1  0.25017802  0.66751029  0.12457733  1
  Mn  Mn106  1  0.50025942  0.33514449  0.75008076  1
  Mn  Mn107  1  0.75051035  0.83259847  0.87507706  1
  Mn  Mn108  1  0.49961591  0.16746968  0.25044655  1
  Mn  Mn109  1  0.75051195  0.00077798  0.87435180  1
  Mn  Mn110  1  0.25017705  0.16660821  0.87553960  1
  Mn  Mn111  1  0.50037981  0.33421213  0.00022937  1
  Mn  Mn112  1  0.00019502  0.50045498  0.49882658  1
  Mn  Mn113  1  0.75048649  0.33477644  0.62429903  1
  Mn  Mn114  1  -0.00006383  0.33287725  0.74979375  1
  Mn  Mn115  1  0.49955775  0.83266055  0.25058924  1
  Mn  Mn116  1  0.74999534  0.50025699  0.87558532  1
  Mn  Mn117  1  0.00072641  0.00086470  0.50069353  1
  Mn  Mn118  1  0.25012313  0.49949048  0.12478444  1
  Mn  Mn119  1  0.74988320  0.83236320  0.12477168  1
  Mn  Mn120  1  0.75009005  0.00065255  0.62439314  1
  Mn  Mn121  1  0.75052278  0.16580372  0.12442575  1
  Mn  Mn122  1  0.74934354  0.66616752  0.62482946  1
  Mn  Mn123  1  0.24946900  0.49991967  0.62437184  1
  Mn  Mn124  1  -0.00033176  0.83270027  0.00052289  1
  Mn  Mn125  1  -0.00007315  0.66504077  0.74965034  1
  Mn  Mn126  1  0.75013015  0.33388879  0.37461389  1
  Mn  Mn127  1  0.00016124  0.16676115  0.00007738  1
  Mn  Mn128  1  0.49960202  0.16753376  0.74938473  1
  Mn  Mn129  1  0.00029192  0.33366730  0.24953643  1
  Mn  Mn130  1  -0.00003425  0.33259336  0.49910633  1
  Mn  Mn131  1  0.75005923  0.16796125  0.62539979  1
  Mn  Mn132  1  0.24970880  0.16754089  0.62573770  1
  Mn  Mn133  1  0.50024019  0.83380076  0.49999762  1
  Mn  Mn134  1  0.49903399  -0.00141344  -0.00056479  1
  Mn  Mn135  1  0.25027843  -0.00059265  0.62550569  1
  Mn  Mn136  1  0.75001635  0.83311040  0.62484954  1
  Mn  Mn137  1  0.50022430  -0.00018175  0.25021067  1
  Mn  Mn138  1  0.49970091  0.16670776  0.00054255  1
  Mn  Mn139  1  0.25035716  0.16702644  0.37474276  1
  Mn  Mn140  1  0.00052291  0.00106134  0.25087047  1
  Mn  Mn141  1  0.25001128  0.66672421  0.87515290  1
  Mn  Mn142  1  0.00063948  0.00020998  0.75011483  1
  Mn  Mn143  1  0.75029678  -0.00047618  0.37497187  1
  Fe  Fe144  1  0.49956614  0.66727922  0.50078490  1
  Fe  Fe145  1  0.49999717  0.83244761  0.00029799  1
  Fe  Fe146  1  0.00063297  0.66578537  0.49937285  1
  Fe  Fe147  1  0.24979331  0.33345560  0.12492855  1
  Fe  Fe148  1  -0.00023896  0.00023215  0.00031403  1
  Fe  Fe149  1  0.24960108  0.83330759  0.87570097  1
  Fe  Fe150  1  0.25045057  0.16668040  0.12511296  1
  Fe  Fe151  1  0.49913979  0.49984600  0.00013485  1
  Fe  Fe152  1  0.24948747  0.66641672  0.62450719  1
  Fe  Fe153  1  0.74977997  0.50044948  0.37503847  1
  Fe  Fe154  1  0.74985879  0.33409375  0.87531246  1
  Fe  Fe155  1  0.25002579  0.49931082  0.87428602  1
  Fe  Fe156  1  0.24962261  0.50027233  0.37476819  1
  Fe  Fe157  1  0.00002666  0.16643868  0.75072113  1
  Fe  Fe158  1  0.74974222  0.66603212  0.37493527  1
  Fe  Fe159  1  0.75002511  0.66598513  0.87556932  1
  Fe  Fe160  1  -0.00007207  0.66572869  0.24887533  1
  Fe  Fe161  1  0.24942950  0.83427376  0.12581445  1
  Fe  Fe162  1  0.74917908  0.16731418  0.87540159  1
  Fe  Fe163  1  0.25025988  0.00044316  0.37465926  1
  Fe  Fe164  1  0.25014362  -0.00023492  0.12555979  1
  Fe  Fe165  1  0.00049901  0.16673543  0.50000601  1
  Fe  Fe166  1  0.75038965  0.83253279  0.37402332  1
  Fe  Fe167  1  0.25018644  0.83364184  0.37490724  1
  Fe  Fe168  1  0.74907233  0.50009092  0.12528687  1
  Fe  Fe169  1  0.24965678  0.33395745  0.62453688  1
  Fe  Fe170  1  0.49998004  0.33377385  0.25071274  1
  Fe  Fe171  1  0.24995353  0.66729047  0.37428524  1
  Fe  Fe172  1  -0.00026566  0.50029741  0.24878529  1
  Fe  Fe173  1  0.49961781  0.66603022  -0.00045829  1
  Fe  Fe174  1  0.24987276  -0.00047033  0.87635581  1
  Fe  Fe175  1  0.49982751  0.83327112  0.74992312  1
  Fe  Fe176  1  -0.00043562  0.66558641  -0.00004194  1
  Fe  Fe177  1  0.50002566  0.50073114  0.50011601  1
  Fe  Fe178  1  0.00014819  0.16720646  0.24928702  1
  Fe  Fe179  1  0.00067096  0.33349706  -0.00020872  1
  Fe  Fe180  1  0.74935210  0.66564071  0.12604434  1
  Fe  Fe181  1  0.49992088  0.33456668  0.50066935  1
  Fe  Fe182  1  0.00042752  0.49908880  0.75037195  1
  Fe  Fe183  1  0.25038192  0.33293623  0.87508726  1
  Fe  Fe184  1  0.50058724  0.00073392  0.50061967  1
  Fe  Fe185  1  0.25033636  0.33359393  0.37445315  1
  Fe  Fe186  1  0.49991872  0.50111668  0.74959297  1
  Fe  Fe187  1  0.75034435  0.16653259  0.37445102  1
  Fe  Fe188  1  0.75033518  0.50064210  0.62551782  1
  Fe  Fe189  1  0.74986227  -0.00066265  0.12507684  1
  Fe  Fe190  1  0.00016528  0.49969202  -0.00010628  1
  Fe  Fe191  1  0.50013041  0.16783103  0.49985474  1
  P  P192  1  0.04253193  0.25158086  0.10243647  1
  P  P193  1  0.04263319  0.24847064  0.35208644  1
  P  P194  1  0.04238210  0.24874352  0.60259774  1
  P  P195  1  0.04229303  0.24884144  0.85286808  1
  P  P196  1  0.04153686  0.58311915  0.10167100  1
  P  P197  1  0.04153274  0.58309185  0.35075065  1
  P  P198  1  0.04318555  0.58372131  0.60198901  1
  P  P199  1  0.04213904  0.58103535  0.85324141  1
  P  P200  1  0.04190300  0.91812939  0.10266428  1
  P  P201  1  0.04336248  0.91630052  0.35325416  1
  P  P202  1  0.04360391  0.91650178  0.60316779  1
  P  P203  1  0.04248904  0.91629413  0.85410263  1
  P  P204  1  0.54276856  0.25066652  0.10400975  1
  P  P205  1  0.54197199  0.25203053  0.35376096  1
  P  P206  1  0.54171950  0.25125533  0.60136272  1
  P  P207  1  0.54262765  0.25072763  0.85304802  1
  P  P208  1  0.54095390  0.58263815  0.10145898  1
  P  P209  1  0.54185471  0.58347808  0.35459397  1
  P  P210  1  0.54141413  0.58403244  0.60198371  1
  P  P211  1  0.54177759  0.58230380  0.85328621  1
  P  P212  1  0.54220595  0.91472703  0.10238740  1
  P  P213  1  0.54277604  0.91693407  0.35396023  1
  P  P214  1  0.54252928  0.91802506  0.60277165  1
  P  P215  1  0.54163284  0.91466403  0.85279652  1
  P  P216  1  0.45686333  0.08303661  0.14727458  1
  P  P217  1  0.45882046  0.08394206  0.39889566  1
  P  P218  1  0.45711440  0.08403137  0.64569757  1
  P  P219  1  0.45635016  0.08323175  0.89691312  1
  P  P220  1  0.45742811  0.41581901  0.14794906  1
  P  P221  1  0.45844891  0.41675533  0.39876756  1
  P  P222  1  0.45796173  0.41929937  0.64656830  1
  P  P223  1  0.45757564  0.41861948  0.89713665  1
  P  P224  1  0.45692877  0.74937772  0.14609421  1
  P  P225  1  0.45748020  0.74882592  0.39801639  1
  P  P226  1  0.45756402  0.75117619  0.64745899  1
  P  P227  1  0.45832867  0.74994885  0.89828423  1
  P  P228  1  0.95796423  0.08481541  0.14726652  1
  P  P229  1  0.95822791  0.08498905  0.39733588  1
  P  P230  1  0.95786196  0.08519446  0.64754233  1
  P  P231  1  0.95782429  0.08223412  0.89750495  1
  P  P232  1  0.95809106  0.41818902  0.14621466  1
  P  P233  1  0.95753361  0.41671668  0.39569008  1
  P  P234  1  0.95782516  0.41786738  0.64747537  1
  P  P235  1  0.95887562  0.41627860  0.89816942  1
  P  P236  1  0.95779972  0.74818421  0.14701007  1
  P  P237  1  0.95861972  0.74742901  0.39660566  1
  P  P238  1  0.95745333  0.74891213  0.64632320  1
  P  P239  1  0.95739508  0.74760486  0.89794948  1
  P  P240  1  0.20910387  0.08316540  0.22687539  1
  P  P241  1  0.20822909  0.08248489  0.47721896  1
  P  P242  1  0.20750894  0.08276404  0.72919289  1
  P  P243  1  0.20822114  0.08215193  0.97895485  1
  P  P244  1  0.20780967  0.41537213  0.22778537  1
  P  P245  1  0.20849182  0.41661439  0.47613220  1
  P  P246  1  0.20789037  0.41518953  0.72779336  1
  P  P247  1  0.20876501  0.41600592  0.97642286  1
  P  P248  1  0.20794410  0.75162589  0.22806435  1
  P  P249  1  0.20876530  0.74994618  0.47632710  1
  P  P250  1  0.20799139  0.74834627  0.72762796  1
  P  P251  1  0.20770301  0.75169776  0.97815343  1
  P  P252  1  0.70791850  0.08169362  0.22755246  1
  P  P253  1  0.70792164  0.08490291  0.47703059  1
  P  P254  1  0.70702734  0.08431253  0.72841066  1
  P  P255  1  0.70751896  0.08416171  0.97753538  1
  P  P256  1  0.70761378  0.41815415  0.22807691  1
  P  P257  1  0.70808000  0.41875858  0.47767367  1
  P  P258  1  0.70781205  0.41824568  0.72780783  1
  P  P259  1  0.70770885  0.41595642  0.97809982  1
  P  P260  1  0.70747454  0.74820534  0.22820300  1
  P  P261  1  0.70870154  0.75004189  0.47613104  1
  P  P262  1  0.70683438  0.74954211  0.72857618  1
  P  P263  1  0.70807282  0.74793458  0.97819083  1
  P  P264  1  0.29141319  0.25052564  0.02337321  1
  P  P265  1  0.29245464  0.25127945  0.27179324  1
  P  P266  1  0.29179405  0.25201427  0.52214589  1
  P  P267  1  0.29220379  0.25135351  0.77239030  1
  P  P268  1  0.29205232  0.58305808  0.02121426  1
  P  P269  1  0.29106456  0.58353627  0.27326533  1
  P  P270  1  0.29148036  0.58481025  0.52139552  1
  P  P271  1  0.29185819  0.58202217  0.77215337  1
  P  P272  1  0.29099179  0.91670415  0.02335723  1
  P  P273  1  0.29142340  0.91705552  0.27307411  1
  P  P274  1  0.29288598  0.91635587  0.52106378  1
  P  P275  1  0.29149377  0.91624280  0.77430332  1
  P  P276  1  0.79280082  0.25029391  0.02098174  1
  P  P277  1  0.79252607  0.24895148  0.27225580  1
  P  P278  1  0.79290122  0.25052227  0.52108272  1
  P  P279  1  0.79145750  0.25098084  0.77384642  1
  P  P280  1  0.79096327  0.58307388  0.02376016  1
  P  P281  1  0.79062262  0.58289337  0.27273121  1
  P  P282  1  0.79193848  0.58195840  0.52173972  1
  P  P283  1  0.79236718  0.58419788  0.77279631  1
  P  P284  1  0.79238828  0.91745162  0.02261871  1
  P  P285  1  0.79270510  0.91488454  0.27193357  1
  P  P286  1  0.79290655  0.91620538  0.52091391  1
  P  P287  1  0.79343054  0.91661211  0.77169438  1
  O  O288  1  0.03727893  0.25103595  0.18233781  1
  O  O289  1  0.03737256  0.24824934  0.43205506  1
  O  O290  1  0.03708588  0.24882838  0.68256872  1
  O  O291  1  0.03712794  0.24986061  0.93278372  1
  O  O292  1  0.03636893  0.58318135  0.18160126  1
  O  O293  1  0.03681260  0.58370738  0.43072467  1
  O  O294  1  0.03818482  0.58288528  0.68190527  1
  O  O295  1  0.03662038  0.58141611  0.93310774  1
  O  O296  1  0.03684201  0.91788397  0.18263530  1
  O  O297  1  0.03850560  0.91633242  0.43321624  1
  O  O298  1  0.03842006  0.91640311  0.68315994  1
  O  O299  1  0.03678612  0.91681190  0.93402898  1
  O  O300  1  0.53756664  0.25123456  0.18399707  1
  O  O301  1  0.53627313  0.25167645  0.43364598  1
  O  O302  1  0.53683334  0.25122714  0.68135339  1
  O  O303  1  0.53753886  0.25062622  0.93302807  1
  O  O304  1  0.53640684  0.58290036  0.18147264  1
  O  O305  1  0.53658754  0.58384392  0.43447381  1
  O  O306  1  0.53628845  0.58367775  0.68199291  1
  O  O307  1  0.53611845  0.58220483  0.93310633  1
  O  O308  1  0.53731823  0.91510522  0.18239534  1
  O  O309  1  0.53775984  0.91774926  0.43394026  1
  O  O310  1  0.53708390  0.91731062  0.68268932  1
  O  O311  1  0.53641609  0.91429308  0.93277374  1
  O  O312  1  0.46162113  0.08283544  0.06728991  1
  O  O313  1  0.46376270  0.08380426  0.31887719  1
  O  O314  1  0.46283004  0.08407336  0.56577968  1
  O  O315  1  0.46137810  0.08320911  0.81690697  1
  O  O316  1  0.46259425  0.41661196  0.06800670  1
  O  O317  1  0.46355046  0.41591739  0.31880190  1
  O  O318  1  0.46365782  0.41898434  0.56668280  1
  O  O319  1  0.46296329  0.41895127  0.81721243  1
  O  O320  1  0.46225473  0.74946990  0.06617771  1
  O  O321  1  0.46230049  0.74886043  0.31803024  1
  O  O322  1  0.46297138  0.75054075  0.56754749  1
  O  O323  1  0.46311898  0.75036939  0.81829817  1
  O  O324  1  0.96308912  0.08393785  0.06730360  1
  O  O325  1  0.96345815  0.08509925  0.31735326  1
  O  O326  1  0.96320685  0.08557304  0.56756905  1
  O  O327  1  0.96311432  0.08279245  0.81758585  1
  O  O328  1  0.96374129  0.41790279  0.06635220  1
  O  O329  1  0.96266776  0.41717964  0.31575227  1
  O  O330  1  0.96282170  0.41756573  0.56751571  1
  O  O331  1  0.96383255  0.41641448  0.81817650  1
  O  O332  1  0.96302840  0.74808515  0.06707075  1
  O  O333  1  0.96380330  0.74743109  0.31662782  1
  O  O334  1  0.96282659  0.74851440  0.56635931  1
  O  O335  1  0.96259013  0.74774133  0.81799533  1
  O  O336  1  0.21386077  0.08244345  0.05881032  1
  O  O337  1  0.21400314  0.08325041  0.30686156  1
  O  O338  1  0.21309531  0.08283162  0.55717321  1
  O  O339  1  0.21300073  0.08249845  0.80914868  1
  O  O340  1  0.21359705  0.41606027  0.05639391  1
  O  O341  1  0.21311301  0.41568519  0.30762845  1
  O  O342  1  0.21296762  0.41692542  0.55613636  1
  O  O343  1  0.21345640  0.41535837  0.80760765  1
  O  O344  1  0.21295001  0.75189855  0.05807401  1
  O  O345  1  0.21347171  0.75140031  0.30793032  1
  O  O346  1  0.21350018  0.74905278  0.55631733  1
  O  O347  1  0.21308447  0.74901128  0.80753878  1
  O  O348  1  0.71267141  0.08318185  0.05747432  1
  O  O349  1  0.71328087  0.08236074  0.30746325  1
  O  O350  1  0.71289583  0.08484338  0.55699704  1
  O  O351  1  0.71206559  0.08472187  0.80839134  1
  O  O352  1  0.71282885  0.41660717  0.05800924  1
  O  O353  1  0.71304442  0.41839725  0.30799751  1
  O  O354  1  0.71350441  0.41893913  0.55758914  1
  O  O355  1  0.71300731  0.41716638  0.80777662  1
  O  O356  1  0.71336181  0.74784082  0.05814919  1
  O  O357  1  0.71297400  0.74871991  0.30805050  1
  O  O358  1  0.71336677  0.74986970  0.55611358  1
  O  O359  1  0.71203041  0.74898581  0.80851905  1
  O  O360  1  0.28703859  0.25096578  0.19192875  1
  O  O361  1  0.28662022  0.25192844  0.44219523  1
  O  O362  1  0.28681781  0.25141750  0.69246872  1
  O  O363  1  0.28644860  0.25038311  0.94340029  1
  O  O364  1  0.28674663  0.58333918  0.19323511  1
  O  O365  1  0.28628221  0.58470895  0.44151193  1
  O  O366  1  0.28664481  0.58232808  0.69222226  1
  O  O367  1  0.28667079  0.58241975  0.94133791  1
  O  O368  1  0.28589200  0.91715084  0.19318280  1
  O  O369  1  0.28759147  0.91634422  0.44119387  1
  O  O370  1  0.28674395  0.91594483  0.69430152  1
  O  O371  1  0.28561199  0.91671070  0.94349999  1
  O  O372  1  0.78741684  0.24900080  0.19231660  1
  O  O373  1  0.78786585  0.24989269  0.44113583  1
  O  O374  1  0.78659918  0.25130452  0.69380102  1
  O  O375  1  0.78720150  0.25047708  0.94110780  1
  O  O376  1  0.78539371  0.58304657  0.19287202  1
  O  O377  1  0.78643126  0.58196349  0.44188450  1
  O  O378  1  0.78729779  0.58351462  0.69286404  1
  O  O379  1  0.78621177  0.58353470  0.94379211  1
  O  O380  1  0.78726074  0.91550369  0.19201121  1
  O  O381  1  0.78761902  0.91560434  0.44092805  1
  O  O382  1  0.78836724  0.91672941  0.69170365  1
  O  O383  1  0.78750182  0.91723135  0.94265284  1
  O  O384  1  0.22735103  0.25083941  0.05957524  1
  O  O385  1  0.22828356  0.25134387  0.30791351  1
  O  O386  1  0.22756083  0.25195771  0.55804567  1
  O  O387  1  0.22800785  0.25123192  0.80837303  1
  O  O388  1  0.22787809  0.58333451  0.05696431  1
  O  O389  1  0.22678188  0.58356542  0.30860444  1
  O  O390  1  0.22735234  0.58480790  0.55757987  1
  O  O391  1  0.22770802  0.58213565  0.80807916  1
  O  O392  1  0.22703654  0.91711468  0.06007535  1
  O  O393  1  0.22749355  0.91703624  0.30975614  1
  O  O394  1  0.22871514  0.91585901  0.55694857  1
  O  O395  1  0.22726025  0.91625896  0.81010574  1
  O  O396  1  0.72868713  0.25008354  0.05697187  1
  O  O397  1  0.72824874  0.24906248  0.30787910  1
  O  O398  1  0.72849654  0.25107401  0.55627961  1
  O  O399  1  0.72721720  0.25135380  0.80968116  1
  O  O400  1  0.72668016  0.58275736  0.05960638  1
  O  O401  1  0.72665333  0.58264421  0.30914622  1
  O  O402  1  0.72780712  0.58142169  0.55809582  1
  O  O403  1  0.72800034  0.58454480  0.80837948  1
  O  O404  1  0.72799881  0.91735370  0.05802418  1
  O  O405  1  0.72848459  0.91462541  0.30782390  1
  O  O406  1  0.72854875  0.91668034  0.55632964  1
  O  O407  1  0.72897668  0.91651660  0.80671437  1
  O  O408  1  0.27319679  0.08261859  0.19088750  1
  O  O409  1  0.27257867  0.08244710  0.44171549  1
  O  O410  1  0.27170103  0.08338234  0.69343694  1
  O  O411  1  0.27218268  0.08200757  0.94241074  1
  O  O412  1  0.27202678  0.41484050  0.19177385  1
  O  O413  1  0.27274336  0.41655154  0.44043394  1
  O  O414  1  0.27193912  0.41535377  0.69134505  1
  O  O415  1  0.27292003  0.41588006  0.94044812  1
  O  O416  1  0.27203014  0.75204727  0.19178978  1
  O  O417  1  0.27293316  0.75062304  0.44044543  1
  O  O418  1  0.27229758  0.74770227  0.69185435  1
  O  O419  1  0.27193074  0.75157638  0.94229423  1
  O  O420  1  0.77219558  0.08114253  0.19172575  1
  O  O421  1  0.77227866  0.08477477  0.44155525  1
  O  O422  1  0.77150095  0.08405409  0.69331226  1
  O  O423  1  0.77180919  0.08505973  0.94188607  1
  O  O424  1  0.77181799  0.41882886  0.19212725  1
  O  O425  1  0.77222772  0.41854402  0.44163044  1
  O  O426  1  0.77218227  0.41887375  0.69214471  1
  O  O427  1  0.77199819  0.41555278  0.94234524  1
  O  O428  1  0.77162908  0.74787675  0.19205809  1
  O  O429  1  0.77284785  0.75034651  0.44025198  1
  O  O430  1  0.77120221  0.74927799  0.69323104  1
  O  O431  1  0.77227604  0.74777914  0.94223558  1
  O  O432  1  0.02232601  0.08539463  0.18279295  1
  O  O433  1  0.02255704  0.08497439  0.43294320  1
  O  O434  1  0.02215584  0.08537095  0.68325698  1
  O  O435  1  0.02205796  0.08187990  0.93328347  1
  O  O436  1  0.02214320  0.41849381  0.18252866  1
  O  O437  1  0.02183358  0.41645530  0.43103986  1
  O  O438  1  0.02217402  0.41751393  0.68295171  1
  O  O439  1  0.02305748  0.41663405  0.93408677  1
  O  O440  1  0.02206954  0.74810651  0.18265233  1
  O  O441  1  0.02286073  0.74723923  0.43242665  1
  O  O442  1  0.02177614  0.74893156  0.68169667  1
  O  O443  1  0.02169345  0.74779136  0.93345928  1
  O  O444  1  0.52139245  0.08357302  0.18202054  1
  O  O445  1  0.52300002  0.08430590  0.43465523  1
  O  O446  1  0.52123700  0.08357211  0.68161753  1
  O  O447  1  0.52082242  0.08292857  0.93184712  1
  O  O448  1  0.52176611  0.41525379  0.18360669  1
  O  O449  1  0.52255506  0.41720850  0.43482575  1
  O  O450  1  0.52205848  0.41977276  0.68287619  1
  O  O451  1  0.52182260  0.41892415  0.93294564  1
  O  O452  1  0.52121873  0.74941634  0.18165224  1
  O  O453  1  0.52186602  0.74866042  0.43328013  1
  O  O454  1  0.52179367  0.75139609  0.68326281  1
  O  O455  1  0.52243223  0.75014576  0.93428699  1
  O  O456  1  0.47838948  0.25079114  0.06878841  1
  O  O457  1  0.47787836  0.25243056  0.31743326  1
  O  O458  1  0.47746249  0.25116917  0.56573237  1
  O  O459  1  0.47823064  0.25122572  0.81795592  1
  O  O460  1  0.47673611  0.58242420  0.06583936  1
  O  O461  1  0.47763791  0.58286357  0.31890763  1
  O  O462  1  0.47726201  0.58413975  0.56597638  1
  O  O463  1  0.47776249  0.58216294  0.81678782  1
  O  O464  1  0.47772556  0.91411670  0.06723618  1
  O  O465  1  0.47832573  0.91674677  0.31891758  1
  O  O466  1  0.47832073  0.91831393  0.56699042  1
  O  O467  1  0.47734146  0.91465270  0.81711372  1
  O  O468  1  0.97833637  0.25170670  0.06666817  1
  O  O469  1  0.97834780  0.24864290  0.31640713  1
  O  O470  1  0.97810534  0.24853766  0.56688098  1
  O  O471  1  0.97802256  0.24849276  0.81712282  1
  O  O472  1  0.97740178  0.58272370  0.06550081  1
  O  O473  1  0.97727811  0.58266429  0.31493323  1
  O  O474  1  0.97874509  0.58454111  0.56657653  1
  O  O475  1  0.97804733  0.58069847  0.81697950  1
  O  O476  1  0.97762506  0.91789585  0.06714408  1
  O  O477  1  0.97889629  0.91652015  0.31837412  1
  O  O478  1  0.97922751  0.91647169  0.56803902  1
  O  O479  1  0.97836434  0.91637253  0.81826779  1
  O  O480  1  0.07307053  0.31530756  0.07405140  1
  O  O481  1  0.07360581  0.31233240  0.32459838  1
  O  O482  1  0.07302060  0.31270943  0.57461828  1
  O  O483  1  0.07348937  0.31208313  0.82426279  1
  O  O484  1  0.07215857  0.64692326  0.07321639  1
  O  O485  1  0.07230002  0.64654028  0.32195900  1
  O  O486  1  0.07403621  0.64720392  0.57345409  1
  O  O487  1  0.07335777  0.64458730  0.82522791  1
  O  O488  1  0.07235485  0.98188008  0.07434089  1
  O  O489  1  0.07447317  0.97977500  0.32519967  1
  O  O490  1  0.07453132  0.98017502  0.57532612  1
  O  O491  1  0.07415006  0.97928680  0.82573977  1
  O  O492  1  0.57429686  0.31368022  0.07538660  1
  O  O493  1  0.57317455  0.31534651  0.32531821  1
  O  O494  1  0.57247987  0.31513019  0.57360279  1
  O  O495  1  0.57381719  0.31421178  0.82506697  1
  O  O496  1  0.57128975  0.64643431  0.07275467  1
  O  O497  1  0.57282573  0.64672455  0.32565740  1
  O  O498  1  0.57207072  0.64808649  0.57433102  1
  O  O499  1  0.57275815  0.64611445  0.82546929  1
  O  O500  1  0.57273562  0.97858197  0.07429197  1
  O  O501  1  0.57408876  0.97997979  0.32511325  1
  O  O502  1  0.57329535  0.98170219  0.57455517  1
  O  O503  1  0.57253430  0.97860847  0.82534864  1
  O  O504  1  0.42630532  0.01934096  0.17558942  1
  O  O505  1  0.42822672  0.02013854  0.42701102  1
  O  O506  1  0.42545852  0.02087072  0.67403589  1
  O  O507  1  0.42528181  0.01971938  0.92498686  1
  O  O508  1  0.42668334  0.35229251  0.17632064  1
  O  O509  1  0.42741865  0.35345914  0.42749417  1
  O  O510  1  0.42718172  0.35545783  0.67461092  1
  O  O511  1  0.42695893  0.35458062  0.92475866  1
  O  O512  1  0.42578793  0.68585422  0.17433508  1
  O  O513  1  0.42664978  0.68544185  0.42663585  1
  O  O514  1  0.42630244  0.68784434  0.67572684  1
  O  O515  1  0.42820840  0.68559292  0.92611478  1
  O  O516  1  0.92695691  0.02144312  0.17581986  1
  O  O517  1  0.92735817  0.02105620  0.42495834  1
  O  O518  1  0.92709979  0.02108541  0.67475034  1
  O  O519  1  0.92709000  0.01864621  0.92602001  1
  O  O520  1  0.92687696  0.35465093  0.17423903  1
  O  O521  1  0.92656762  0.35306213  0.42368793  1
  O  O522  1  0.92649508  0.35436481  0.67532872  1
  O  O523  1  0.92859876  0.35219222  0.92627345  1
  O  O524  1  0.92680231  0.68485609  0.17564579  1
  O  O525  1  0.92758244  0.68412933  0.42519056  1
  O  O526  1  0.92609163  0.68571949  0.67477144  1
  O  O527  1  0.92683493  0.68393745  0.92636074  1
  O  O528  1  0.17737552  0.02003065  0.19883191  1
  O  O529  1  0.17758768  0.01890786  0.44867246  1
  O  O530  1  0.17647507  0.01934641  0.70092777  1
  O  O531  1  0.17721709  0.01874256  0.95034973  1
  O  O532  1  0.17653232  0.35225574  0.19893311  1
  O  O533  1  0.17737589  0.35318740  0.44792358  1
  O  O534  1  0.17708354  0.35171363  0.69898256  1
  O  O535  1  0.17767578  0.35247358  0.94828279  1
  O  O536  1  0.17704927  0.68787240  0.19990501  1
  O  O537  1  0.17831647  0.68634551  0.44711366  1
  O  O538  1  0.17715273  0.68475050  0.69924636  1
  O  O539  1  0.17670050  0.68789234  0.95048331  1
  O  O540  1  0.67719683  0.01793292  0.19930460  1
  O  O541  1  0.67673881  0.02126527  0.44947212  1
  O  O542  1  0.67613352  0.02068353  0.70018289  1
  O  O543  1  0.67650116  0.02066879  0.94919078  1
  O  O544  1  0.67727561  0.35390204  0.20063671  1
  O  O545  1  0.67706259  0.35491384  0.45008988  1
  O  O546  1  0.67676615  0.35491844  0.69906735  1
  O  O547  1  0.67683627  0.35247422  0.94963530  1
  O  O548  1  0.67635578  0.68474889  0.19974225  1
  O  O549  1  0.67843690  0.68587366  0.44812788  1
  O  O550  1  0.67530736  0.68653369  0.69982729  1
  O  O551  1  0.67705641  0.68462724  0.94961081  1
  O  O552  1  0.32275337  0.31392022  0.05136933  1
  O  O553  1  0.32334526  0.31462472  0.30067891  1
  O  O554  1  0.32255388  0.31551627  0.55072095  1
  O  O555  1  0.32323289  0.31468817  0.80099132  1
  O  O556  1  0.32305817  0.64681152  0.04888049  1
  O  O557  1  0.32184445  0.64731844  0.30127896  1
  O  O558  1  0.32226224  0.64817565  0.55048383  1
  O  O559  1  0.32345112  0.64532779  0.80011260  1
  O  O560  1  0.32247433  0.97999216  0.05171879  1
  O  O561  1  0.32235529  0.98075956  0.30142688  1
  O  O562  1  0.32378303  0.97982466  0.54966476  1
  O  O563  1  0.32222716  0.98000083  0.80234037  1
  O  O564  1  0.82394523  0.31364345  0.04966228  1
  O  O565  1  0.82373902  0.31270250  0.29954241  1
  O  O566  1  0.82397906  0.31423833  0.54891554  1
  O  O567  1  0.82254988  0.31456463  0.80187425  1
  O  O568  1  0.82181746  0.64646098  0.05257651  1
  O  O569  1  0.82117209  0.64666983  0.30155450  1
  O  O570  1  0.82270209  0.64587271  0.54956960  1
  O  O571  1  0.82303719  0.64778751  0.80125785  1
  O  O572  1  0.82282366  0.98113841  0.05115897  1
  O  O573  1  0.82405934  0.97821457  0.30015146  1
  O  O574  1  0.82392536  0.97998463  0.54862293  1
  O  O575  1  0.82447948  0.98008893  0.79981311  1
  O  O576  1  0.42568531  0.14639480  0.17553813  1
  O  O577  1  0.42780499  0.14777058  0.42653638  1
  O  O578  1  0.42612946  0.14767213  0.67392352  1
  O  O579  1  0.42553705  0.14684125  0.92509411  1
  O  O580  1  0.42646763  0.47938670  0.17640295  1
  O  O581  1  0.42761836  0.48075884  0.42623888  1
  O  O582  1  0.42661512  0.48249460  0.67508505  1
  O  O583  1  0.42624786  0.48157436  0.92615467  1
  O  O584  1  0.42574333  0.81260211  0.17502046  1
  O  O585  1  0.42664513  0.81266402  0.42563833  1
  O  O586  1  0.42693445  0.81492682  0.67573914  1
  O  O587  1  0.42694597  0.81301892  0.92702766  1
  O  O588  1  0.92725010  0.14866253  0.17519686  1
  O  O589  1  0.92729433  0.14822980  0.42620139  1
  O  O590  1  0.92675088  0.14826382  0.67676994  1
  O  O591  1  0.92671218  0.14579367  0.92549509  1
  O  O592  1  0.92701552  0.48157215  0.17486262  1
  O  O593  1  0.92631656  0.47993925  0.42423312  1
  O  O594  1  0.92753938  0.48157133  0.67615718  1
  O  O595  1  0.92741644  0.47950125  0.92651923  1
  O  O596  1  0.92692690  0.81206459  0.17471784  1
  O  O597  1  0.92778425  0.81133439  0.42430494  1
  O  O598  1  0.92653093  0.81259297  0.67446277  1
  O  O599  1  0.92611264  0.81115374  0.92571477  1
  O  O600  1  0.07389635  0.18819563  0.07441094  1
  O  O601  1  0.07355283  0.18526575  0.32297092  1
  O  O602  1  0.07366170  0.18562290  0.57392213  1
  O  O603  1  0.07294052  0.18495965  0.82500706  1
  O  O604  1  0.07291401  0.51975473  0.07333947  1
  O  O605  1  0.07228479  0.51922923  0.32279172  1
  O  O606  1  0.07394738  0.52014195  0.57334155  1
  O  O607  1  0.07302175  0.51755346  0.82451382  1
  O  O608  1  0.07315517  0.85447080  0.07515033  1
  O  O609  1  0.07407535  0.85272356  0.32490501  1
  O  O610  1  0.07471771  0.85306820  0.57497285  1
  O  O611  1  0.07328062  0.85233250  0.82646008  1
  O  O612  1  0.57343643  0.18674938  0.07613289  1
  O  O613  1  0.57295467  0.18832670  0.32560228  1
  O  O614  1  0.57254281  0.18760875  0.57306236  1
  O  O615  1  0.57336324  0.18715067  0.82477924  1
  O  O616  1  0.57192142  0.51894185  0.07368360  1
  O  O617  1  0.57326911  0.52010949  0.32631649  1
  O  O618  1  0.57248529  0.52067998  0.57344455  1
  O  O619  1  0.57301941  0.51922858  0.82427654  1
  O  O620  1  0.57327511  0.85136036  0.07398829  1
  O  O621  1  0.57342795  0.85299964  0.32616969  1
  O  O622  1  0.57382075  0.85456580  0.57467721  1
  O  O623  1  0.57263572  0.85142236  0.82388374  1
  O  O624  1  0.32168411  0.18645070  0.05169549  1
  O  O625  1  0.32363734  0.18772727  0.29999204  1
  O  O626  1  0.32278642  0.18828993  0.54992105  1
  O  O627  1  0.32330873  0.18768689  0.80020891  1
  O  O628  1  0.32332330  0.51991867  0.04986904  1
  O  O629  1  0.32161446  0.51978063  0.30175853  1
  O  O630  1  0.32265309  0.52121831  0.54934864  1
  O  O631  1  0.32226000  0.51820970  0.80059133  1
  O  O632  1  0.32158483  0.85290309  0.05176283  1
  O  O633  1  0.32259984  0.85350901  0.30114664  1
  O  O634  1  0.32430671  0.85309550  0.54957847  1
  O  O635  1  0.32208152  0.85241284  0.80250077  1
  O  O636  1  0.82425185  0.18696837  0.04911511  1
  O  O637  1  0.82300125  0.18525321  0.30060743  1
  O  O638  1  0.82393425  0.18741423  0.55008437  1
  O  O639  1  0.82172546  0.18690696  0.80173231  1
  O  O640  1  0.82165744  0.51912738  0.05151859  1
  O  O641  1  0.82210277  0.51959903  0.30091695  1
  O  O642  1  0.82328850  0.51891989  0.55064592  1
  O  O643  1  0.82348483  0.52079597  0.80123367  1
  O  O644  1  0.82351654  0.85380573  0.05027311  1
  O  O645  1  0.82342271  0.85110424  0.29992968  1
  O  O646  1  0.82404850  0.85293862  0.54936643  1
  O  O647  1  0.82440102  0.85309387  0.79986572  1
  O  O648  1  0.17906332  0.14734510  0.19848103  1
  O  O649  1  0.17723232  0.14609877  0.44923774  1
  O  O650  1  0.17630205  0.14630006  0.70122993  1
  O  O651  1  0.17694991  0.14575122  0.95112217  1
  O  O652  1  0.17714261  0.47921032  0.19952147  1
  O  O653  1  0.17819111  0.48059879  0.44749657  1
  O  O654  1  0.17646504  0.47856087  0.69960334  1
  O  O655  1  0.17834824  0.47990826  0.94799678  1
  O  O656  1  0.17666136  0.81491245  0.19963265  1
  O  O657  1  0.17763904  0.81361910  0.44870518  1
  O  O658  1  0.17714128  0.81194661  0.69935482  1
  O  O659  1  0.17677640  0.81497247  0.94940903  1
  O  O660  1  0.67678988  0.14519769  0.19954520  1
  O  O661  1  0.67744862  0.14852417  0.44840615  1
  O  O662  1  0.67590013  0.14767085  0.70000022  1
  O  O663  1  0.67658854  0.14786234  0.94956178  1
  O  O664  1  0.67604098  0.48106393  0.19934038  1
  O  O665  1  0.67697289  0.48190111  0.44895374  1
  O  O666  1  0.67708359  0.48202862  0.69998228  1
  O  O667  1  0.67671540  0.47946526  0.94985039  1
  O  O668  1  0.67629983  0.81164036  0.19984575  1
  O  O669  1  0.67753434  0.81347452  0.44811558  1
  O  O670  1  0.67620366  0.81333760  0.70048505  1
  O  O671  1  0.67730470  0.81191854  0.95070507  1
