# generated using pymatgen
data_Na2MnFe(PO4)2
_symmetry_space_group_name_H-M   'P 1'
_cell_length_a   22.33874689
_cell_length_b   20.08969995
_cell_length_c   19.45381094
_cell_angle_alpha   89.98789466
_cell_angle_beta   89.94886470
_cell_angle_gamma   90.05601551
_symmetry_Int_Tables_number   1
_chemical_formula_structural   Na2MnFe(PO4)2
_chemical_formula_sum   'Na96 Mn48 Fe48 P96 O384'
_cell_volume   8730.44856714
_cell_formula_units_Z   48
loop_
 _symmetry_equiv_pos_site_id
 _symmetry_equiv_pos_as_xyz
  1  'x, y, z'
loop_
 _atom_site_type_symbol
 _atom_site_label
 _atom_site_symmetry_multiplicity
 _atom_site_fract_x
 _atom_site_fract_y
 _atom_site_fract_z
 _atom_site_occupancy
  Na  Na0  1  0.14026184  0.25124182  0.24282287  1
  Na  Na1  1  0.14072495  0.25027256  0.49507642  1
  Na  Na2  1  0.14091992  0.25064773  0.74312427  1
  Na  Na3  1  0.14092320  0.24997854  0.99337698  1
  Na  Na4  1  0.14103994  0.58458247  0.24361086  1
  Na  Na5  1  0.14052849  0.58391484  0.49427114  1
  Na  Na6  1  0.14066000  0.58271737  0.74302739  1
  Na  Na7  1  0.14048257  0.58193948  0.99374843  1
  Na  Na8  1  0.14097594  0.91623434  0.24333284  1
  Na  Na9  1  0.14052090  0.91578336  0.49441675  1
  Na  Na10  1  0.14036092  0.91691873  0.74178768  1
  Na  Na11  1  0.14043944  0.91641088  0.99299224  1
  Na  Na12  1  0.64034243  0.25051227  0.24438187  1
  Na  Na13  1  0.64047074  0.25133819  0.49471981  1
  Na  Na14  1  0.64042366  0.24964085  0.74405622  1
  Na  Na15  1  0.64036395  0.25109730  0.99379188  1
  Na  Na16  1  0.64068446  0.58228686  0.24211150  1
  Na  Na17  1  0.64011558  0.58250735  0.49408485  1
  Na  Na18  1  0.63979467  0.58241395  0.74456376  1
  Na  Na19  1  0.63995638  0.58406281  0.99303121  1
  Na  Na20  1  0.64014267  0.91541849  0.24327457  1
  Na  Na21  1  0.63996128  0.91779150  0.49361682  1
  Na  Na22  1  0.64056858  0.91688980  0.74376438  1
  Na  Na23  1  0.64086801  0.91585156  0.99351328  1
  Na  Na24  1  0.35948973  0.08274353  0.00597866  1
  Na  Na25  1  0.35908663  0.08312299  0.25628969  1
  Na  Na26  1  0.35925601  0.08325717  0.50812927  1
  Na  Na27  1  0.35950850  0.08494696  0.75599017  1
  Na  Na28  1  0.35957190  0.41743634  0.00646927  1
  Na  Na29  1  0.36002895  0.41884153  0.25665240  1
  Na  Na30  1  0.35981288  0.41723714  0.50818414  1
  Na  Na31  1  0.35956202  0.41763583  0.75616801  1
  Na  Na32  1  0.35922252  0.74889157  0.00666545  1
  Na  Na33  1  0.35953336  0.75051733  0.25551005  1
  Na  Na34  1  0.35900463  0.74996976  0.50666149  1
  Na  Na35  1  0.35942486  0.74955209  0.75623173  1
  Na  Na36  1  0.85987713  0.08329960  0.00591032  1
  Na  Na37  1  0.85979670  0.08363233  0.25558427  1
  Na  Na38  1  0.85937179  0.08445974  0.50600277  1
  Na  Na39  1  0.85961121  0.08238292  0.75653559  1
  Na  Na40  1  0.85987185  0.41755710  0.00719954  1
  Na  Na41  1  0.85994622  0.41546109  0.25560778  1
  Na  Na42  1  0.85982500  0.41632688  0.50660172  1
  Na  Na43  1  0.85972533  0.41538474  0.75735595  1
  Na  Na44  1  0.85888518  0.74891348  0.00566102  1
  Na  Na45  1  0.85928907  0.74867917  0.25495282  1
  Na  Na46  1  0.85957042  0.75027911  0.50605940  1
  Na  Na47  1  0.85937226  0.74913794  0.75654296  1
  Na  Na48  1  0.10970151  0.08503080  0.11805840  1
  Na  Na49  1  0.10991872  0.08425621  0.36900367  1
  Na  Na50  1  0.10994616  0.08137636  0.61860724  1
  Na  Na51  1  0.10998018  0.08222368  0.86750566  1
  Na  Na52  1  0.11013594  0.41674369  0.11818893  1
  Na  Na53  1  0.10986338  0.41658649  0.36956350  1
  Na  Na54  1  0.11006565  0.41599225  0.61930013  1
  Na  Na55  1  0.11070689  0.41648599  0.86882242  1
  Na  Na56  1  0.11044644  0.75012652  0.11785247  1
  Na  Na57  1  0.11050931  0.75043668  0.36883080  1
  Na  Na58  1  0.11006466  0.74945590  0.61764150  1
  Na  Na59  1  0.10940505  0.75040373  0.86794697  1
  Na  Na60  1  0.60927445  0.08347477  0.11910560  1
  Na  Na61  1  0.60933122  0.08276097  0.36967439  1
  Na  Na62  1  0.60957503  0.08542810  0.61871123  1
  Na  Na63  1  0.60957250  0.08473203  0.86886553  1
  Na  Na64  1  0.60994119  0.41771831  0.11804120  1
  Na  Na65  1  0.60979367  0.41679952  0.36922340  1
  Na  Na66  1  0.60984145  0.41696630  0.61916366  1
  Na  Na67  1  0.60968982  0.41764888  0.86905885  1
  Na  Na68  1  0.61016492  0.74965142  0.11709730  1
  Na  Na69  1  0.60932914  0.74903570  0.36779346  1
  Na  Na70  1  0.60919690  0.74920857  0.61976026  1
  Na  Na71  1  0.60994243  0.74837281  0.86842715  1
  Na  Na72  1  0.39031530  0.25020810  0.13122002  1
  Na  Na73  1  0.39022188  0.25022619  0.38251551  1
  Na  Na74  1  0.39024579  0.25177973  0.63237870  1
  Na  Na75  1  0.38996336  0.25110957  0.88107537  1
  Na  Na76  1  0.38980248  0.58455021  0.13159363  1
  Na  Na77  1  0.39018340  0.58285022  0.38148737  1
  Na  Na78  1  0.39000523  0.58303932  0.63168271  1
  Na  Na79  1  0.38965230  0.58315981  0.88118515  1
  Na  Na80  1  0.39011371  0.91606349  0.13112905  1
  Na  Na81  1  0.39006365  0.91560371  0.38178746  1
  Na  Na82  1  0.38982329  0.91758727  0.63228305  1
  Na  Na83  1  0.39000880  0.91704997  0.88099732  1
  Na  Na84  1  0.89074344  0.25073359  0.13118983  1
  Na  Na85  1  0.89053814  0.25019546  0.38093997  1
  Na  Na86  1  0.88971725  0.24877230  0.63266124  1
  Na  Na87  1  0.89075251  0.25005125  0.88148640  1
  Na  Na88  1  0.88974269  0.58155299  0.13114392  1
  Na  Na89  1  0.89019459  0.58305002  0.38074422  1
  Na  Na90  1  0.89062733  0.58236883  0.63155298  1
  Na  Na91  1  0.88984781  0.58215580  0.88250499  1
  Na  Na92  1  0.89039658  0.91741783  0.13029636  1
  Na  Na93  1  0.89047358  0.91670426  0.37969363  1
  Na  Na94  1  0.89043620  0.91564400  0.63107879  1
  Na  Na95  1  0.89018828  0.91612905  0.88037989  1
  Mn  Mn96  1  -0.00038566  0.66600364  -0.00064351  1
  Mn  Mn97  1  -0.00066287  -0.00120742  0.49904082  1
  Mn  Mn98  1  0.25011564  0.16728664  0.37577851  1
  Mn  Mn99  1  0.24944514  0.83374352  0.87467990  1
  Mn  Mn100  1  0.24898394  0.66595105  0.87518441  1
  Mn  Mn101  1  0.00037244  0.66624002  0.74994305  1
  Mn  Mn102  1  0.49966666  0.66533162  0.49914744  1
  Mn  Mn103  1  -0.00032993  0.83426123  -0.00115316  1
  Mn  Mn104  1  0.50037285  0.83269840  -0.00034247  1
  Mn  Mn105  1  0.00095655  0.00144484  0.25011485  1
  Mn  Mn106  1  0.74911279  0.83313368  0.62483124  1
  Mn  Mn107  1  0.75031110  0.00072681  0.37433166  1
  Mn  Mn108  1  0.50004429  0.33439328  0.25021273  1
  Mn  Mn109  1  0.00094415  0.49904529  0.25050890  1
  Mn  Mn110  1  0.50012014  0.83289758  0.75039244  1
  Mn  Mn111  1  0.00044943  0.83375413  0.24904176  1
  Mn  Mn112  1  0.24985209  0.16652134  0.87435410  1
  Mn  Mn113  1  0.49960434  0.83342844  0.50045033  1
  Mn  Mn114  1  0.50004412  0.33452140  0.75080138  1
  Mn  Mn115  1  0.74992465  0.66594216  0.62530308  1
  Mn  Mn116  1  0.00030518  0.16700554  -0.00079075  1
  Mn  Mn117  1  0.25049929  0.33412128  0.37525694  1
  Mn  Mn118  1  0.00039537  0.33324996  0.50050447  1
  Mn  Mn119  1  0.24975959  0.50159118  0.37602397  1
  Mn  Mn120  1  0.74952442  0.66528909  0.37440289  1
  Mn  Mn121  1  0.50030887  0.66636752  0.24998635  1
  Mn  Mn122  1  -0.00026000  0.66654253  0.50022952  1
  Mn  Mn123  1  0.00012650  0.16638376  0.50035695  1
  Mn  Mn124  1  0.00040885  0.16594592  0.75045038  1
  Mn  Mn125  1  0.00032348  0.66650123  0.25007999  1
  Mn  Mn126  1  0.74921733  -0.00054601  0.12491870  1
  Mn  Mn127  1  0.49993401  0.33391191  0.00003859  1
  Mn  Mn128  1  0.74974042  0.83274420  0.37430110  1
  Mn  Mn129  1  0.00010460  0.49844401  0.75113077  1
  Mn  Mn130  1  0.74961936  0.16739030  0.12528686  1
  Mn  Mn131  1  0.49960496  0.16732245  0.50010249  1
  Mn  Mn132  1  0.49944336  0.16644543  0.25129350  1
  Mn  Mn133  1  0.50042445  0.00090471  0.00048918  1
  Mn  Mn134  1  0.25059202  0.33367053  0.12488452  1
  Mn  Mn135  1  0.74966506  0.00004618  0.87510508  1
  Mn  Mn136  1  0.24944708  -0.00068794  0.37579439  1
  Mn  Mn137  1  0.49919149  -0.00113464  0.24961459  1
  Mn  Mn138  1  0.75022173  0.00099119  0.62468315  1
  Mn  Mn139  1  0.24978857  -0.00060113  0.12539000  1
  Mn  Mn140  1  0.75019025  0.33340213  0.87539718  1
  Mn  Mn141  1  0.75021923  0.33330800  0.37521535  1
  Mn  Mn142  1  0.50024413  0.00169984  0.75102620  1
  Mn  Mn143  1  0.75081191  0.49926043  0.62544131  1
  Fe  Fe144  1  0.25014802  0.00014205  0.62490246  1
  Fe  Fe145  1  0.00011050  0.33340174  0.24985401  1
  Fe  Fe146  1  0.74996107  0.33301978  0.62559364  1
  Fe  Fe147  1  0.00045225  0.00028816  -0.00090273  1
  Fe  Fe148  1  0.00017986  0.83282046  0.49978920  1
  Fe  Fe149  1  0.49969114  0.50095223  -0.00057393  1
  Fe  Fe150  1  0.24972054  0.50038589  0.62513185  1
  Fe  Fe151  1  0.74980595  0.66608881  0.87547559  1
  Fe  Fe152  1  0.25040839  0.33372475  0.87438643  1
  Fe  Fe153  1  0.25013259  0.83303408  0.12471958  1
  Fe  Fe154  1  0.25036165  0.66748378  0.37481550  1
  Fe  Fe155  1  0.74962649  0.66602064  0.12391629  1
  Fe  Fe156  1  0.25008714  0.50032464  0.12518958  1
  Fe  Fe157  1  0.50003243  0.50011454  0.24984284  1
  Fe  Fe158  1  -0.00010914  -0.00094820  0.74915713  1
  Fe  Fe159  1  0.49983911  0.33429500  0.50084358  1
  Fe  Fe160  1  0.00078626  0.33326586  0.00036724  1
  Fe  Fe161  1  0.25018603  0.33389826  0.62571547  1
  Fe  Fe162  1  0.49918010  0.66634667  -0.00028726  1
  Fe  Fe163  1  0.50043511  0.83281584  0.25004161  1
  Fe  Fe164  1  0.49990140  0.16806930  0.74984762  1
  Fe  Fe165  1  0.75037239  0.49911508  0.37421827  1
  Fe  Fe166  1  0.25028826  0.83288821  0.37509412  1
  Fe  Fe167  1  0.49956702  0.16735762  0.00048863  1
  Fe  Fe168  1  0.74997887  0.16706300  0.62543594  1
  Fe  Fe169  1  0.74978933  0.16733405  0.37515988  1
  Fe  Fe170  1  -0.00003548  0.16766938  0.24900927  1
  Fe  Fe171  1  -0.00021939  0.83301263  0.74950035  1
  Fe  Fe172  1  0.75025153  0.16703321  0.87533105  1
  Fe  Fe173  1  0.49933211  0.50065848  0.74990048  1
  Fe  Fe174  1  0.24994047  0.83328136  0.62475248  1
  Fe  Fe175  1  0.25004314  0.16707276  0.62568185  1
  Fe  Fe176  1  0.74974430  0.49987493  0.12470085  1
  Fe  Fe177  1  0.50035036  0.49983946  0.50039796  1
  Fe  Fe178  1  0.49938392  0.66596102  0.74988357  1
  Fe  Fe179  1  0.25044161  0.49973915  0.87460265  1
  Fe  Fe180  1  0.25020915  0.00000354  0.87437918  1
  Fe  Fe181  1  0.49969336  0.00009984  0.50044541  1
  Fe  Fe182  1  0.75033102  0.33368048  0.12493604  1
  Fe  Fe183  1  0.24956965  0.66686784  0.12502067  1
  Fe  Fe184  1  0.74980913  0.83270673  0.87485876  1
  Fe  Fe185  1  0.25008151  0.66695996  0.62493049  1
  Fe  Fe186  1  0.74952741  0.49976231  0.87565099  1
  Fe  Fe187  1  -0.00001804  0.49951283  0.50020591  1
  Fe  Fe188  1  0.00042209  0.49922942  0.00043750  1
  Fe  Fe189  1  0.25028283  0.16646863  0.12451549  1
  Fe  Fe190  1  0.75040555  0.83237196  0.12392419  1
  Fe  Fe191  1  0.00016630  0.33304850  0.75057516  1
  P  P192  1  0.04257305  0.25138520  0.10268815  1
  P  P193  1  0.04185100  0.25024274  0.35127822  1
  P  P194  1  0.04273403  0.24964286  0.60409585  1
  P  P195  1  0.04270006  0.25132181  0.85280568  1
  P  P196  1  0.04227438  0.58187267  0.10233387  1
  P  P197  1  0.04328066  0.58312504  0.35382368  1
  P  P198  1  0.04216467  0.58148265  0.60265207  1
  P  P199  1  0.04284051  0.58237244  0.85375731  1
  P  P200  1  0.04263908  0.91857557  0.10156075  1
  P  P201  1  0.04330212  0.91644920  0.35304933  1
  P  P202  1  0.04190559  0.91482700  0.60272873  1
  P  P203  1  0.04173684  0.91669621  0.85083377  1
  P  P204  1  0.54229578  0.24954567  0.10273660  1
  P  P205  1  0.54234576  0.25094448  0.35413165  1
  P  P206  1  0.54175089  0.25188981  0.60310365  1
  P  P207  1  0.54205871  0.24948964  0.85304307  1
  P  P208  1  0.54121252  0.58360812  0.10141343  1
  P  P209  1  0.54255058  0.58129335  0.35231861  1
  P  P210  1  0.54199442  0.58210287  0.60314652  1
  P  P211  1  0.54070880  0.58324389  0.85217972  1
  P  P212  1  0.54303639  0.91610721  0.10333265  1
  P  P213  1  0.54218147  0.91531914  0.35282578  1
  P  P214  1  0.54200350  0.91826973  0.60286627  1
  P  P215  1  0.54291852  0.91680545  0.85328984  1
  P  P216  1  0.45677209  0.08377495  0.14686878  1
  P  P217  1  0.45698885  0.08178795  0.39822764  1
  P  P218  1  0.45777241  0.08530899  0.64762309  1
  P  P219  1  0.45784707  0.08570840  0.89759030  1
  P  P220  1  0.45792014  0.41880243  0.14705689  1
  P  P221  1  0.45816187  0.41721256  0.39872557  1
  P  P222  1  0.45791486  0.41830883  0.64733409  1
  P  P223  1  0.45774873  0.41868193  0.89741157  1
  P  P224  1  0.45825273  0.75061799  0.14719774  1
  P  P225  1  0.45717850  0.74982369  0.39652765  1
  P  P226  1  0.45750296  0.74857979  0.64773716  1
  P  P227  1  0.45740978  0.74800112  0.89705946  1
  P  P228  1  0.95802206  0.08506422  0.14670562  1
  P  P229  1  0.95723815  0.08402847  0.39616566  1
  P  P230  1  0.95758003  0.08148202  0.64763126  1
  P  P231  1  0.95811173  0.08172547  0.89659414  1
  P  P232  1  0.95844479  0.41528214  0.14698925  1
  P  P233  1  0.95789501  0.41719212  0.39763379  1
  P  P234  1  0.95744878  0.41492312  0.64796376  1
  P  P235  1  0.95889262  0.41566165  0.89887884  1
  P  P236  1  0.95747991  0.74979647  0.14624072  1
  P  P237  1  0.95759327  0.75100245  0.39735499  1
  P  P238  1  0.95786843  0.75066862  0.64721237  1
  P  P239  1  0.95712271  0.75023229  0.89589103  1
  P  P240  1  0.20753221  0.08461734  0.22736176  1
  P  P241  1  0.20753688  0.08341459  0.47949484  1
  P  P242  1  0.20867288  0.08327030  0.72677179  1
  P  P243  1  0.20787871  0.08183479  0.97716096  1
  P  P244  1  0.20796779  0.41854244  0.22749539  1
  P  P245  1  0.20776004  0.41712606  0.47946253  1
  P  P246  1  0.20902650  0.41724605  0.72734422  1
  P  P247  1  0.20941529  0.41653978  0.97662967  1
  P  P248  1  0.20871579  0.75039126  0.22696963  1
  P  P249  1  0.20882264  0.74991259  0.47727211  1
  P  P250  1  0.20848872  0.74990932  0.72625410  1
  P  P251  1  0.20690975  0.74982677  0.97849415  1
  P  P252  1  0.70675411  0.08367338  0.22852349  1
  P  P253  1  0.70789374  0.08558205  0.47779927  1
  P  P254  1  0.70780509  0.08489096  0.72798610  1
  P  P255  1  0.70762620  0.08491705  0.97751236  1
  P  P256  1  0.70851826  0.41650202  0.22657479  1
  P  P257  1  0.70804203  0.41758513  0.47768438  1
  P  P258  1  0.70796105  0.41517638  0.72824128  1
  P  P259  1  0.70782719  0.41818134  0.97845407  1
  P  P260  1  0.70848558  0.74909537  0.22552897  1
  P  P261  1  0.70654293  0.74934990  0.47761730  1
  P  P262  1  0.70720935  0.74927152  0.72925907  1
  P  P263  1  0.70854021  0.74968578  0.97692996  1
  P  P264  1  0.29227889  0.24894204  0.02187975  1
  P  P265  1  0.29301509  0.25046005  0.27168643  1
  P  P266  1  0.29168040  0.25037540  0.52433273  1
  P  P267  1  0.29192797  0.25164958  0.77170433  1
  P  P268  1  0.29098079  0.58294277  0.02338212  1
  P  P269  1  0.29204356  0.58542563  0.27212384  1
  P  P270  1  0.29141594  0.58404238  0.52358658  1
  P  P271  1  0.29153726  0.58232753  0.77179029  1
  P  P272  1  0.29237190  0.91541768  0.02222222  1
  P  P273  1  0.29199223  0.91507511  0.27256536  1
  P  P274  1  0.29142343  0.91637793  0.52341457  1
  P  P275  1  0.29195242  0.91812380  0.77143056  1
  P  P276  1  0.79241220  0.25157538  0.02243757  1
  P  P277  1  0.79231398  0.24930622  0.27240621  1
  P  P278  1  0.79158440  0.25024873  0.52356686  1
  P  P279  1  0.79228677  0.24858986  0.77231886  1
  P  P280  1  0.79086265  0.58294145  0.02251963  1
  P  P281  1  0.79207812  0.58101112  0.27115599  1
  P  P282  1  0.79317251  0.58266647  0.52155419  1
  P  P283  1  0.79151403  0.58242085  0.77413889  1
  P  P284  1  0.79190513  0.91506055  0.02172200  1
  P  P285  1  0.79258723  0.91591689  0.27067791  1
  P  P286  1  0.79268818  0.91702181  0.52159859  1
  P  P287  1  0.79187551  0.91544092  0.77256459  1
  O  O288  1  0.03716073  0.25101017  0.18255399  1
  O  O289  1  0.03678240  0.25003235  0.43127284  1
  O  O290  1  0.03762618  0.25006813  0.68401045  1
  O  O291  1  0.03736364  0.25141173  0.93272626  1
  O  O292  1  0.03751402  0.58199202  0.18233334  1
  O  O293  1  0.03785154  0.58305318  0.43374479  1
  O  O294  1  0.03709620  0.58159227  0.68261925  1
  O  O295  1  0.03765763  0.58206195  0.93369347  1
  O  O296  1  0.03777303  0.91841547  0.18149830  1
  O  O297  1  0.03783776  0.91551758  0.43296218  1
  O  O298  1  0.03641825  0.91506970  0.68260652  1
  O  O299  1  0.03688521  0.91746049  0.93081028  1
  O  O300  1  0.53702606  0.24992276  0.18267447  1
  O  O301  1  0.53702466  0.25168665  0.43406587  1
  O  O302  1  0.53647574  0.25132867  0.68304994  1
  O  O303  1  0.53681555  0.24933489  0.93296854  1
  O  O304  1  0.53664845  0.58332922  0.18136610  1
  O  O305  1  0.53753214  0.58129491  0.43224600  1
  O  O306  1  0.53634549  0.58267353  0.68299719  1
  O  O307  1  0.53537129  0.58365934  0.93206727  1
  O  O308  1  0.53772644  0.91535330  0.18328500  1
  O  O309  1  0.53694515  0.91608417  0.43277922  1
  O  O310  1  0.53697789  0.91814502  0.68281904  1
  O  O311  1  0.53787836  0.91675298  0.93323105  1
  O  O312  1  0.46213713  0.08449998  0.06693348  1
  O  O313  1  0.46189293  0.08182007  0.31825480  1
  O  O314  1  0.46284704  0.08442313  0.56770926  1
  O  O315  1  0.46334980  0.08611273  0.81765648  1
  O  O316  1  0.46317479  0.41882630  0.06714351  1
  O  O317  1  0.46320090  0.41735180  0.31874481  1
  O  O318  1  0.46322120  0.41784904  0.56748761  1
  O  O319  1  0.46291489  0.41869798  0.81749206  1
  O  O320  1  0.46325219  0.74977398  0.06725008  1
  O  O321  1  0.46263464  0.75037741  0.31660874  1
  O  O322  1  0.46259200  0.74878015  0.56779954  1
  O  O323  1  0.46260812  0.74762023  0.81711686  1
  O  O324  1  0.96318519  0.08454010  0.06675517  1
  O  O325  1  0.96270840  0.08496375  0.31624346  1
  O  O326  1  0.96241576  0.08177944  0.56766363  1
  O  O327  1  0.96346103  0.08137653  0.81668470  1
  O  O328  1  0.96378995  0.41574277  0.06713803  1
  O  O329  1  0.96313306  0.41635078  0.31773863  1
  O  O330  1  0.96254513  0.41590106  0.56807105  1
  O  O331  1  0.96359679  0.41515950  0.81889138  1
  O  O332  1  0.96238206  0.74972433  0.06625227  1
  O  O333  1  0.96283768  0.75053981  0.31739432  1
  O  O334  1  0.96301277  0.75063903  0.56724197  1
  O  O335  1  0.96250127  0.75043295  0.81596525  1
  O  O336  1  0.21308665  0.08230568  0.05705168  1
  O  O337  1  0.21241753  0.08442498  0.30732906  1
  O  O338  1  0.21313577  0.08342919  0.55936048  1
  O  O339  1  0.21381528  0.08264045  0.80672197  1
  O  O340  1  0.21449533  0.41699824  0.05653897  1
  O  O341  1  0.21281679  0.41839232  0.30744292  1
  O  O342  1  0.21303276  0.41695439  0.55934357  1
  O  O343  1  0.21431294  0.41698042  0.80721751  1
  O  O344  1  0.21207145  0.75009584  0.05835674  1
  O  O345  1  0.21384495  0.75021307  0.30683093  1
  O  O346  1  0.21399579  0.74996519  0.55713273  1
  O  O347  1  0.21273777  0.75000998  0.80623147  1
  O  O348  1  0.71263379  0.08436190  0.05743970  1
  O  O349  1  0.71209780  0.08410299  0.30845050  1
  O  O350  1  0.71333791  0.08566142  0.55777052  1
  O  O351  1  0.71288697  0.08482368  0.80792790  1
  O  O352  1  0.71317720  0.41812700  0.05828767  1
  O  O353  1  0.71372850  0.41671340  0.30651341  1
  O  O354  1  0.71317194  0.41688969  0.55756064  1
  O  O355  1  0.71310305  0.41579834  0.80814465  1
  O  O356  1  0.71350634  0.74955289  0.05681678  1
  O  O357  1  0.71297497  0.74859171  0.30550841  1
  O  O358  1  0.71140108  0.74928830  0.55761357  1
  O  O359  1  0.71267058  0.74930601  0.80914857  1
  O  O360  1  0.28804730  0.25004321  0.19172000  1
  O  O361  1  0.28706517  0.25058433  0.44431357  1
  O  O362  1  0.28640675  0.25134278  0.69188393  1
  O  O363  1  0.28684794  0.24944958  0.94198326  1
  O  O364  1  0.28660996  0.58487211  0.19231724  1
  O  O365  1  0.28656627  0.58479339  0.44365760  1
  O  O366  1  0.28615164  0.58257552  0.69198822  1
  O  O367  1  0.28629238  0.58267548  0.94343694  1
  O  O368  1  0.28676889  0.91518072  0.19263864  1
  O  O369  1  0.28652534  0.91582182  0.44346982  1
  O  O370  1  0.28665024  0.91800761  0.69156890  1
  O  O371  1  0.28723996  0.91617031  0.94230771  1
  O  O372  1  0.78715105  0.25014533  0.19256351  1
  O  O373  1  0.78658937  0.25011024  0.44361046  1
  O  O374  1  0.78691067  0.24871327  0.69246724  1
  O  O375  1  0.78734401  0.25104287  0.94252131  1
  O  O376  1  0.78663347  0.58112202  0.19131413  1
  O  O377  1  0.78819587  0.58228805  0.44161138  1
  O  O378  1  0.78704311  0.58256106  0.69415114  1
  O  O379  1  0.78585673  0.58303609  0.94266167  1
  O  O380  1  0.78724339  0.91543814  0.19072725  1
  O  O381  1  0.78771527  0.91718679  0.44163191  1
  O  O382  1  0.78675507  0.91606328  0.69263451  1
  O  O383  1  0.78628388  0.91512583  0.94181105  1
  O  O384  1  0.22816423  0.24901833  0.05809483  1
  O  O385  1  0.22854891  0.25069149  0.30684851  1
  O  O386  1  0.22745170  0.24963149  0.56002137  1
  O  O387  1  0.22789711  0.25180443  0.80812630  1
  O  O388  1  0.22685404  0.58261352  0.05938553  1
  O  O389  1  0.22794144  0.58587077  0.30849362  1
  O  O390  1  0.22722678  0.58366601  0.55960767  1
  O  O391  1  0.22742317  0.58141266  0.80806292  1
  O  O392  1  0.22809768  0.91483995  0.05807325  1
  O  O393  1  0.22776228  0.91486003  0.30848339  1
  O  O394  1  0.22728469  0.91694217  0.55944127  1
  O  O395  1  0.22774986  0.91844022  0.80755689  1
  O  O396  1  0.72807511  0.25207008  0.05805556  1
  O  O397  1  0.72804114  0.24895748  0.30829090  1
  O  O398  1  0.72743618  0.25053398  0.55975929  1
  O  O399  1  0.72811791  0.24859599  0.80851209  1
  O  O400  1  0.72678703  0.58247773  0.05879869  1
  O  O401  1  0.72789192  0.58059450  0.30737392  1
  O  O402  1  0.72872914  0.58239975  0.55678346  1
  O  O403  1  0.72715368  0.58184967  0.80957710  1
  O  O404  1  0.72772644  0.91467610  0.05777014  1
  O  O405  1  0.72829596  0.91650129  0.30621872  1
  O  O406  1  0.72817548  0.91733422  0.55656794  1
  O  O407  1  0.72761264  0.91537249  0.80824216  1
  O  O408  1  0.27190905  0.08440789  0.19184922  1
  O  O409  1  0.27170235  0.08318094  0.44351891  1
  O  O410  1  0.27276584  0.08391329  0.69055208  1
  O  O411  1  0.27209648  0.08194191  0.94117546  1
  O  O412  1  0.27238053  0.41859288  0.19212442  1
  O  O413  1  0.27201332  0.41750404  0.44367393  1
  O  O414  1  0.27296078  0.41811119  0.69079047  1
  O  O415  1  0.27347115  0.41625130  0.94030752  1
  O  O416  1  0.27271438  0.75074780  0.19039792  1
  O  O417  1  0.27284472  0.74974039  0.44064834  1
  O  O418  1  0.27282624  0.74954984  0.69088316  1
  O  O419  1  0.27115313  0.74989961  0.94277351  1
  O  O420  1  0.77108352  0.08345739  0.19309625  1
  O  O421  1  0.77208833  0.08565129  0.44176496  1
  O  O422  1  0.77214903  0.08492441  0.69239229  1
  O  O423  1  0.77200527  0.08471301  0.94206263  1
  O  O424  1  0.77265593  0.41660187  0.19038209  1
  O  O425  1  0.77231814  0.41805794  0.44179045  1
  O  O426  1  0.77226974  0.41458500  0.69253592  1
  O  O427  1  0.77202480  0.41843019  0.94236719  1
  O  O428  1  0.77274143  0.74923866  0.18983471  1
  O  O429  1  0.77106709  0.74908252  0.44271692  1
  O  O430  1  0.77141504  0.74965096  0.69333921  1
  O  O431  1  0.77257150  0.75016648  0.94064638  1
  O  O432  1  0.02230446  0.08589606  0.18241091  1
  O  O433  1  0.02151174  0.08320667  0.43164529  1
  O  O434  1  0.02200374  0.08147065  0.68284705  1
  O  O435  1  0.02237412  0.08201848  0.93231675  1
  O  O436  1  0.02263054  0.41471450  0.18299772  1
  O  O437  1  0.02217429  0.41773892  0.43337538  1
  O  O438  1  0.02189490  0.41436057  0.68335054  1
  O  O439  1  0.02321796  0.41599200  0.93442316  1
  O  O440  1  0.02200622  0.74979928  0.18106221  1
  O  O441  1  0.02195020  0.75110638  0.43287157  1
  O  O442  1  0.02220184  0.75078788  0.68273343  1
  O  O443  1  0.02142416  0.75003959  0.93121924  1
  O  O444  1  0.52106713  0.08325328  0.18224778  1
  O  O445  1  0.52140726  0.08211855  0.43346228  1
  O  O446  1  0.52205845  0.08586603  0.68329729  1
  O  O447  1  0.52205589  0.08590596  0.93349063  1
  O  O448  1  0.52220218  0.41867522  0.18278077  1
  O  O449  1  0.52239012  0.41695902  0.43472498  1
  O  O450  1  0.52200343  0.41873386  0.68347971  1
  O  O451  1  0.52197860  0.41860576  0.93311630  1
  O  O452  1  0.52251494  0.75108067  0.18292710  1
  O  O453  1  0.52146101  0.74970256  0.43189339  1
  O  O454  1  0.52178381  0.74828520  0.68326844  1
  O  O455  1  0.52173913  0.74768383  0.93258938  1
  O  O456  1  0.47797351  0.24942655  0.06712013  1
  O  O457  1  0.47802345  0.25099696  0.31878581  1
  O  O458  1  0.47757001  0.25215642  0.56724659  1
  O  O459  1  0.47781183  0.24971464  0.81731037  1
  O  O460  1  0.47689526  0.58391191  0.06579152  1
  O  O461  1  0.47818129  0.58168038  0.31689429  1
  O  O462  1  0.47786604  0.58133218  0.56692558  1
  O  O463  1  0.47666679  0.58321546  0.81579884  1
  O  O464  1  0.47871721  0.91645593  0.06801450  1
  O  O465  1  0.47787835  0.91420718  0.31710199  1
  O  O466  1  0.47761129  0.91823376  0.56749675  1
  O  O467  1  0.47849212  0.91699170  0.81834702  1
  O  O468  1  0.97842188  0.25160814  0.06659571  1
  O  O469  1  0.97765589  0.25033214  0.31531989  1
  O  O470  1  0.97836998  0.24975483  0.56891143  1
  O  O471  1  0.97841365  0.25099030  0.81713458  1
  O  O472  1  0.97787197  0.58138386  0.06710241  1
  O  O473  1  0.97895522  0.58287286  0.31845574  1
  O  O474  1  0.97788091  0.58152600  0.56714125  1
  O  O475  1  0.97846048  0.58263979  0.81863762  1
  O  O476  1  0.97819995  0.91877641  0.06628747  1
  O  O477  1  0.97902200  0.91713123  0.31762648  1
  O  O478  1  0.97780011  0.91414339  0.56647620  1
  O  O479  1  0.97743142  0.91636584  0.81521791  1
  O  O480  1  0.07377849  0.31477896  0.07414469  1
  O  O481  1  0.07261200  0.31421903  0.32357639  1
  O  O482  1  0.07418256  0.31275090  0.57541996  1
  O  O483  1  0.07345721  0.31473655  0.82399472  1
  O  O484  1  0.07310048  0.64563035  0.07446807  1
  O  O485  1  0.07407480  0.64685032  0.32549005  1
  O  O486  1  0.07333846  0.64522609  0.57514021  1
  O  O487  1  0.07399731  0.64589657  0.82552002  1
  O  O488  1  0.07330977  0.98218860  0.07300597  1
  O  O489  1  0.07460917  0.98018134  0.32561892  1
  O  O490  1  0.07272080  0.97867618  0.57469879  1
  O  O491  1  0.07261508  0.98013181  0.82188482  1
  O  O492  1  0.57325891  0.31331178  0.07486201  1
  O  O493  1  0.57389434  0.31391396  0.32520280  1
  O  O494  1  0.57252130  0.31562990  0.57494954  1
  O  O495  1  0.57318917  0.31344453  0.82569119  1
  O  O496  1  0.57204122  0.64733920  0.07307797  1
  O  O497  1  0.57377124  0.64495617  0.32435445  1
  O  O498  1  0.57289269  0.64574436  0.57466484  1
  O  O499  1  0.57177652  0.64668619  0.82340373  1
  O  O500  1  0.57412612  0.97992551  0.07574208  1
  O  O501  1  0.57290628  0.97906343  0.32457231  1
  O  O502  1  0.57249711  0.98201927  0.57428969  1
  O  O503  1  0.57412817  0.98035029  0.82544296  1
  O  O504  1  0.42554025  0.01998563  0.17439076  1
  O  O505  1  0.42663860  0.01804865  0.42691056  1
  O  O506  1  0.42661012  0.02191053  0.67609908  1
  O  O507  1  0.42712921  0.02148922  0.92487160  1
  O  O508  1  0.42677791  0.35506721  0.17486444  1
  O  O509  1  0.42727187  0.35348945  0.42702986  1
  O  O510  1  0.42683654  0.35475028  0.67573682  1
  O  O511  1  0.42681621  0.35478754  0.92511901  1
  O  O512  1  0.42718123  0.68708995  0.17551192  1
  O  O513  1  0.42627715  0.68589719  0.42414704  1
  O  O514  1  0.42654218  0.68507207  0.67601998  1
  O  O515  1  0.42605862  0.68500610  0.92621119  1
  O  O516  1  0.92712367  0.02142126  0.17491559  1
  O  O517  1  0.92581189  0.02036483  0.42358810  1
  O  O518  1  0.92690856  0.01779038  0.67597260  1
  O  O519  1  0.92722412  0.01845540  0.92565594  1
  O  O520  1  0.92733971  0.35192844  0.17578086  1
  O  O521  1  0.92672737  0.35369546  0.42593651  1
  O  O522  1  0.92675154  0.35125502  0.67636781  1
  O  O523  1  0.92787674  0.35226355  0.92746961  1
  O  O524  1  0.92658377  0.68622820  0.17457640  1
  O  O525  1  0.92645568  0.68735874  0.42528278  1
  O  O526  1  0.92695594  0.68670358  0.67494066  1
  O  O527  1  0.92593923  0.68667252  0.92396951  1
  O  O528  1  0.17625276  0.02096351  0.19980590  1
  O  O529  1  0.17611225  0.02008761  0.45118625  1
  O  O530  1  0.17794099  0.01973681  0.69805455  1
  O  O531  1  0.17747833  0.01805965  0.94862206  1
  O  O532  1  0.17698044  0.35494748  0.19942658  1
  O  O533  1  0.17673928  0.35364153  0.45084107  1
  O  O534  1  0.17880680  0.35314464  0.69880595  1
  O  O535  1  0.17844768  0.35276590  0.94870469  1
  O  O536  1  0.17813549  0.68653675  0.19830418  1
  O  O537  1  0.17768825  0.68641439  0.44888223  1
  O  O538  1  0.17735853  0.68637155  0.69815794  1
  O  O539  1  0.17581975  0.68625275  0.95023186  1
  O  O540  1  0.67568889  0.02002298  0.20055731  1
  O  O541  1  0.67684969  0.02175596  0.45020803  1
  O  O542  1  0.67678985  0.02110479  0.70013586  1
  O  O543  1  0.67624509  0.02144469  0.94966855  1
  O  O544  1  0.67806975  0.35240435  0.19861384  1
  O  O545  1  0.67705228  0.35397899  0.44948716  1
  O  O546  1  0.67715996  0.35157725  0.69982385  1
  O  O547  1  0.67676513  0.35452506  0.95042032  1
  O  O548  1  0.67790343  0.68525576  0.19706167  1
  O  O549  1  0.67540672  0.68595066  0.44927704  1
  O  O550  1  0.67631161  0.68561414  0.70092302  1
  O  O551  1  0.67822555  0.68558515  0.94840841  1
  O  O552  1  0.32395035  0.31227793  0.04966804  1
  O  O553  1  0.32394378  0.31422833  0.29970624  1
  O  O554  1  0.32176715  0.31453810  0.55258995  1
  O  O555  1  0.32302921  0.31509312  0.80020767  1
  O  O556  1  0.32114937  0.64711771  0.05164652  1
  O  O557  1  0.32324442  0.64876818  0.30062602  1
  O  O558  1  0.32226086  0.64757399  0.55227531  1
  O  O559  1  0.32210299  0.64619688  0.80012163  1
  O  O560  1  0.32347474  0.97886241  0.05059215  1
  O  O561  1  0.32279408  0.97899656  0.30040350  1
  O  O562  1  0.32262489  0.97999655  0.55129822  1
  O  O563  1  0.32304013  0.98144125  0.80029599  1
  O  O564  1  0.82305363  0.31527456  0.05086299  1
  O  O565  1  0.82345616  0.31277185  0.30072329  1
  O  O566  1  0.82230662  0.31406977  0.55181859  1
  O  O567  1  0.82355163  0.31215761  0.80034394  1
  O  O568  1  0.82128646  0.64692383  0.05105123  1
  O  O569  1  0.82303066  0.64485897  0.29902436  1
  O  O570  1  0.82377268  0.64650775  0.54976957  1
  O  O571  1  0.82165989  0.64647158  0.80253995  1
  O  O572  1  0.82272209  0.97904885  0.04929930  1
  O  O573  1  0.82393600  0.97947314  0.29842674  1
  O  O574  1  0.82392915  0.98040828  0.54982100  1
  O  O575  1  0.82300774  0.97906337  0.80047287  1
  O  O576  1  0.42574981  0.14693953  0.17577695  1
  O  O577  1  0.42579471  0.14541202  0.42586312  1
  O  O578  1  0.42713119  0.14911574  0.67570928  1
  O  O579  1  0.42658771  0.14877674  0.92636035  1
  O  O580  1  0.42721918  0.48216881  0.17600675  1
  O  O581  1  0.42744515  0.48088148  0.42702503  1
  O  O582  1  0.42677133  0.48162382  0.67589210  1
  O  O583  1  0.42672227  0.48189900  0.92612364  1
  O  O584  1  0.42748547  0.81422997  0.17540635  1
  O  O585  1  0.42573380  0.81272978  0.42544060  1
  O  O586  1  0.42674425  0.81241511  0.67553449  1
  O  O587  1  0.42677211  0.81208122  0.92451224  1
  O  O588  1  0.92707875  0.14860580  0.17500039  1
  O  O589  1  0.92635080  0.14727994  0.42513248  1
  O  O590  1  0.92660478  0.14502402  0.67572900  1
  O  O591  1  0.92710550  0.14560939  0.92397920  1
  O  O592  1  0.92745876  0.47881687  0.17532679  1
  O  O593  1  0.92730776  0.48093315  0.42587384  1
  O  O594  1  0.92646133  0.47832718  0.67662653  1
  O  O595  1  0.92834069  0.47966226  0.92690798  1
  O  O596  1  0.92664901  0.81346251  0.17411548  1
  O  O597  1  0.92689725  0.81460462  0.42554302  1
  O  O598  1  0.92682000  0.81385947  0.67598767  1
  O  O599  1  0.92604307  0.81359631  0.92418516  1
  O  O600  1  0.07360506  0.18793233  0.07414262  1
  O  O601  1  0.07261824  0.18664006  0.32296311  1
  O  O602  1  0.07346670  0.18588421  0.57607086  1
  O  O603  1  0.07382541  0.18752675  0.82532822  1
  O  O604  1  0.07310632  0.51833010  0.07393601  1
  O  O605  1  0.07476140  0.51997139  0.32556494  1
  O  O606  1  0.07265277  0.51783761  0.57424283  1
  O  O607  1  0.07393788  0.51902948  0.82541610  1
  O  O608  1  0.07341345  0.85481816  0.07364787  1
  O  O609  1  0.07431906  0.85326490  0.32412993  1
  O  O610  1  0.07320787  0.85161912  0.57409282  1
  O  O611  1  0.07243680  0.85274149  0.82304362  1
  O  O612  1  0.57303017  0.18601316  0.07446809  1
  O  O613  1  0.57299171  0.18693716  0.32664595  1
  O  O614  1  0.57294440  0.18848579  0.57498046  1
  O  O615  1  0.57288700  0.18634867  0.82385114  1
  O  O616  1  0.57185764  0.52004604  0.07270064  1
  O  O617  1  0.57306497  0.51789443  0.32331285  1
  O  O618  1  0.57334052  0.51881025  0.57482213  1
  O  O619  1  0.57165039  0.51953494  0.82410662  1
  O  O620  1  0.57428482  0.85305294  0.07449861  1
  O  O621  1  0.57331214  0.85185846  0.32455938  1
  O  O622  1  0.57313542  0.85458731  0.57530534  1
  O  O623  1  0.57366808  0.85318342  0.82517064  1
  O  O624  1  0.32251352  0.18502543  0.05022268  1
  O  O625  1  0.32407560  0.18727036  0.30052662  1
  O  O626  1  0.32303863  0.18699806  0.55221039  1
  O  O627  1  0.32306923  0.18811072  0.79975818  1
  O  O628  1  0.32230406  0.51970007  0.05184701  1
  O  O629  1  0.32294624  0.52183620  0.30062586  1
  O  O630  1  0.32223238  0.52023329  0.55137292  1
  O  O631  1  0.32297344  0.51924774  0.80052705  1
  O  O632  1  0.32321324  0.85178547  0.05036985  1
  O  O633  1  0.32303804  0.85184489  0.30122606  1
  O  O634  1  0.32191030  0.85263183  0.55207205  1
  O  O635  1  0.32289324  0.85437657  0.79942754  1
  O  O636  1  0.82351089  0.18806607  0.05043258  1
  O  O637  1  0.82293462  0.18565913  0.30072367  1
  O  O638  1  0.82244820  0.18666239  0.55181131  1
  O  O639  1  0.82312585  0.18520539  0.80121472  1
  O  O640  1  0.82239588  0.51979561  0.05091907  1
  O  O641  1  0.82317781  0.51780143  0.30005266  1
  O  O642  1  0.82458963  0.51970280  0.55042350  1
  O  O643  1  0.82271026  0.51895313  0.80214915  1
  O  O644  1  0.82311948  0.85179499  0.05009930  1
  O  O645  1  0.82352645  0.85247257  0.29911228  1
  O  O646  1  0.82328047  0.85330743  0.54970254  1
  O  O647  1  0.82254034  0.85177925  0.80063425  1
  O  O648  1  0.17736076  0.14831439  0.19849442  1
  O  O649  1  0.17641647  0.14688746  0.45116687  1
  O  O650  1  0.17765143  0.14719868  0.69957872  1
  O  O651  1  0.17643437  0.14519227  0.94916337  1
  O  O652  1  0.17734765  0.48210838  0.19901126  1
  O  O653  1  0.17647634  0.48045919  0.45120985  1
  O  O654  1  0.17719086  0.48031005  0.69911510  1
  O  O655  1  0.17870711  0.48011644  0.94802781  1
  O  O656  1  0.17744670  0.81372696  0.19850297  1
  O  O657  1  0.17818212  0.81364378  0.44874080  1
  O  O658  1  0.17834146  0.81388376  0.69778356  1
  O  O659  1  0.17561312  0.81296777  0.94960336  1
  O  O660  1  0.67545889  0.14691257  0.20018931  1
  O  O661  1  0.67695700  0.14900953  0.44938813  1
  O  O662  1  0.67693715  0.14816015  0.69910088  1
  O  O663  1  0.67735112  0.14879489  0.94937524  1
  O  O664  1  0.67720216  0.47971858  0.19819334  1
  O  O665  1  0.67725592  0.48101930  0.44911541  1
  O  O666  1  0.67699666  0.47871153  0.70012670  1
  O  O667  1  0.67672025  0.48139073  0.94951337  1
  O  O668  1  0.67772731  0.81282585  0.19764155  1
  O  O669  1  0.67583836  0.81300881  0.44947341  1
  O  O670  1  0.67568524  0.81248491  0.70093194  1
  O  O671  1  0.67703655  0.81286308  0.94849722  1
