# generated using pymatgen
data_Na2MnFe(PO4)2
_symmetry_space_group_name_H-M   'P 1'
_cell_length_a   22.34177343
_cell_length_b   20.09450161
_cell_length_c   19.45174443
_cell_angle_alpha   89.99928741
_cell_angle_beta   89.94083524
_cell_angle_gamma   90.03013621
_symmetry_Int_Tables_number   1
_chemical_formula_structural   Na2MnFe(PO4)2
_chemical_formula_sum   'Na96 Mn48 Fe48 P96 O384'
_cell_volume   8732.79259565
_cell_formula_units_Z   48
loop_
 _symmetry_equiv_pos_site_id
 _symmetry_equiv_pos_as_xyz
  1  'x, y, z'
loop_
 _atom_site_type_symbol
 _atom_site_label
 _atom_site_symmetry_multiplicity
 _atom_site_fract_x
 _atom_site_fract_y
 _atom_site_fract_z
 _atom_site_occupancy
  Na  Na0  1  0.14016462  0.25100265  0.24330475  1
  Na  Na1  1  0.14022611  0.25094119  0.49457794  1
  Na  Na2  1  0.14048358  0.24966545  0.74405014  1
  Na  Na3  1  0.14060213  0.25073529  0.99411553  1
  Na  Na4  1  0.14105141  0.58299714  0.24412361  1
  Na  Na5  1  0.14018673  0.58445242  0.49285116  1
  Na  Na6  1  0.14027674  0.58166271  0.74322555  1
  Na  Na7  1  0.14102460  0.58184445  0.99380104  1
  Na  Na8  1  0.14003267  0.91466257  0.24236333  1
  Na  Na9  1  0.14038350  0.91604353  0.49325880  1
  Na  Na10  1  0.14018074  0.91639087  0.74320486  1
  Na  Na11  1  0.14017234  0.91506384  0.99333611  1
  Na  Na12  1  0.64083082  0.24936661  0.24358320  1
  Na  Na13  1  0.64020546  0.25032848  0.49422394  1
  Na  Na14  1  0.64058439  0.25129378  0.74325692  1
  Na  Na15  1  0.64083821  0.25083676  0.99323175  1
  Na  Na16  1  0.64068814  0.58314062  0.24396830  1
  Na  Na17  1  0.64014665  0.58280492  0.49440842  1
  Na  Na18  1  0.64068013  0.58164092  0.74280167  1
  Na  Na19  1  0.64110888  0.58353193  0.99340857  1
  Na  Na20  1  0.64095811  0.91857529  0.24287650  1
  Na  Na21  1  0.64088398  0.91729992  0.49410522  1
  Na  Na22  1  0.64045921  0.91688909  0.74399462  1
  Na  Na23  1  0.64059963  0.91819663  0.99420540  1
  Na  Na24  1  0.35930468  0.08406622  0.00631563  1
  Na  Na25  1  0.35962240  0.08256677  0.25631431  1
  Na  Na26  1  0.35931668  0.08439066  0.50653742  1
  Na  Na27  1  0.35952053  0.08421162  0.75659432  1
  Na  Na28  1  0.35909331  0.41737297  0.00514886  1
  Na  Na29  1  0.35956942  0.41745405  0.25635292  1
  Na  Na30  1  0.35982040  0.41743753  0.50769478  1
  Na  Na31  1  0.35945130  0.41621783  0.75708730  1
  Na  Na32  1  0.35907008  0.74819942  0.00660379  1
  Na  Na33  1  0.35934213  0.74852509  0.25634237  1
  Na  Na34  1  0.35922298  0.74981793  0.50471919  1
  Na  Na35  1  0.35889606  0.74823198  0.75582289  1
  Na  Na36  1  0.85911006  0.08395166  0.00695169  1
  Na  Na37  1  0.85996657  0.08355082  0.25604364  1
  Na  Na38  1  0.85998546  0.08373070  0.50628951  1
  Na  Na39  1  0.85980711  0.08405186  0.75749173  1
  Na  Na40  1  0.85930630  0.41586705  0.00526972  1
  Na  Na41  1  0.85960274  0.41585381  0.25628117  1
  Na  Na42  1  0.85937680  0.41748930  0.50732643  1
  Na  Na43  1  0.85919002  0.41636615  0.75603373  1
  Na  Na44  1  0.85988832  0.75193440  0.00639992  1
  Na  Na45  1  0.85968857  0.75121466  0.25654849  1
  Na  Na46  1  0.85956654  0.74916390  0.50648625  1
  Na  Na47  1  0.85944736  0.74927819  0.75657674  1
  Na  Na48  1  0.10950621  0.08227618  0.11908403  1
  Na  Na49  1  0.10928885  0.08316721  0.36781673  1
  Na  Na50  1  0.10976159  0.08363683  0.62014063  1
  Na  Na51  1  0.10952731  0.08265774  0.86817791  1
  Na  Na52  1  0.11046735  0.41543399  0.11872373  1
  Na  Na53  1  0.10982978  0.41712751  0.36880406  1
  Na  Na54  1  0.10969056  0.41748911  0.61879303  1
  Na  Na55  1  0.11022588  0.41567143  0.86801848  1
  Na  Na56  1  0.11040937  0.74983191  0.11852516  1
  Na  Na57  1  0.10999253  0.74981578  0.36770638  1
  Na  Na58  1  0.10970021  0.74939286  0.61812218  1
  Na  Na59  1  0.10965724  0.74942494  0.86843228  1
  Na  Na60  1  0.61020237  0.08309700  0.11855121  1
  Na  Na61  1  0.61003708  0.08420273  0.36932371  1
  Na  Na62  1  0.60979328  0.08462848  0.61922676  1
  Na  Na63  1  0.60994132  0.08564189  0.86912431  1
  Na  Na64  1  0.61018445  0.41567299  0.11812751  1
  Na  Na65  1  0.60994703  0.41765329  0.36991749  1
  Na  Na66  1  0.60975530  0.41593172  0.61841221  1
  Na  Na67  1  0.61023594  0.41677025  0.86731704  1
  Na  Na68  1  0.61010049  0.75023795  0.11941769  1
  Na  Na69  1  0.60973845  0.75088845  0.36848048  1
  Na  Na70  1  0.60959628  0.74918359  0.61917812  1
  Na  Na71  1  0.60983313  0.75075931  0.86832250  1
  Na  Na72  1  0.39015177  0.24941281  0.13046749  1
  Na  Na73  1  0.39063910  0.25112907  0.38209525  1
  Na  Na74  1  0.38979667  0.25040501  0.63211145  1
  Na  Na75  1  0.38967015  0.25092140  0.88090839  1
  Na  Na76  1  0.38968545  0.58296554  0.13183846  1
  Na  Na77  1  0.38991046  0.58342917  0.38146011  1
  Na  Na78  1  0.38969347  0.58252171  0.63168268  1
  Na  Na79  1  0.38952334  0.58275391  0.88142205  1
  Na  Na80  1  0.39010570  0.91529824  0.13174161  1
  Na  Na81  1  0.39017775  0.91739142  0.38017008  1
  Na  Na82  1  0.39043969  0.91707730  0.63038133  1
  Na  Na83  1  0.39056907  0.91767173  0.88102512  1
  Na  Na84  1  0.88995019  0.24895040  0.13207073  1
  Na  Na85  1  0.89061573  0.25057663  0.38067765  1
  Na  Na86  1  0.88978208  0.24982946  0.63323572  1
  Na  Na87  1  0.88950072  0.24913902  0.88151608  1
  Na  Na88  1  0.89056023  0.58321408  0.13136231  1
  Na  Na89  1  0.89017987  0.58319893  0.38217192  1
  Na  Na90  1  0.88993779  0.58425250  0.63132240  1
  Na  Na91  1  0.89004179  0.58292247  0.88043137  1
  Na  Na92  1  0.89014506  0.91696864  0.13224071  1
  Na  Na93  1  0.89025969  0.91676945  0.38043347  1
  Na  Na94  1  0.89094181  0.91718257  0.63206348  1
  Na  Na95  1  0.89012088  0.91631027  0.88115961  1
  Mn  Mn96  1  0.25010583  0.49989475  0.62547565  1
  Mn  Mn97  1  0.50056793  0.16620475  0.25089335  1
  Mn  Mn98  1  0.00043443  0.49918370  0.25056334  1
  Mn  Mn99  1  0.74970794  0.66615184  0.37521851  1
  Mn  Mn100  1  0.49935082  0.83438525  0.74959122  1
  Mn  Mn101  1  0.24909670  -0.00095233  0.37516315  1
  Mn  Mn102  1  0.75055845  0.49910361  0.12416361  1
  Mn  Mn103  1  0.25016714  0.83200433  0.62424231  1
  Mn  Mn104  1  -0.00062393  -0.00151622  -0.00047348  1
  Mn  Mn105  1  0.75045841  0.33369705  0.37507684  1
  Mn  Mn106  1  0.25018800  0.83161585  0.87423543  1
  Mn  Mn107  1  0.24968248  -0.00108808  0.12492643  1
  Mn  Mn108  1  0.50062559  0.83409999  0.49957107  1
  Mn  Mn109  1  0.74975683  0.83443014  0.37596290  1
  Mn  Mn110  1  0.75095500  0.66768122  0.12442651  1
  Mn  Mn111  1  0.50063414  0.33323639  0.25036062  1
  Mn  Mn112  1  0.75040990  0.83245125  0.62462052  1
  Mn  Mn113  1  0.25045888  0.00058188  0.62439169  1
  Mn  Mn114  1  0.00074275  0.83285270  0.50024717  1
  Mn  Mn115  1  -0.00022398  0.33343193  0.74968642  1
  Mn  Mn116  1  0.49979183  0.83336429  0.00020522  1
  Mn  Mn117  1  0.50003373  0.00099325  0.00028453  1
  Mn  Mn118  1  0.50068386  0.49970641  -0.00003664  1
  Mn  Mn119  1  0.25024650  0.16729561  0.37513443  1
  Mn  Mn120  1  0.00012263  0.33403322  0.50083182  1
  Mn  Mn121  1  0.50086093  0.00135606  0.50041676  1
  Mn  Mn122  1  0.25033987  0.00015561  0.87455247  1
  Mn  Mn123  1  0.75083534  0.00059728  0.62578256  1
  Mn  Mn124  1  0.49966451  0.16763724  0.74962750  1
  Mn  Mn125  1  0.74980845  0.66677795  0.87516295  1
  Mn  Mn126  1  0.75090348  0.16626545  0.37462988  1
  Mn  Mn127  1  0.49946120  0.66595952  0.74939963  1
  Mn  Mn128  1  -0.00008658  0.49930249  0.00025926  1
  Mn  Mn129  1  0.00037698  0.66695569  0.25000311  1
  Mn  Mn130  1  -0.00039691  0.16679882  0.49971194  1
  Mn  Mn131  1  0.25066279  0.33463551  0.37485723  1
  Mn  Mn132  1  0.24968109  0.16742745  0.12527129  1
  Mn  Mn133  1  0.00021311  0.16547805  0.00067963  1
  Mn  Mn134  1  -0.00024702  0.33220545  -0.00040803  1
  Mn  Mn135  1  0.74986430  0.00063730  0.87537732  1
  Mn  Mn136  1  0.50050205  0.66614162  -0.00069196  1
  Mn  Mn137  1  0.49933700  0.66608116  0.50005690  1
  Mn  Mn138  1  0.49965688  0.50053330  0.25001034  1
  Mn  Mn139  1  0.00041453  0.66727277  0.00010601  1
  Mn  Mn140  1  0.49937178  0.33270691  -0.00062449  1
  Mn  Mn141  1  0.00021577  0.66674055  0.74979219  1
  Mn  Mn142  1  0.50035703  0.83357473  0.24996391  1
  Mn  Mn143  1  0.00027808  -0.00007976  0.49983675  1
  Fe  Fe144  1  0.24999392  0.49982084  0.12475656  1
  Fe  Fe145  1  0.24962664  0.49960486  0.87545088  1
  Fe  Fe146  1  -0.00014574  0.83325555  0.74951215  1
  Fe  Fe147  1  -0.00054017  0.66677974  0.49994868  1
  Fe  Fe148  1  0.24972079  0.16745084  0.87549046  1
  Fe  Fe149  1  0.75021970  0.49950194  0.87408717  1
  Fe  Fe150  1  0.24980762  0.66657294  0.37426942  1
  Fe  Fe151  1  0.75019123  0.16725704  0.12462669  1
  Fe  Fe152  1  0.74989876  0.33326617  0.87431013  1
  Fe  Fe153  1  -0.00020273  0.16611736  0.75034748  1
  Fe  Fe154  1  0.25010680  0.66549998  0.12546663  1
  Fe  Fe155  1  0.50064572  0.66662896  0.25033133  1
  Fe  Fe156  1  0.24957192  0.33329424  0.87492305  1
  Fe  Fe157  1  0.74998309  0.49979811  0.62510844  1
  Fe  Fe158  1  0.50008989  0.49936400  0.74980988  1
  Fe  Fe159  1  0.25018067  0.83186082  0.12440780  1
  Fe  Fe160  1  0.24985545  0.33322502  0.62628989  1
  Fe  Fe161  1  0.50017757  0.00130681  0.75019464  1
  Fe  Fe162  1  0.00008887  0.83341815  -0.00032747  1
  Fe  Fe163  1  0.74987591  0.16778265  0.87570341  1
  Fe  Fe164  1  0.75042924  0.00091874  0.12474272  1
  Fe  Fe165  1  -0.00028902  0.50045989  0.74954467  1
  Fe  Fe166  1  0.74926282  0.66593386  0.62561497  1
  Fe  Fe167  1  0.74981265  0.83462514  0.12562185  1
  Fe  Fe168  1  0.00050463  0.16648410  0.25007826  1
  Fe  Fe169  1  0.75012160  0.00082373  0.37456706  1
  Fe  Fe170  1  0.24951216  0.16747356  0.62563407  1
  Fe  Fe171  1  0.49990830  0.00053272  0.25002203  1
  Fe  Fe172  1  0.00026223  -0.00078627  0.24974433  1
  Fe  Fe173  1  0.50022411  0.49976139  0.50041040  1
  Fe  Fe174  1  0.24940758  0.66529521  0.87567821  1
  Fe  Fe175  1  0.50000561  0.33350009  0.74946550  1
  Fe  Fe176  1  0.24933606  0.66604656  0.62425082  1
  Fe  Fe177  1  0.75021167  0.49997631  0.37536001  1
  Fe  Fe178  1  0.24995825  0.50035184  0.37532293  1
  Fe  Fe179  1  -0.00037212  0.50053757  0.49967067  1
  Fe  Fe180  1  0.49950163  0.33387577  0.50063762  1
  Fe  Fe181  1  0.24997428  0.83247572  0.37409786  1
  Fe  Fe182  1  0.74988087  0.33328537  0.12445923  1
  Fe  Fe183  1  -0.00010682  -0.00048313  0.75035159  1
  Fe  Fe184  1  0.74985193  0.83366069  0.87544573  1
  Fe  Fe185  1  0.75044879  0.33338247  0.62546159  1
  Fe  Fe186  1  0.49979456  0.16662904  -0.00006659  1
  Fe  Fe187  1  0.25064732  0.33421093  0.12437125  1
  Fe  Fe188  1  0.49911252  0.16731276  0.50014675  1
  Fe  Fe189  1  -0.00015035  0.33319771  0.25031058  1
  Fe  Fe190  1  -0.00035721  0.83286225  0.25007895  1
  Fe  Fe191  1  0.74979608  0.16710954  0.62543087  1
  P  P192  1  0.04246655  0.24940620  0.10430266  1
  P  P193  1  0.04180327  0.25036398  0.35166817  1
  P  P194  1  0.04201007  0.24953583  0.60390477  1
  P  P195  1  0.04189644  0.24845930  0.85218106  1
  P  P196  1  0.04309347  0.58316623  0.10314802  1
  P  P197  1  0.04251019  0.58336862  0.35398557  1
  P  P198  1  0.04129227  0.58353645  0.60149137  1
  P  P199  1  0.04228858  0.58209482  0.85217347  1
  P  P200  1  0.04194331  0.91502212  0.10302203  1
  P  P201  1  0.04164910  0.91595484  0.35126003  1
  P  P202  1  0.04298572  0.91681298  0.60393242  1
  P  P203  1  0.04156544  0.91576882  0.85151829  1
  P  P204  1  0.54251630  0.24847380  0.10217190  1
  P  P205  1  0.54308258  0.25042200  0.35453774  1
  P  P206  1  0.54074686  0.25044692  0.60178466  1
  P  P207  1  0.54222819  0.25144420  0.85215976  1
  P  P208  1  0.54330668  0.58356754  0.10354667  1
  P  P209  1  0.54230889  0.58423684  0.35300114  1
  P  P210  1  0.54167904  0.58119588  0.60308753  1
  P  P211  1  0.54247153  0.58208581  0.85175371  1
  P  P212  1  0.54261831  0.91708606  0.10360980  1
  P  P213  1  0.54282178  0.91890789  0.35222965  1
  P  P214  1  0.54329575  0.91759264  0.60371633  1
  P  P215  1  0.54231540  0.91897639  0.85240516  1
  P  P216  1  0.45760989  0.08265994  0.14748516  1
  P  P217  1  0.45737241  0.08474374  0.39753871  1
  P  P218  1  0.45749147  0.08316285  0.64740433  1
  P  P219  1  0.45756729  0.08504738  0.89713875  1
  P  P220  1  0.45718967  0.41619113  0.14694146  1
  P  P221  1  0.45836864  0.41719555  0.39897460  1
  P  P222  1  0.45830629  0.41641733  0.64784080  1
  P  P223  1  0.45750071  0.41684224  0.89566289  1
  P  P224  1  0.45788837  0.74831629  0.14780769  1
  P  P225  1  0.45760763  0.75014948  0.39626422  1
  P  P226  1  0.45672293  0.74994586  0.64652182  1
  P  P227  1  0.45689597  0.75016824  0.89663143  1
  P  P228  1  0.95888161  0.08276249  0.14876137  1
  P  P229  1  0.95761877  0.08320578  0.39565021  1
  P  P230  1  0.95827964  0.08294332  0.64890879  1
  P  P231  1  0.95719196  0.08260209  0.89633142  1
  P  P232  1  0.95773789  0.41502514  0.14779223  1
  P  P233  1  0.95777397  0.41735310  0.39765327  1
  P  P234  1  0.95775800  0.41884480  0.64701011  1
  P  P235  1  0.95728149  0.41638915  0.89611947  1
  P  P236  1  0.95791778  0.75143457  0.14720495  1
  P  P237  1  0.95770222  0.74925797  0.39732988  1
  P  P238  1  0.95766180  0.75070831  0.64723847  1
  P  P239  1  0.95789515  0.75146358  0.89696893  1
  P  P240  1  0.20704612  0.08283273  0.22812323  1
  P  P241  1  0.20695695  0.08403448  0.47847151  1
  P  P242  1  0.20838512  0.08496113  0.72803403  1
  P  P243  1  0.20766006  0.08442649  0.97731476  1
  P  P244  1  0.20894219  0.41718340  0.22662786  1
  P  P245  1  0.20788404  0.41825077  0.47797106  1
  P  P246  1  0.20767061  0.41525865  0.72845918  1
  P  P247  1  0.20849799  0.41617034  0.97708402  1
  P  P248  1  0.20883604  0.74891463  0.22683640  1
  P  P249  1  0.20828701  0.74969164  0.47598928  1
  P  P250  1  0.20757714  0.74735416  0.72729459  1
  P  P251  1  0.20783035  0.74773543  0.97811860  1
  P  P252  1  0.70901255  0.08391585  0.22634521  1
  P  P253  1  0.70826459  0.08281026  0.47777550  1
  P  P254  1  0.70818486  0.08542966  0.72828220  1
  P  P255  1  0.70821342  0.08548241  0.97828500  1
  P  P256  1  0.70777983  0.41544926  0.22729499  1
  P  P257  1  0.70844352  0.41792151  0.47839827  1
  P  P258  1  0.70884284  0.41659746  0.72688982  1
  P  P259  1  0.70863468  0.41633733  0.97597747  1
  P  P260  1  0.70819145  0.75148033  0.22761190  1
  P  P261  1  0.70692936  0.74928789  0.47875153  1
  P  P262  1  0.70769026  0.74867931  0.72795498  1
  P  P263  1  0.70788648  0.75214413  0.97805676  1
  P  P264  1  0.29181250  0.25167439  0.02172862  1
  P  P265  1  0.29318414  0.25095925  0.27153721  1
  P  P266  1  0.29120311  0.25093605  0.52407014  1
  P  P267  1  0.29109520  0.25022264  0.77311270  1
  P  P268  1  0.29133127  0.58287553  0.02307927  1
  P  P269  1  0.29132392  0.58287887  0.27303697  1
  P  P270  1  0.29181142  0.58434899  0.52194781  1
  P  P271  1  0.29079684  0.58276452  0.77348259  1
  P  P272  1  0.29212632  0.91469301  0.02233109  1
  P  P273  1  0.29164892  0.91436311  0.27164163  1
  P  P274  1  0.29267251  0.91599902  0.52095856  1
  P  P275  1  0.29286203  0.91605072  0.77139706  1
  P  P276  1  0.79161370  0.25035755  0.02262697  1
  P  P277  1  0.79271440  0.25002163  0.27098885  1
  P  P278  1  0.79173492  0.24996393  0.52389881  1
  P  P279  1  0.79119933  0.25000603  0.77285276  1
  P  P280  1  0.79325880  0.58324410  0.02108102  1
  P  P281  1  0.79255056  0.58190704  0.27267940  1
  P  P282  1  0.79123816  0.58304058  0.52357132  1
  P  P283  1  0.79174837  0.58196873  0.77169458  1
  P  P284  1  0.79141756  0.91716277  0.02342871  1
  P  P285  1  0.79180768  0.91849100  0.27194720  1
  P  P286  1  0.79337300  0.91724870  0.52196048  1
  P  P287  1  0.79202028  0.91566690  0.77305556  1
  O  O288  1  0.03717412  0.24976655  0.18423800  1
  O  O289  1  0.03674984  0.25053818  0.43171037  1
  O  O290  1  0.03660653  0.24901406  0.68380698  1
  O  O291  1  0.03718616  0.24842453  0.93218991  1
  O  O292  1  0.03812597  0.58317885  0.18310667  1
  O  O293  1  0.03695445  0.58356000  0.43388785  1
  O  O294  1  0.03638240  0.58316404  0.68151752  1
  O  O295  1  0.03726252  0.58242167  0.93209394  1
  O  O296  1  0.03659662  0.91526170  0.18289173  1
  O  O297  1  0.03723411  0.91636253  0.43128110  1
  O  O298  1  0.03760526  0.91672630  0.68382836  1
  O  O299  1  0.03637459  0.91533398  0.93152356  1
  O  O300  1  0.53793762  0.24869888  0.18218179  1
  O  O301  1  0.53750124  0.25041067  0.43440920  1
  O  O302  1  0.53591521  0.25108946  0.68173776  1
  O  O303  1  0.53720248  0.25059854  0.93202807  1
  O  O304  1  0.53816256  0.58410245  0.18353622  1
  O  O305  1  0.53692302  0.58351305  0.43293673  1
  O  O306  1  0.53619118  0.58071308  0.68299309  1
  O  O307  1  0.53811309  0.58232914  0.93182210  1
  O  O308  1  0.53746679  0.91762297  0.18354803  1
  O  O309  1  0.53791269  0.91868055  0.43223534  1
  O  O310  1  0.53789213  0.91818393  0.68364711  1
  O  O311  1  0.53693069  0.91847279  0.93237799  1
  O  O312  1  0.46275573  0.08365890  0.06752276  1
  O  O313  1  0.46253712  0.08384459  0.31758253  1
  O  O314  1  0.46266954  0.08414930  0.56747918  1
  O  O315  1  0.46266713  0.08439317  0.81718195  1
  O  O316  1  0.46213984  0.41623933  0.06697553  1
  O  O317  1  0.46297943  0.41682343  0.31900384  1
  O  O318  1  0.46334507  0.41661134  0.56791298  1
  O  O319  1  0.46276255  0.41692339  0.81571613  1
  O  O320  1  0.46288336  0.74862875  0.06780751  1
  O  O321  1  0.46318542  0.74956996  0.31633987  1
  O  O322  1  0.46197920  0.74982918  0.56656350  1
  O  O323  1  0.46173946  0.75032647  0.81664727  1
  O  O324  1  0.96336207  0.08223615  0.06873315  1
  O  O325  1  0.96329775  0.08339164  0.31579689  1
  O  O326  1  0.96306780  0.08301424  0.56887259  1
  O  O327  1  0.96235904  0.08275451  0.81641834  1
  O  O328  1  0.96280156  0.41515603  0.06782015  1
  O  O329  1  0.96292497  0.41624918  0.31769394  1
  O  O330  1  0.96322408  0.41906208  0.56707246  1
  O  O331  1  0.96243549  0.41699380  0.81615560  1
  O  O332  1  0.96323005  0.75163426  0.06726107  1
  O  O333  1  0.96282506  0.74975679  0.31736868  1
  O  O334  1  0.96287335  0.74985625  0.56729836  1
  O  O335  1  0.96312919  0.75144285  0.81699785  1
  O  O336  1  0.21279671  0.08387889  0.05727109  1
  O  O337  1  0.21209472  0.08270873  0.30807462  1
  O  O338  1  0.21233411  0.08442100  0.55843639  1
  O  O339  1  0.21381463  0.08517675  0.80795000  1
  O  O340  1  0.21355921  0.41631009  0.05694058  1
  O  O341  1  0.21387947  0.41777039  0.30657337  1
  O  O342  1  0.21288352  0.41763771  0.55784339  1
  O  O343  1  0.21273806  0.41542814  0.80829805  1
  O  O344  1  0.21349469  0.74829983  0.05795915  1
  O  O345  1  0.21391077  0.74965167  0.30670832  1
  O  O346  1  0.21288110  0.74901288  0.55593407  1
  O  O347  1  0.21281688  0.74703681  0.80720620  1
  O  O348  1  0.71376897  0.08536490  0.05810810  1
  O  O349  1  0.71367358  0.08302396  0.30629262  1
  O  O350  1  0.71335909  0.08349989  0.55768110  1
  O  O351  1  0.71339991  0.08575425  0.80819165  1
  O  O352  1  0.71363714  0.41549900  0.05590442  1
  O  O353  1  0.71302832  0.41619536  0.30719131  1
  O  O354  1  0.71391665  0.41782576  0.55821585  1
  O  O355  1  0.71368820  0.41642617  0.80674219  1
  O  O356  1  0.71342479  0.75240528  0.05796513  1
  O  O357  1  0.71301884  0.75104058  0.30759803  1
  O  O358  1  0.71216263  0.74857334  0.55867455  1
  O  O359  1  0.71284875  0.74933023  0.80789632  1
  O  O360  1  0.28814416  0.25151132  0.19161209  1
  O  O361  1  0.28674091  0.25118517  0.44407033  1
  O  O362  1  0.28570795  0.25007194  0.69323606  1
  O  O363  1  0.28591158  0.25122412  0.94189766  1
  O  O364  1  0.28646371  0.58304850  0.19320142  1
  O  O365  1  0.28666890  0.58387977  0.44213877  1
  O  O366  1  0.28609728  0.58271776  0.69355307  1
  O  O367  1  0.28614054  0.58274497  0.94323446  1
  O  O368  1  0.28637166  0.91413691  0.19167310  1
  O  O369  1  0.28714602  0.91562479  0.44101756  1
  O  O370  1  0.28774464  0.91627772  0.69144665  1
  O  O371  1  0.28717101  0.91498660  0.94234761  1
  O  O372  1  0.78743620  0.25009773  0.19113571  1
  O  O373  1  0.78718817  0.25018145  0.44393353  1
  O  O374  1  0.78645691  0.24997210  0.69295510  1
  O  O375  1  0.78628524  0.25021893  0.94273322  1
  O  O376  1  0.78786269  0.58220770  0.19270160  1
  O  O377  1  0.78634814  0.58276841  0.44360428  1
  O  O378  1  0.78587461  0.58227812  0.69186504  1
  O  O379  1  0.78772058  0.58296093  0.94118515  1
  O  O380  1  0.78630251  0.91806283  0.19209021  1
  O  O381  1  0.78811465  0.91788964  0.44202361  1
  O  O382  1  0.78718771  0.91581324  0.69315243  1
  O  O383  1  0.78662728  0.91705997  0.94347099  1
  O  O384  1  0.22786299  0.25221275  0.05844429  1
  O  O385  1  0.22875997  0.25108200  0.30675326  1
  O  O386  1  0.22692848  0.25118372  0.55973470  1
  O  O387  1  0.22709019  0.25011342  0.80970720  1
  O  O388  1  0.22733588  0.58331079  0.05965657  1
  O  O389  1  0.22727621  0.58226012  0.30942553  1
  O  O390  1  0.22757030  0.58410396  0.55801261  1
  O  O391  1  0.22664418  0.58316800  0.80948988  1
  O  O392  1  0.22774388  0.91466720  0.05764911  1
  O  O393  1  0.22740096  0.91405642  0.30750869  1
  O  O394  1  0.22844542  0.91625623  0.55662126  1
  O  O395  1  0.22847609  0.91596697  0.80662140  1
  O  O396  1  0.72756118  0.25031338  0.05918198  1
  O  O397  1  0.72858751  0.24996123  0.30698515  1
  O  O398  1  0.72743653  0.24951239  0.55959896  1
  O  O399  1  0.72707769  0.24972289  0.80900254  1
  O  O400  1  0.72903005  0.58344821  0.05674934  1
  O  O401  1  0.72811163  0.58155329  0.30804225  1
  O  O402  1  0.72706277  0.58299253  0.55963475  1
  O  O403  1  0.72777537  0.58168509  0.80833299  1
  O  O404  1  0.72726007  0.91711695  0.05933440  1
  O  O405  1  0.72774164  0.91887132  0.30843586  1
  O  O406  1  0.72901829  0.91707105  0.55729575  1
  O  O407  1  0.72771837  0.91570958  0.80867085  1
  O  O408  1  0.27141752  0.08289796  0.19290058  1
  O  O409  1  0.27132307  0.08325025  0.44309777  1
  O  O410  1  0.27245216  0.08521038  0.69180936  1
  O  O411  1  0.27199715  0.08493188  0.94181096  1
  O  O412  1  0.27307892  0.41682286  0.19051566  1
  O  O413  1  0.27226111  0.41888332  0.44229633  1
  O  O414  1  0.27191107  0.41517323  0.69248010  1
  O  O415  1  0.27246099  0.41587390  0.94055737  1
  O  O416  1  0.27283371  0.74827554  0.19031649  1
  O  O417  1  0.27248814  0.75049516  0.44014819  1
  O  O418  1  0.27184163  0.74724882  0.69141861  1
  O  O419  1  0.27190946  0.74719973  0.94169393  1
  O  O420  1  0.77320427  0.08473772  0.19045179  1
  O  O421  1  0.77257209  0.08183443  0.44196309  1
  O  O422  1  0.77246198  0.08585675  0.69243342  1
  O  O423  1  0.77224774  0.08542926  0.94189275  1
  O  O424  1  0.77207625  0.41459091  0.19141090  1
  O  O425  1  0.77251949  0.41834072  0.44194109  1
  O  O426  1  0.77290474  0.41708087  0.69064842  1
  O  O427  1  0.77273227  0.41701755  0.93979923  1
  O  O428  1  0.77252597  0.75208536  0.19209616  1
  O  O429  1  0.77127911  0.74983337  0.44339130  1
  O  O430  1  0.77193819  0.74792852  0.69210254  1
  O  O431  1  0.77210157  0.75173971  0.94207135  1
  O  O432  1  0.02305863  0.08327716  0.18432054  1
  O  O433  1  0.02178807  0.08353675  0.43154296  1
  O  O434  1  0.02247113  0.08256106  0.68461677  1
  O  O435  1  0.02149248  0.08208409  0.93175761  1
  O  O436  1  0.02213503  0.41467703  0.18309448  1
  O  O437  1  0.02205869  0.41791799  0.43316221  1
  O  O438  1  0.02191945  0.41851355  0.68289917  1
  O  O439  1  0.02165002  0.41598662  0.93131005  1
  O  O440  1  0.02220108  0.75167847  0.18285033  1
  O  O441  1  0.02201379  0.74815951  0.43287844  1
  O  O442  1  0.02197605  0.75109681  0.68275330  1
  O  O443  1  0.02216308  0.75173853  0.93271372  1
  O  O444  1  0.52200175  0.08182206  0.18295687  1
  O  O445  1  0.52170794  0.08620364  0.43305385  1
  O  O446  1  0.52181980  0.08282891  0.68298443  1
  O  O447  1  0.52191330  0.08539200  0.93261352  1
  O  O448  1  0.52167676  0.41688472  0.18177919  1
  O  O449  1  0.52263396  0.41737191  0.43450130  1
  O  O450  1  0.52249386  0.41615126  0.68389865  1
  O  O451  1  0.52178085  0.41630004  0.93119427  1
  O  O452  1  0.52225530  0.74836099  0.18316799  1
  O  O453  1  0.52183001  0.74982607  0.43184931  1
  O  O454  1  0.52110412  0.75000899  0.68157009  1
  O  O455  1  0.52150915  0.75029073  0.93122413  1
  O  O456  1  0.47800979  0.24820744  0.06710165  1
  O  O457  1  0.47884250  0.25012682  0.31885977  1
  O  O458  1  0.47658231  0.24971238  0.56595787  1
  O  O459  1  0.47789903  0.25217503  0.81661661  1
  O  O460  1  0.47885450  0.58318544  0.06851711  1
  O  O461  1  0.47803955  0.58504506  0.31723319  1
  O  O462  1  0.47750488  0.58103137  0.56722334  1
  O  O463  1  0.47787685  0.58193668  0.81714184  1
  O  O464  1  0.47824978  0.91706302  0.06842608  1
  O  O465  1  0.47843222  0.91859412  0.31693249  1
  O  O466  1  0.47902759  0.91745809  0.56827955  1
  O  O467  1  0.47801398  0.91949340  0.81680156  1
  O  O468  1  0.97817674  0.24918031  0.06873787  1
  O  O469  1  0.97761977  0.25018894  0.31586619  1
  O  O470  1  0.97774426  0.25010746  0.56847709  1
  O  O471  1  0.97751935  0.24878076  0.81706183  1
  O  O472  1  0.97864219  0.58337703  0.06824666  1
  O  O473  1  0.97835874  0.58321552  0.31821153  1
  O  O474  1  0.97708336  0.58400338  0.56562327  1
  O  O475  1  0.97794491  0.58209288  0.81672900  1
  O  O476  1  0.97770596  0.91435138  0.06704937  1
  O  O477  1  0.97733837  0.91552752  0.31590543  1
  O  O478  1  0.97875336  0.91646848  0.56830380  1
  O  O479  1  0.97741629  0.91604260  0.81549336  1
  O  O480  1  0.07355205  0.31264909  0.07528916  1
  O  O481  1  0.07252496  0.31422921  0.32370041  1
  O  O482  1  0.07326056  0.31323760  0.57629290  1
  O  O483  1  0.07318204  0.31201240  0.82449048  1
  O  O484  1  0.07406232  0.64667266  0.07496610  1
  O  O485  1  0.07377271  0.64664796  0.32539193  1
  O  O486  1  0.07210436  0.64737381  0.57351249  1
  O  O487  1  0.07331090  0.64576393  0.82429222  1
  O  O488  1  0.07264824  0.97885565  0.07470169  1
  O  O489  1  0.07199182  0.97981087  0.32264144  1
  O  O490  1  0.07396013  0.98028067  0.57532184  1
  O  O491  1  0.07237157  0.97975340  0.82384924  1
  O  O492  1  0.57327691  0.31222554  0.07412322  1
  O  O493  1  0.57405530  0.31397162  0.32602145  1
  O  O494  1  0.57110049  0.31431202  0.57313010  1
  O  O495  1  0.57317298  0.31489063  0.82359723  1
  O  O496  1  0.57449748  0.64673185  0.07473382  1
  O  O497  1  0.57345135  0.64768361  0.32470554  1
  O  O498  1  0.57256719  0.64518431  0.57577118  1
  O  O499  1  0.57341907  0.64576957  0.82379709  1
  O  O500  1  0.57402712  0.98016900  0.07493873  1
  O  O501  1  0.57308893  0.98273279  0.32376791  1
  O  O502  1  0.57473574  0.98078497  0.57527179  1
  O  O503  1  0.57326483  0.98263954  0.82449492  1
  O  O504  1  0.42675568  0.01892454  0.17556251  1
  O  O505  1  0.42681929  0.02099319  0.42584186  1
  O  O506  1  0.42686652  0.01943865  0.67562875  1
  O  O507  1  0.42623400  0.02176227  0.92552979  1
  O  O508  1  0.42677261  0.35241921  0.17521281  1
  O  O509  1  0.42781746  0.35348004  0.42774497  1
  O  O510  1  0.42732595  0.35280710  0.67626114  1
  O  O511  1  0.42596680  0.35361490  0.92397911  1
  O  O512  1  0.42723635  0.68476409  0.17637192  1
  O  O513  1  0.42583005  0.68717726  0.42468331  1
  O  O514  1  0.42574938  0.68632098  0.67455906  1
  O  O515  1  0.42617095  0.68644987  0.92471770  1
  O  O516  1  0.92863896  0.01871855  0.17712210  1
  O  O517  1  0.92673161  0.01966283  0.42414643  1
  O  O518  1  0.92717529  0.01943232  0.67705536  1
  O  O519  1  0.92576525  0.01927507  0.92475178  1
  O  O520  1  0.92677516  0.35166573  0.17634223  1
  O  O521  1  0.92649677  0.35402454  0.42616530  1
  O  O522  1  0.92654717  0.35500192  0.67433584  1
  O  O523  1  0.92625079  0.35265047  0.92392905  1
  O  O524  1  0.92712248  0.68742027  0.17475804  1
  O  O525  1  0.92639991  0.68594550  0.42578631  1
  O  O526  1  0.92652199  0.68731087  0.67567910  1
  O  O527  1  0.92718807  0.68741818  0.92458668  1
  O  O528  1  0.17597997  0.01936397  0.19999878  1
  O  O529  1  0.17541505  0.02064764  0.45055790  1
  O  O530  1  0.17743897  0.02104620  0.70060381  1
  O  O531  1  0.17685828  0.02059832  0.94940440  1
  O  O532  1  0.17810101  0.35341729  0.19865109  1
  O  O533  1  0.17697211  0.35465214  0.44966361  1
  O  O534  1  0.17677075  0.35188080  0.69964985  1
  O  O535  1  0.17695975  0.35297600  0.94869036  1
  O  O536  1  0.17742346  0.68533464  0.19915009  1
  O  O537  1  0.17813675  0.68587143  0.44696571  1
  O  O538  1  0.17655252  0.68420259  0.69820892  1
  O  O539  1  0.17658016  0.68434971  0.94983519  1
  O  O540  1  0.67870485  0.02023621  0.19719344  1
  O  O541  1  0.67714507  0.01946257  0.44931129  1
  O  O542  1  0.67764280  0.02128004  0.70090253  1
  O  O543  1  0.67695877  0.02185713  0.95036914  1
  O  O544  1  0.67674817  0.35194577  0.19901850  1
  O  O545  1  0.67744673  0.35413726  0.45061232  1
  O  O546  1  0.67861713  0.35259315  0.69807566  1
  O  O547  1  0.67804991  0.35269901  0.94716452  1
  O  O548  1  0.67761147  0.68762039  0.19957581  1
  O  O549  1  0.67578637  0.68612351  0.44996899  1
  O  O550  1  0.67668809  0.68503707  0.69991934  1
  O  O551  1  0.67653326  0.68847346  0.95054605  1
  O  O552  1  0.32314771  0.31502853  0.04994989  1
  O  O553  1  0.32460907  0.31398755  0.30039435  1
  O  O554  1  0.32216329  0.31445665  0.55242029  1
  O  O555  1  0.32199773  0.31395339  0.80120338  1
  O  O556  1  0.32279347  0.64606771  0.05157962  1
  O  O557  1  0.32154890  0.64686336  0.30175331  1
  O  O558  1  0.32229993  0.64805304  0.55061318  1
  O  O559  1  0.32224853  0.64593051  0.80183376  1
  O  O560  1  0.32331959  0.97832816  0.05005128  1
  O  O561  1  0.32237538  0.97836103  0.29925994  1
  O  O562  1  0.32390610  0.97960093  0.54875237  1
  O  O563  1  0.32384604  0.97956025  0.79960078  1
  O  O564  1  0.82243611  0.31409711  0.05079840  1
  O  O565  1  0.82394001  0.31323156  0.29977494  1
  O  O566  1  0.82193810  0.31400379  0.55226481  1
  O  O567  1  0.82162382  0.31399706  0.80130975  1
  O  O568  1  0.82435345  0.64688903  0.04902659  1
  O  O569  1  0.82336483  0.64571805  0.30052155  1
  O  O570  1  0.82172025  0.64701575  0.55168677  1
  O  O571  1  0.82307882  0.64549454  0.79960657  1
  O  O572  1  0.82188480  0.98126098  0.05158198  1
  O  O573  1  0.82274280  0.98202897  0.30031109  1
  O  O574  1  0.82474193  0.98028579  0.55080030  1
  O  O575  1  0.82295124  0.97943245  0.80073205  1
  O  O576  1  0.42670911  0.14608734  0.17601476  1
  O  O577  1  0.42606663  0.14811543  0.42576411  1
  O  O578  1  0.42634734  0.14657041  0.67577066  1
  O  O579  1  0.42715525  0.14886717  0.92554673  1
  O  O580  1  0.42581229  0.47944539  0.17518162  1
  O  O581  1  0.42749500  0.48087240  0.42691512  1
  O  O582  1  0.42750042  0.48001065  0.67649528  1
  O  O583  1  0.42664439  0.48030611  0.92434296  1
  O  O584  1  0.42687088  0.81202125  0.17548353  1
  O  O585  1  0.42706870  0.81417473  0.42390575  1
  O  O586  1  0.42561619  0.81338633  0.67449341  1
  O  O587  1  0.42595855  0.81357834  0.92511001  1
  O  O588  1  0.92775206  0.14633577  0.17650910  1
  O  O589  1  0.92615246  0.14646257  0.42416496  1
  O  O590  1  0.92783431  0.14690041  0.67704077  1
  O  O591  1  0.92633194  0.14596772  0.92524394  1
  O  O592  1  0.92699098  0.47890734  0.17548112  1
  O  O593  1  0.92706466  0.48111020  0.42576279  1
  O  O594  1  0.92700515  0.48220367  0.67576855  1
  O  O595  1  0.92619432  0.47955885  0.92491838  1
  O  O596  1  0.92670309  0.81443004  0.17628216  1
  O  O597  1  0.92710667  0.81302165  0.42548587  1
  O  O598  1  0.92688562  0.81435105  0.67543754  1
  O  O599  1  0.92676551  0.81457487  0.92580225  1
  O  O600  1  0.07367924  0.18592473  0.07614087  1
  O  O601  1  0.07271585  0.18668528  0.32373418  1
  O  O602  1  0.07307230  0.18633744  0.57519619  1
  O  O603  1  0.07227233  0.18476377  0.82353985  1
  O  O604  1  0.07390811  0.51954036  0.07507107  1
  O  O605  1  0.07382494  0.51995085  0.32580078  1
  O  O606  1  0.07197979  0.51989756  0.57303682  1
  O  O607  1  0.07289012  0.51854283  0.82361262  1
  O  O608  1  0.07328161  0.85197620  0.07412437  1
  O  O609  1  0.07253503  0.85226759  0.32333714  1
  O  O610  1  0.07436456  0.85354519  0.57535185  1
  O  O611  1  0.07257904  0.85236849  0.82302992  1
  O  O612  1  0.57297608  0.18491579  0.07343256  1
  O  O613  1  0.57457189  0.18727280  0.32595596  1
  O  O614  1  0.57196299  0.18687861  0.57401327  1
  O  O615  1  0.57308621  0.18794297  0.82365886  1
  O  O616  1  0.57431492  0.51988565  0.07557350  1
  O  O617  1  0.57310212  0.52054025  0.32487870  1
  O  O618  1  0.57288944  0.51808232  0.57425020  1
  O  O619  1  0.57301438  0.51850326  0.82311628  1
  O  O620  1  0.57335826  0.85327825  0.07567235  1
  O  O621  1  0.57411819  0.85537156  0.32457827  1
  O  O622  1  0.57415771  0.85383898  0.57576251  1
  O  O623  1  0.57311604  0.85521332  0.82455583  1
  O  O624  1  0.32281199  0.18797414  0.04969024  1
  O  O625  1  0.32383962  0.18713840  0.29955539  1
  O  O626  1  0.32154961  0.18695810  0.55214754  1
  O  O627  1  0.32227137  0.18681399  0.80158181  1
  O  O628  1  0.32179522  0.51898969  0.05158157  1
  O  O629  1  0.32273743  0.51967172  0.30159833  1
  O  O630  1  0.32322491  0.52117626  0.55063959  1
  O  O631  1  0.32086417  0.51861235  0.80190652  1
  O  O632  1  0.32272026  0.85102410  0.05069842  1
  O  O633  1  0.32289464  0.85120774  0.30019386  1
  O  O634  1  0.32387099  0.85269713  0.54921039  1
  O  O635  1  0.32383965  0.85246345  0.79919828  1
  O  O636  1  0.82272580  0.18688717  0.05104234  1
  O  O637  1  0.82387268  0.18662505  0.29941006  1
  O  O638  1  0.82285292  0.18650221  0.55197364  1
  O  O639  1  0.82250429  0.18689127  0.80172002  1
  O  O640  1  0.82452483  0.51997416  0.04936707  1
  O  O641  1  0.82313708  0.51838155  0.30131011  1
  O  O642  1  0.82238037  0.51970175  0.55196364  1
  O  O643  1  0.82282217  0.51853883  0.80003415  1
  O  O644  1  0.82257862  0.85393596  0.05200671  1
  O  O645  1  0.82291384  0.85495490  0.30011814  1
  O  O646  1  0.82423582  0.85341214  0.54961515  1
  O  O647  1  0.82259137  0.85204521  0.80144921  1
  O  O648  1  0.17612218  0.14643943  0.20030583  1
  O  O649  1  0.17626431  0.14760247  0.45002942  1
  O  O650  1  0.17721386  0.14819770  0.69944548  1
  O  O651  1  0.17664437  0.14793252  0.94929031  1
  O  O652  1  0.17811571  0.48068268  0.19797184  1
  O  O653  1  0.17703859  0.48168226  0.44943776  1
  O  O654  1  0.17660645  0.47874207  0.70009341  1
  O  O655  1  0.17808290  0.48009271  0.94847580  1
  O  O656  1  0.17837320  0.81254636  0.19775332  1
  O  O657  1  0.17697582  0.81317451  0.44808458  1
  O  O658  1  0.17683720  0.81132717  0.69974872  1
  O  O659  1  0.17685548  0.81128571  0.94968144  1
  O  O660  1  0.67771608  0.14747581  0.19867420  1
  O  O661  1  0.67770199  0.14653884  0.44939429  1
  O  O662  1  0.67686744  0.14839582  0.69923722  1
  O  O663  1  0.67718562  0.14878898  0.94957469  1
  O  O664  1  0.67698860  0.47901652  0.19888216  1
  O  O665  1  0.67741789  0.48116736  0.44945318  1
  O  O666  1  0.67732538  0.47973129  0.69849288  1
  O  O667  1  0.67758468  0.48008776  0.94833507  1
  O  O668  1  0.67714869  0.81498795  0.19960480  1
  O  O669  1  0.67585208  0.81302964  0.45118440  1
  O  O670  1  0.67679377  0.81223854  0.69976895  1
  O  O671  1  0.67714392  0.81553364  0.94921761  1
