# generated using pymatgen
data_Na2MnFe(PO4)2
_symmetry_space_group_name_H-M   'P 1'
_cell_length_a   22.34382796
_cell_length_b   20.09251337
_cell_length_c   19.44969684
_cell_angle_alpha   89.92604313
_cell_angle_beta   90.04800122
_cell_angle_gamma   90.05533519
_symmetry_Int_Tables_number   1
_chemical_formula_structural   Na2MnFe(PO4)2
_chemical_formula_sum   'Na96 Mn48 Fe48 P96 O384'
_cell_volume   8731.80372149
_cell_formula_units_Z   48
loop_
 _symmetry_equiv_pos_site_id
 _symmetry_equiv_pos_as_xyz
  1  'x, y, z'
loop_
 _atom_site_type_symbol
 _atom_site_label
 _atom_site_symmetry_multiplicity
 _atom_site_fract_x
 _atom_site_fract_y
 _atom_site_fract_z
 _atom_site_occupancy
  Na  Na0  1  0.13986457  0.25135292  0.24347385  1
  Na  Na1  1  0.14007323  0.24936607  0.49358301  1
  Na  Na2  1  0.13988210  0.25009749  0.74298697  1
  Na  Na3  1  0.14007649  0.25047258  0.99321605  1
  Na  Na4  1  0.14015004  0.58296043  0.24389672  1
  Na  Na5  1  0.14014980  0.58113091  0.49384382  1
  Na  Na6  1  0.14004634  0.58421798  0.74354079  1
  Na  Na7  1  0.14031959  0.58328655  0.99427747  1
  Na  Na8  1  0.13988464  0.91631407  0.24387657  1
  Na  Na9  1  0.13974041  0.91557484  0.49434108  1
  Na  Na10  1  0.14038186  0.91758723  0.74354442  1
  Na  Na11  1  0.14073841  0.91701801  0.99388691  1
  Na  Na12  1  0.64002257  0.24938118  0.24321696  1
  Na  Na13  1  0.63986063  0.25042769  0.49268744  1
  Na  Na14  1  0.64028120  0.24974443  0.74343387  1
  Na  Na15  1  0.64030493  0.25015170  0.99419946  1
  Na  Na16  1  0.64026092  0.58431413  0.24421021  1
  Na  Na17  1  0.64058818  0.58404062  0.49326509  1
  Na  Na18  1  0.64044958  0.58214673  0.74386221  1
  Na  Na19  1  0.64008901  0.58478252  0.99343288  1
  Na  Na20  1  0.64023808  0.91767485  0.24391809  1
  Na  Na21  1  0.64005464  0.91612694  0.49294701  1
  Na  Na22  1  0.63998055  0.91678729  0.74412378  1
  Na  Na23  1  0.64054326  0.91853131  0.99454906  1
  Na  Na24  1  0.36001780  0.08368085  0.00653011  1
  Na  Na25  1  0.36036602  0.08354466  0.25720805  1
  Na  Na26  1  0.36025082  0.08232632  0.50701686  1
  Na  Na27  1  0.35985677  0.08344477  0.75561146  1
  Na  Na28  1  0.35955311  0.41686899  0.00462340  1
  Na  Na29  1  0.35962103  0.41629967  0.25630239  1
  Na  Na30  1  0.36011917  0.41479358  0.50610491  1
  Na  Na31  1  0.35986783  0.41711377  0.75612000  1
  Na  Na32  1  0.35984540  0.74810997  0.00694669  1
  Na  Na33  1  0.35998524  0.74904699  0.25616192  1
  Na  Na34  1  0.35940314  0.74847503  0.50557244  1
  Na  Na35  1  0.35908597  0.74937192  0.75637085  1
  Na  Na36  1  0.86027128  0.08432519  0.00654984  1
  Na  Na37  1  0.86028989  0.08357735  0.25646844  1
  Na  Na38  1  0.86012516  0.08258413  0.50719012  1
  Na  Na39  1  0.86013732  0.08253489  0.75695649  1
  Na  Na40  1  0.85946219  0.41696832  0.00599968  1
  Na  Na41  1  0.86006938  0.41781991  0.25718885  1
  Na  Na42  1  0.85983915  0.41753173  0.50536653  1
  Na  Na43  1  0.85961692  0.41476991  0.75587124  1
  Na  Na44  1  0.85952245  0.75201841  0.00592338  1
  Na  Na45  1  0.85950239  0.75119450  0.25800095  1
  Na  Na46  1  0.85946531  0.75016873  0.50560705  1
  Na  Na47  1  0.85944075  0.74974980  0.75593872  1
  Na  Na48  1  0.10964726  0.08437203  0.11894391  1
  Na  Na49  1  0.10910396  0.08305854  0.36978062  1
  Na  Na50  1  0.10917563  0.08269125  0.61886898  1
  Na  Na51  1  0.10943165  0.08478647  0.86844329  1
  Na  Na52  1  0.10959758  0.41687018  0.11972196  1
  Na  Na53  1  0.10987645  0.41615268  0.36786615  1
  Na  Na54  1  0.10949503  0.41524637  0.61844941  1
  Na  Na55  1  0.10919932  0.41716488  0.86788274  1
  Na  Na56  1  0.10937111  0.75182363  0.11879733  1
  Na  Na57  1  0.10926539  0.74982853  0.36898942  1
  Na  Na58  1  0.10921810  0.74956444  0.61846027  1
  Na  Na59  1  0.10961930  0.75067653  0.86845786  1
  Na  Na60  1  0.61027230  0.08333549  0.11951902  1
  Na  Na61  1  0.60936371  0.08292789  0.36817022  1
  Na  Na62  1  0.60913604  0.08332338  0.61828431  1
  Na  Na63  1  0.60984012  0.08488883  0.86941757  1
  Na  Na64  1  0.60921357  0.41631560  0.11902400  1
  Na  Na65  1  0.60951620  0.41625300  0.36804716  1
  Na  Na66  1  0.60975694  0.41535180  0.61863382  1
  Na  Na67  1  0.60964439  0.41664497  0.86787816  1
  Na  Na68  1  0.60986969  0.75026915  0.11984120  1
  Na  Na69  1  0.60950376  0.75096387  0.36766690  1
  Na  Na70  1  0.60959036  0.75094727  0.61855460  1
  Na  Na71  1  0.60930090  0.74988748  0.86847821  1
  Na  Na72  1  0.39085165  0.24875910  0.13138325  1
  Na  Na73  1  0.39082878  0.24902330  0.38126158  1
  Na  Na74  1  0.39063634  0.24938840  0.63095610  1
  Na  Na75  1  0.39041771  0.25019322  0.88013957  1
  Na  Na76  1  0.39043333  0.58296320  0.13138143  1
  Na  Na77  1  0.39033316  0.58198611  0.38089636  1
  Na  Na78  1  0.39010026  0.58166832  0.63172296  1
  Na  Na79  1  0.38988816  0.58276923  0.88116931  1
  Na  Na80  1  0.39084080  0.91597303  0.13264137  1
  Na  Na81  1  0.39066919  0.91689802  0.38075183  1
  Na  Na82  1  0.39041708  0.91669262  0.63114449  1
  Na  Na83  1  0.39085960  0.91713634  0.88142372  1
  Na  Na84  1  0.89094954  0.25017648  0.13134518  1
  Na  Na85  1  0.89092504  0.25003910  0.38098000  1
  Na  Na86  1  0.89058188  0.24868090  0.63181836  1
  Na  Na87  1  0.89034253  0.24890343  0.88090142  1
  Na  Na88  1  0.89040341  0.58410647  0.13212723  1
  Na  Na89  1  0.89025004  0.58366847  0.38164137  1
  Na  Na90  1  0.89057364  0.58184469  0.63050401  1
  Na  Na91  1  0.89003002  0.58376435  0.88087141  1
  Na  Na92  1  0.89053955  0.91934936  0.13200310  1
  Na  Na93  1  0.89047652  0.91739703  0.38245285  1
  Na  Na94  1  0.89003892  0.91580508  0.63121571  1
  Na  Na95  1  0.89043208  0.91824930  0.88149465  1
  Mn  Mn96  1  0.24990056  0.66560740  0.62509840  1
  Mn  Mn97  1  0.49998254  0.49949639  0.24972519  1
  Mn  Mn98  1  0.75002584  0.83518852  0.12620613  1
  Mn  Mn99  1  0.24988907  0.83238070  0.37498153  1
  Mn  Mn100  1  0.49967696  0.50010918  -0.00000807  1
  Mn  Mn101  1  0.74974986  -0.00119249  0.62595069  1
  Mn  Mn102  1  0.24997229  0.66563976  0.12518483  1
  Mn  Mn103  1  -0.00020673  0.66808607  0.00094076  1
  Mn  Mn104  1  -0.00022115  0.66763477  0.25065360  1
  Mn  Mn105  1  0.00000505  0.33263321  0.49949265  1
  Mn  Mn106  1  0.50054309  0.83288056  0.00079319  1
  Mn  Mn107  1  -0.00009593  0.50029966  -0.00036157  1
  Mn  Mn108  1  0.24941851  0.16709192  0.37539353  1
  Mn  Mn109  1  0.00012258  0.66604754  0.49939091  1
  Mn  Mn110  1  0.49944772  0.66588925  0.74950182  1
  Mn  Mn111  1  0.24993782  -0.00051667  0.62537334  1
  Mn  Mn112  1  0.74982425  0.66726515  0.87466053  1
  Mn  Mn113  1  0.24927074  0.66489231  0.37565484  1
  Mn  Mn114  1  0.00030800  0.00063201  0.25084123  1
  Mn  Mn115  1  0.74939329  0.16672788  0.62471659  1
  Mn  Mn116  1  0.25077772  0.00052083  0.87461643  1
  Mn  Mn117  1  0.74955568  0.33357361  0.12501410  1
  Mn  Mn118  1  0.24997528  0.33314671  0.62534226  1
  Mn  Mn119  1  0.75047141  0.33412558  0.37403174  1
  Mn  Mn120  1  -0.00045474  0.49957203  0.74985322  1
  Mn  Mn121  1  0.74993744  0.00043445  0.87509136  1
  Mn  Mn122  1  0.75025110  0.50100910  0.12504749  1
  Mn  Mn123  1  0.50018735  0.00103903  0.00116762  1
  Mn  Mn124  1  0.75045619  0.66780032  0.12494995  1
  Mn  Mn125  1  0.24954296  0.33359391  0.87433876  1
  Mn  Mn126  1  0.00009390  0.83381756  0.74994041  1
  Mn  Mn127  1  0.25029142  0.16726238  0.12540399  1
  Mn  Mn128  1  0.75024328  0.66728797  0.62450488  1
  Mn  Mn129  1  0.49970639  0.33243479  -0.00045899  1
  Mn  Mn130  1  0.49991256  0.66647104  0.50017248  1
  Mn  Mn131  1  0.25064157  0.83258539  0.87504627  1
  Mn  Mn132  1  0.75003014  0.33286016  0.87563602  1
  Mn  Mn133  1  0.24969912  -0.00053723  0.12510835  1
  Mn  Mn134  1  0.25026990  -0.00068292  0.37551812  1
  Mn  Mn135  1  -0.00054278  0.83559216  -0.00084038  1
  Mn  Mn136  1  0.75040054  0.49922932  0.62411989  1
  Mn  Mn137  1  0.49905173  0.83425412  0.49912600  1
  Mn  Mn138  1  0.50009630  0.16669171  0.74925450  1
  Mn  Mn139  1  0.75076777  0.16622491  0.37490528  1
  Mn  Mn140  1  0.25042355  0.33470735  0.12376959  1
  Mn  Mn141  1  0.49950096  0.83416519  0.74987507  1
  Mn  Mn142  1  -0.00049765  0.33275003  -0.00019481  1
  Mn  Mn143  1  0.50062581  0.49860529  0.49990573  1
  Fe  Fe144  1  0.50015011  0.16625877  0.25066143  1
  Fe  Fe145  1  0.24974038  0.83251047  0.62531833  1
  Fe  Fe146  1  0.25028398  0.49882160  0.37476225  1
  Fe  Fe147  1  0.50026866  0.16636670  0.49966667  1
  Fe  Fe148  1  0.00009775  0.50009102  0.25029509  1
  Fe  Fe149  1  0.50050136  0.00016899  0.49931224  1
  Fe  Fe150  1  0.00006781  0.16668658  0.25032301  1
  Fe  Fe151  1  0.75083692  0.00075192  0.12528901  1
  Fe  Fe152  1  0.00047611  0.00153694  0.00058201  1
  Fe  Fe153  1  0.49999727  0.33204426  0.24962852  1
  Fe  Fe154  1  0.25001233  0.49986806  0.12481093  1
  Fe  Fe155  1  -0.00017222  0.00004726  0.50034051  1
  Fe  Fe156  1  0.74988261  0.00008309  0.37529009  1
  Fe  Fe157  1  -0.00037013  0.83323867  0.50057541  1
  Fe  Fe158  1  0.00004303  0.83461114  0.25026102  1
  Fe  Fe159  1  0.74982974  0.83392175  0.87517984  1
  Fe  Fe160  1  0.24991028  0.49935153  0.62496802  1
  Fe  Fe161  1  0.75052860  0.16650332  0.12504350  1
  Fe  Fe162  1  0.75003273  0.16685137  0.87524762  1
  Fe  Fe163  1  0.74946543  0.50067698  0.37527908  1
  Fe  Fe164  1  0.00020371  0.49907813  0.49989819  1
  Fe  Fe165  1  0.74997969  0.83403266  0.37501778  1
  Fe  Fe166  1  0.50004075  0.83325720  0.24992612  1
  Fe  Fe167  1  0.50043743  0.33279942  0.74960870  1
  Fe  Fe168  1  0.24934705  0.50040446  0.87493012  1
  Fe  Fe169  1  0.25033693  0.83234409  0.12466068  1
  Fe  Fe170  1  -0.00053424  0.66667144  0.74944067  1
  Fe  Fe171  1  0.50061200  0.49919862  0.74998907  1
  Fe  Fe172  1  0.50011131  0.00065008  0.75004165  1
  Fe  Fe173  1  -0.00015632  0.16614284  0.75016038  1
  Fe  Fe174  1  0.00003529  0.00048965  0.75012337  1
  Fe  Fe175  1  -0.00003742  0.16631548  0.50082859  1
  Fe  Fe176  1  0.49981310  0.00049141  0.25025455  1
  Fe  Fe177  1  0.25022292  0.16693389  0.87474924  1
  Fe  Fe178  1  0.24958027  0.66626350  0.87511006  1
  Fe  Fe179  1  0.50020870  0.66653233  0.25024800  1
  Fe  Fe180  1  0.50028205  0.16649522  0.00029122  1
  Fe  Fe181  1  0.00001721  0.33313929  0.25005540  1
  Fe  Fe182  1  0.00067565  0.16711501  -0.00009852  1
  Fe  Fe183  1  0.49989168  0.33251790  0.49961466  1
  Fe  Fe184  1  0.24976363  0.16644098  0.62461605  1
  Fe  Fe185  1  0.25031439  0.33321192  0.37515868  1
  Fe  Fe186  1  0.75003896  0.33299448  0.62491449  1
  Fe  Fe187  1  0.74955398  0.83309601  0.62429450  1
  Fe  Fe188  1  0.74980250  0.66729897  0.37534306  1
  Fe  Fe189  1  0.75003200  0.49984347  0.87447965  1
  Fe  Fe190  1  0.50019546  0.66646857  0.00011984  1
  Fe  Fe191  1  -0.00040346  0.33244407  0.74931805  1
  P  P192  1  0.04235309  0.24920316  0.10305514  1
  P  P193  1  0.04141444  0.24945538  0.35192737  1
  P  P194  1  0.04182691  0.24828922  0.60314310  1
  P  P195  1  0.04124486  0.24975558  0.85142996  1
  P  P196  1  0.04233988  0.58345687  0.10396231  1
  P  P197  1  0.04203161  0.58205640  0.35280308  1
  P  P198  1  0.04192807  0.58148659  0.60245592  1
  P  P199  1  0.04190443  0.58491482  0.85210729  1
  P  P200  1  0.04239155  0.91885830  0.10279402  1
  P  P201  1  0.04196589  0.91571722  0.35382380  1
  P  P202  1  0.04080837  0.91677430  0.60215789  1
  P  P203  1  0.04237953  0.91915765  0.85266536  1
  P  P204  1  0.54219109  0.24829039  0.10323109  1
  P  P205  1  0.54163963  0.24943555  0.35219877  1
  P  P206  1  0.54146123  0.25002582  0.60138372  1
  P  P207  1  0.54250323  0.25075653  0.85219430  1
  P  P208  1  0.54215779  0.58472776  0.10297537  1
  P  P209  1  0.54217724  0.58388580  0.35238010  1
  P  P210  1  0.54294984  0.58216425  0.60344777  1
  P  P211  1  0.54209359  0.58227133  0.85247253  1
  P  P212  1  0.54259382  0.91688935  0.10451067  1
  P  P213  1  0.54093910  0.91735419  0.35146634  1
  P  P214  1  0.54200372  0.91845980  0.60235132  1
  P  P215  1  0.54221671  0.91850292  0.85269967  1
  P  P216  1  0.45863476  0.08391617  0.14861818  1
  P  P217  1  0.45883471  0.08329255  0.39775028  1
  P  P218  1  0.45794879  0.08201210  0.64646103  1
  P  P219  1  0.45792796  0.08484116  0.89753011  1
  P  P220  1  0.45771501  0.41480934  0.14746010  1
  P  P221  1  0.45815360  0.41421392  0.39679589  1
  P  P222  1  0.45881395  0.41552976  0.64797475  1
  P  P223  1  0.45763102  0.41650531  0.89568912  1
  P  P224  1  0.45896130  0.74924461  0.14833049  1
  P  P225  1  0.45734519  0.74971719  0.39571581  1
  P  P226  1  0.45669263  0.75026404  0.64672417  1
  P  P227  1  0.45774720  0.74883084  0.89789988  1
  P  P228  1  0.95842275  0.08507467  0.14741118  1
  P  P229  1  0.95861121  0.08400691  0.39879291  1
  P  P230  1  0.95835233  0.08278402  0.64807734  1
  P  P231  1  0.95882746  0.08398272  0.89807913  1
  P  P232  1  0.95853805  0.41683673  0.14867855  1
  P  P233  1  0.95832682  0.41763017  0.39659703  1
  P  P234  1  0.95761325  0.41473004  0.64688714  1
  P  P235  1  0.95703987  0.41618916  0.89621295  1
  P  P236  1  0.95735774  0.75272091  0.14812470  1
  P  P237  1  0.95797197  0.75176212  0.39747740  1
  P  P238  1  0.95782442  0.74903728  0.64690128  1
  P  P239  1  0.95718382  0.75069680  0.89626310  1
  P  P240  1  0.20721904  0.08352479  0.22846924  1
  P  P241  1  0.20741014  0.08304284  0.47891646  1
  P  P242  1  0.20801046  0.08506725  0.72765870  1
  P  P243  1  0.20806188  0.08448210  0.97717747  1
  P  P244  1  0.20814176  0.41788440  0.22798036  1
  P  P245  1  0.20849231  0.41591906  0.47680308  1
  P  P246  1  0.20752497  0.41824208  0.72773550  1
  P  P247  1  0.20721662  0.41828808  0.97713966  1
  P  P248  1  0.20753600  0.75034392  0.22726179  1
  P  P249  1  0.20682286  0.74899952  0.47883562  1
  P  P250  1  0.20739117  0.75039482  0.72778927  1
  P  P251  1  0.20772084  0.74838699  0.97776274  1
  P  P252  1  0.70918736  0.08299756  0.22715450  1
  P  P253  1  0.70779159  0.08201146  0.47733821  1
  P  P254  1  0.70706667  0.08336124  0.72858259  1
  P  P255  1  0.70830132  0.08516817  0.97840440  1
  P  P256  1  0.70719787  0.41778554  0.22846274  1
  P  P257  1  0.70767692  0.41755272  0.47724036  1
  P  P258  1  0.70808430  0.41503239  0.72747367  1
  P  P259  1  0.70737609  0.41819799  0.97726267  1
  P  P260  1  0.70793870  0.75075950  0.22942961  1
  P  P261  1  0.70818291  0.75073568  0.47651910  1
  P  P262  1  0.70767760  0.75146097  0.72754129  1
  P  P263  1  0.70750911  0.75220567  0.97750414  1
  P  P264  1  0.29285523  0.25014772  0.02103252  1
  P  P265  1  0.29223644  0.25156847  0.27270264  1
  P  P266  1  0.29204598  0.24901695  0.52242587  1
  P  P267  1  0.29175447  0.24876694  0.77181903  1
  P  P268  1  0.29220952  0.58167846  0.02179778  1
  P  P269  1  0.29203667  0.58135878  0.27242418  1
  P  P270  1  0.29226144  0.58053147  0.52228079  1
  P  P271  1  0.29123149  0.58327917  0.77316681  1
  P  P272  1  0.29275010  0.91501630  0.02275320  1
  P  P273  1  0.29279338  0.91589789  0.27143574  1
  P  P274  1  0.29226832  0.91455319  0.52294455  1
  P  P275  1  0.29293224  0.91630786  0.77152688  1
  P  P276  1  0.79227085  0.24901223  0.02257391  1
  P  P277  1  0.79291155  0.24964716  0.27106100  1
  P  P278  1  0.79226527  0.25141722  0.52236181  1
  P  P279  1  0.79216718  0.24876497  0.77226923  1
  P  P280  1  0.79306718  0.58419396  0.02125266  1
  P  P281  1  0.79153726  0.58409993  0.27400137  1
  P  P282  1  0.79261212  0.58389687  0.52072000  1
  P  P283  1  0.79219439  0.58210276  0.77218645  1
  P  P284  1  0.79245902  0.91877525  0.02274093  1
  P  P285  1  0.79179973  0.91792902  0.27364365  1
  P  P286  1  0.79164807  0.91535111  0.52173865  1
  P  P287  1  0.79219827  0.91516173  0.77246786  1
  O  O288  1  0.03708415  0.24949430  0.18290179  1
  O  O289  1  0.03647802  0.24941273  0.43187403  1
  O  O290  1  0.03633743  0.24886229  0.68295153  1
  O  O291  1  0.03663061  0.24919021  0.93141285  1
  O  O292  1  0.03689992  0.58295340  0.18390686  1
  O  O293  1  0.03690785  0.58166668  0.43275022  1
  O  O294  1  0.03636372  0.58219738  0.68231292  1
  O  O295  1  0.03690666  0.58477057  0.93209136  1
  O  O296  1  0.03732353  0.91807218  0.18277394  1
  O  O297  1  0.03640822  0.91549234  0.43365939  1
  O  O298  1  0.03599998  0.91743018  0.68210672  1
  O  O299  1  0.03711790  0.91950824  0.93260559  1
  O  O300  1  0.53676100  0.24848853  0.18311582  1
  O  O301  1  0.53644343  0.24959851  0.43209078  1
  O  O302  1  0.53666014  0.25018493  0.68133064  1
  O  O303  1  0.53751868  0.25011211  0.93207974  1
  O  O304  1  0.53687422  0.58472680  0.18293982  1
  O  O305  1  0.53730122  0.58334618  0.43234408  1
  O  O306  1  0.53774144  0.58158744  0.68340169  1
  O  O307  1  0.53714176  0.58285676  0.93245731  1
  O  O308  1  0.53726939  0.91673469  0.18434496  1
  O  O309  1  0.53624062  0.91752300  0.43145131  1
  O  O310  1  0.53671331  0.91864158  0.68230443  1
  O  O311  1  0.53707961  0.91800497  0.93265507  1
  O  O312  1  0.46340853  0.08442474  0.06866212  1
  O  O313  1  0.46373471  0.08383740  0.31783332  1
  O  O314  1  0.46330609  0.08192069  0.56662831  1
  O  O315  1  0.46304190  0.08418944  0.81759050  1
  O  O316  1  0.46281376  0.41536302  0.06750321  1
  O  O317  1  0.46349216  0.41411468  0.31689168  1
  O  O318  1  0.46389016  0.41524844  0.56797913  1
  O  O319  1  0.46314007  0.41671623  0.81579196  1
  O  O320  1  0.46381040  0.74904988  0.06834090  1
  O  O321  1  0.46287767  0.74946158  0.31582373  1
  O  O322  1  0.46164528  0.75034252  0.56674967  1
  O  O323  1  0.46249929  0.74923759  0.81791813  1
  O  O324  1  0.96384483  0.08473673  0.06760658  1
  O  O325  1  0.96362818  0.08419496  0.31887142  1
  O  O326  1  0.96314896  0.08315878  0.56817346  1
  O  O327  1  0.96379744  0.08371692  0.81818497  1
  O  O328  1  0.96309459  0.41659628  0.06863458  1
  O  O329  1  0.96365939  0.41765326  0.31672797  1
  O  O330  1  0.96312328  0.41518653  0.56697412  1
  O  O331  1  0.96220571  0.41563297  0.81627448  1
  O  O332  1  0.96242287  0.75249981  0.06812730  1
  O  O333  1  0.96335661  0.75219259  0.31756621  1
  O  O334  1  0.96341991  0.74963121  0.56698321  1
  O  O335  1  0.96250529  0.75005139  0.81631382  1
  O  O336  1  0.21289528  0.08402372  0.05717612  1
  O  O337  1  0.21219936  0.08330059  0.30846879  1
  O  O338  1  0.21267108  0.08341358  0.55887019  1
  O  O339  1  0.21351076  0.08541030  0.80759834  1
  O  O340  1  0.21262943  0.41825340  0.05708516  1
  O  O341  1  0.21360813  0.41715730  0.30787070  1
  O  O342  1  0.21327559  0.41608222  0.55680480  1
  O  O343  1  0.21251591  0.41832188  0.80766733  1
  O  O344  1  0.21298535  0.74887351  0.05772355  1
  O  O345  1  0.21240586  0.74978130  0.30724843  1
  O  O346  1  0.21211363  0.74943725  0.55878755  1
  O  O347  1  0.21282616  0.74965417  0.80772434  1
  O  O348  1  0.71398312  0.08501513  0.05828848  1
  O  O349  1  0.71413566  0.08246606  0.30712744  1
  O  O350  1  0.71253089  0.08210614  0.55730816  1
  O  O351  1  0.71228321  0.08397108  0.80851988  1
  O  O352  1  0.71248612  0.41789531  0.05724243  1
  O  O353  1  0.71237856  0.41817410  0.30842042  1
  O  O354  1  0.71302506  0.41649824  0.55717602  1
  O  O355  1  0.71325779  0.41549671  0.80741378  1
  O  O356  1  0.71276334  0.75191190  0.05748969  1
  O  O357  1  0.71328614  0.75043255  0.30933563  1
  O  O358  1  0.71309379  0.75094770  0.55653869  1
  O  O359  1  0.71306376  0.75158773  0.80748062  1
  O  O360  1  0.28744036  0.25161285  0.19271600  1
  O  O361  1  0.28692792  0.24995302  0.44248357  1
  O  O362  1  0.28638685  0.24847486  0.69187759  1
  O  O363  1  0.28740702  0.24955042  0.94107860  1
  O  O364  1  0.28710023  0.58155643  0.19245047  1
  O  O365  1  0.28691630  0.58036094  0.44233664  1
  O  O366  1  0.28643058  0.58290183  0.69317351  1
  O  O367  1  0.28661011  0.58238065  0.94193518  1
  O  O368  1  0.28762498  0.91565034  0.19146570  1
  O  O369  1  0.28714362  0.91504743  0.44296082  1
  O  O370  1  0.28740653  0.91574072  0.69162284  1
  O  O371  1  0.28784855  0.91552747  0.94273790  1
  O  O372  1  0.78743479  0.24913866  0.19115685  1
  O  O373  1  0.78745441  0.25112111  0.44235997  1
  O  O374  1  0.78675986  0.24960103  0.69233383  1
  O  O375  1  0.78701764  0.24900834  0.94258202  1
  O  O376  1  0.78699030  0.58435506  0.19393291  1
  O  O377  1  0.78705652  0.58413605  0.44083944  1
  O  O378  1  0.78709095  0.58243735  0.69220651  1
  O  O379  1  0.78781418  0.58368293  0.94130082  1
  O  O380  1  0.78701031  0.91869873  0.19364100  1
  O  O381  1  0.78622449  0.91616826  0.44183662  1
  O  O382  1  0.78694512  0.91483025  0.69250779  1
  O  O383  1  0.78723362  0.91825166  0.94285899  1
  O  O384  1  0.22854878  0.25051565  0.05637414  1
  O  O385  1  0.22783821  0.25187597  0.30794816  1
  O  O386  1  0.22776165  0.24904042  0.55799793  1
  O  O387  1  0.22754773  0.24894812  0.80760800  1
  O  O388  1  0.22807778  0.58126601  0.05801902  1
  O  O389  1  0.22771736  0.58093382  0.30788604  1
  O  O390  1  0.22800172  0.58082547  0.55800645  1
  O  O391  1  0.22706240  0.58390951  0.80908758  1
  O  O392  1  0.22830542  0.91468249  0.05791130  1
  O  O393  1  0.22840090  0.91628406  0.30661802  1
  O  O394  1  0.22793021  0.91435122  0.55841115  1
  O  O395  1  0.22869472  0.91652781  0.80697474  1
  O  O396  1  0.72802184  0.24891685  0.05819326  1
  O  O397  1  0.72867763  0.24975363  0.30656405  1
  O  O398  1  0.72780599  0.25154813  0.55748181  1
  O  O399  1  0.72799315  0.24830968  0.80822202  1
  O  O400  1  0.72866340  0.58446280  0.05643369  1
  O  O401  1  0.72724981  0.58397009  0.30951789  1
  O  O402  1  0.72849040  0.58359824  0.55655850  1
  O  O403  1  0.72794573  0.58206285  0.80785944  1
  O  O404  1  0.72822019  0.91939242  0.05851688  1
  O  O405  1  0.72748970  0.91743337  0.30925055  1
  O  O406  1  0.72750022  0.91498025  0.55785714  1
  O  O407  1  0.72793497  0.91547583  0.80812077  1
  O  O408  1  0.27167791  0.08316086  0.19360484  1
  O  O409  1  0.27173180  0.08332378  0.44361472  1
  O  O410  1  0.27215061  0.08460598  0.69176170  1
  O  O411  1  0.27251130  0.08482936  0.94206019  1
  O  O412  1  0.27227609  0.41855422  0.19176185  1
  O  O413  1  0.27274710  0.41557183  0.44108517  1
  O  O414  1  0.27186651  0.41786712  0.69222644  1
  O  O415  1  0.27142082  0.41809240  0.94135355  1
  O  O416  1  0.27193904  0.75047359  0.19197272  1
  O  O417  1  0.27113960  0.74855401  0.44353301  1
  O  O418  1  0.27164010  0.75077960  0.69200652  1
  O  O419  1  0.27200166  0.74758530  0.94210501  1
  O  O420  1  0.77332474  0.08300222  0.19113511  1
  O  O421  1  0.77231086  0.08181419  0.44240166  1
  O  O422  1  0.77138551  0.08328773  0.69329700  1
  O  O423  1  0.77231458  0.08526473  0.94193669  1
  O  O424  1  0.77158786  0.41724054  0.19335688  1
  O  O425  1  0.77195076  0.41859465  0.44156303  1
  O  O426  1  0.77230645  0.41465538  0.69166897  1
  O  O427  1  0.77175360  0.41822734  0.94192635  1
  O  O428  1  0.77210872  0.75113702  0.19363001  1
  O  O429  1  0.77234176  0.75094240  0.44066307  1
  O  O430  1  0.77190853  0.75194554  0.69166689  1
  O  O431  1  0.77181324  0.75202371  0.94197921  1
  O  O432  1  0.02249580  0.08511713  0.18381148  1
  O  O433  1  0.02267243  0.08430930  0.43504087  1
  O  O434  1  0.02247691  0.08234372  0.68423682  1
  O  O435  1  0.02292454  0.08408515  0.93454288  1
  O  O436  1  0.02276033  0.41710271  0.18433755  1
  O  O437  1  0.02242978  0.41745190  0.43287286  1
  O  O438  1  0.02174104  0.41460875  0.68301996  1
  O  O439  1  0.02140057  0.41627325  0.93157520  1
  O  O440  1  0.02173937  0.75256693  0.18360310  1
  O  O441  1  0.02211191  0.75137373  0.43346499  1
  O  O442  1  0.02194987  0.74881238  0.68306410  1
  O  O443  1  0.02147401  0.75132239  0.93179514  1
  O  O444  1  0.52283992  0.08414319  0.18453757  1
  O  O445  1  0.52295480  0.08296452  0.43394764  1
  O  O446  1  0.52207696  0.08188714  0.68277098  1
  O  O447  1  0.52224781  0.08506220  0.93326883  1
  O  O448  1  0.52200669  0.41487904  0.18301616  1
  O  O449  1  0.52238440  0.41407893  0.43271165  1
  O  O450  1  0.52296398  0.41533558  0.68413167  1
  O  O451  1  0.52171862  0.41648457  0.93175780  1
  O  O452  1  0.52302264  0.74924709  0.18446150  1
  O  O453  1  0.52153294  0.75032879  0.43160628  1
  O  O454  1  0.52113119  0.75008354  0.68172516  1
  O  O455  1  0.52219502  0.74857462  0.93320847  1
  O  O456  1  0.47805944  0.24792826  0.06695198  1
  O  O457  1  0.47756772  0.24913462  0.31576053  1
  O  O458  1  0.47731200  0.25006503  0.56535702  1
  O  O459  1  0.47822533  0.25119026  0.81639376  1
  O  O460  1  0.47789248  0.58477189  0.06714297  1
  O  O461  1  0.47785719  0.58385036  0.31690813  1
  O  O462  1  0.47855970  0.58214371  0.56819280  1
  O  O463  1  0.47779883  0.58166970  0.81687624  1
  O  O464  1  0.47843332  0.91670536  0.06860603  1
  O  O465  1  0.47687686  0.91719936  0.31554183  1
  O  O466  1  0.47775852  0.91887785  0.56643809  1
  O  O467  1  0.47791869  0.91888054  0.81698144  1
  O  O468  1  0.97816009  0.24832376  0.06688440  1
  O  O469  1  0.97731507  0.24907059  0.31577611  1
  O  O470  1  0.97772678  0.24819742  0.56683582  1
  O  O471  1  0.97703552  0.25045684  0.81563355  1
  O  O472  1  0.97805156  0.58370171  0.06839934  1
  O  O473  1  0.97776959  0.58258206  0.31708063  1
  O  O474  1  0.97784731  0.58138685  0.56623272  1
  O  O475  1  0.97757299  0.58472617  0.81651921  1
  O  O476  1  0.97806075  0.91968810  0.06713500  1
  O  O477  1  0.97787976  0.91593383  0.31741921  1
  O  O478  1  0.97672902  0.91656608  0.56609585  1
  O  O479  1  0.97810058  0.91869005  0.81688916  1
  O  O480  1  0.07292945  0.31311772  0.07463055  1
  O  O481  1  0.07149566  0.31368278  0.32349528  1
  O  O482  1  0.07321643  0.31163320  0.57458653  1
  O  O483  1  0.07249843  0.31331491  0.82337202  1
  O  O484  1  0.07336713  0.64731826  0.07636221  1
  O  O485  1  0.07323900  0.64597505  0.32551895  1
  O  O486  1  0.07351415  0.64477218  0.57437438  1
  O  O487  1  0.07236670  0.64856867  0.82339253  1
  O  O488  1  0.07345312  0.98243596  0.07469658  1
  O  O489  1  0.07326454  0.97947245  0.32616350  1
  O  O490  1  0.07158562  0.98035552  0.57329604  1
  O  O491  1  0.07315801  0.98248632  0.82364769  1
  O  O492  1  0.57327411  0.31198620  0.07516191  1
  O  O493  1  0.57241433  0.31306795  0.32342672  1
  O  O494  1  0.57277352  0.31328735  0.57289809  1
  O  O495  1  0.57335403  0.31437292  0.82381609  1
  O  O496  1  0.57313400  0.64804705  0.07411009  1
  O  O497  1  0.57285648  0.64761870  0.32422997  1
  O  O498  1  0.57377263  0.64608273  0.57563510  1
  O  O499  1  0.57325317  0.64580828  0.82430828  1
  O  O500  1  0.57363862  0.98049440  0.07620501  1
  O  O501  1  0.57198866  0.98092903  0.32313775  1
  O  O502  1  0.57346970  0.98141110  0.57339166  1
  O  O503  1  0.57309274  0.98210649  0.82453617  1
  O  O504  1  0.42842339  0.01961942  0.17661255  1
  O  O505  1  0.42757048  0.01972154  0.42577537  1
  O  O506  1  0.42687168  0.01889460  0.67573975  1
  O  O507  1  0.42664507  0.02149032  0.92600898  1
  O  O508  1  0.42712048  0.35105856  0.17564149  1
  O  O509  1  0.42701984  0.35107133  0.42577951  1
  O  O510  1  0.42752938  0.35209955  0.67622777  1
  O  O511  1  0.42631931  0.35297832  0.92373347  1
  O  O512  1  0.42759710  0.68586984  0.17661839  1
  O  O513  1  0.42633087  0.68624657  0.42440232  1
  O  O514  1  0.42546290  0.68673096  0.67464417  1
  O  O515  1  0.42718232  0.68510931  0.92633142  1
  O  O516  1  0.92721321  0.02159079  0.17593251  1
  O  O517  1  0.92844294  0.01975610  0.42701593  1
  O  O518  1  0.92697683  0.01935183  0.67640625  1
  O  O519  1  0.92789089  0.02042825  0.92677941  1
  O  O520  1  0.92831179  0.35273365  0.17703267  1
  O  O521  1  0.92690308  0.35401374  0.42440218  1
  O  O522  1  0.92692033  0.35101543  0.67519665  1
  O  O523  1  0.92575808  0.35301136  0.92498628  1
  O  O524  1  0.92616196  0.68908053  0.17598602  1
  O  O525  1  0.92680927  0.68779614  0.42463787  1
  O  O526  1  0.92713861  0.68512828  0.67486155  1
  O  O527  1  0.92606698  0.68751039  0.92512415  1
  O  O528  1  0.17583828  0.02031118  0.20015397  1
  O  O529  1  0.17668159  0.01918396  0.45111046  1
  O  O530  1  0.17668823  0.02122695  0.70043859  1
  O  O531  1  0.17734200  0.02065975  0.94920475  1
  O  O532  1  0.17721707  0.35427610  0.19953753  1
  O  O533  1  0.17761300  0.35215972  0.44862758  1
  O  O534  1  0.17645364  0.35448819  0.69998338  1
  O  O535  1  0.17605725  0.35453836  0.94942600  1
  O  O536  1  0.17644705  0.68670151  0.19949354  1
  O  O537  1  0.17580479  0.68527322  0.45094678  1
  O  O538  1  0.17622588  0.68700580  0.69948317  1
  O  O539  1  0.17660415  0.68498090  0.94940230  1
  O  O540  1  0.67806572  0.01967686  0.19854094  1
  O  O541  1  0.67691564  0.01867097  0.44858965  1
  O  O542  1  0.67622051  0.01954897  0.70084928  1
  O  O543  1  0.67698329  0.02155478  0.95059770  1
  O  O544  1  0.67599918  0.35419692  0.20055835  1
  O  O545  1  0.67681770  0.35404833  0.44874283  1
  O  O546  1  0.67745343  0.35131468  0.69903665  1
  O  O547  1  0.67630687  0.35440402  0.94975417  1
  O  O548  1  0.67685735  0.68744234  0.20069875  1
  O  O549  1  0.67765419  0.68669603  0.44859847  1
  O  O550  1  0.67713800  0.68730716  0.69995651  1
  O  O551  1  0.67620283  0.68876695  0.94953207  1
  O  O552  1  0.32395922  0.31391127  0.04858254  1
  O  O553  1  0.32314035  0.31488794  0.30137396  1
  O  O554  1  0.32353239  0.31215413  0.55095339  1
  O  O555  1  0.32275239  0.31273035  0.79908563  1
  O  O556  1  0.32331596  0.64512363  0.05038791  1
  O  O557  1  0.32265962  0.64526163  0.30047020  1
  O  O558  1  0.32351164  0.64418978  0.54992348  1
  O  O559  1  0.32222157  0.64696163  0.80124413  1
  O  O560  1  0.32371420  0.97870856  0.05063128  1
  O  O561  1  0.32390540  0.97943770  0.29966198  1
  O  O562  1  0.32324610  0.97831490  0.55061371  1
  O  O563  1  0.32392120  0.98009394  0.79930021  1
  O  O564  1  0.82322676  0.31295916  0.05010451  1
  O  O565  1  0.82398389  0.31335347  0.29870277  1
  O  O566  1  0.82296610  0.31497777  0.55073875  1
  O  O567  1  0.82340331  0.31207067  0.80066073  1
  O  O568  1  0.82407544  0.64785893  0.04928701  1
  O  O569  1  0.82227692  0.64784360  0.30214784  1
  O  O570  1  0.82376795  0.64728780  0.54926659  1
  O  O571  1  0.82334181  0.64576147  0.79979289  1
  O  O572  1  0.82349160  0.98226638  0.05108967  1
  O  O573  1  0.82256481  0.98142607  0.30245794  1
  O  O574  1  0.82280633  0.97876902  0.55030762  1
  O  O575  1  0.82324331  0.97904748  0.79995617  1
  O  O576  1  0.42711943  0.14683448  0.17728239  1
  O  O577  1  0.42841132  0.14695079  0.42676939  1
  O  O578  1  0.42697568  0.14581642  0.67416473  1
  O  O579  1  0.42751384  0.14859119  0.92581815  1
  O  O580  1  0.42664663  0.47839566  0.17527574  1
  O  O581  1  0.42741715  0.47812597  0.42440563  1
  O  O582  1  0.42847023  0.47952456  0.67605088  1
  O  O583  1  0.42630296  0.47965742  0.92433194  1
  O  O584  1  0.42869031  0.81332565  0.17643766  1
  O  O585  1  0.42582803  0.81305795  0.42365048  1
  O  O586  1  0.42598224  0.81377755  0.67499614  1
  O  O587  1  0.42692748  0.81248123  0.92589819  1
  O  O588  1  0.92749009  0.14840154  0.17603850  1
  O  O589  1  0.92714316  0.14711766  0.42707463  1
  O  O590  1  0.92800212  0.14650815  0.67709998  1
  O  O591  1  0.92804472  0.14763455  0.92638240  1
  O  O592  1  0.92737240  0.48029818  0.17665708  1
  O  O593  1  0.92760526  0.48098970  0.42554620  1
  O  O594  1  0.92622424  0.47813267  0.67461386  1
  O  O595  1  0.92625955  0.47990650  0.92411232  1
  O  O596  1  0.92688093  0.81639096  0.17637542  1
  O  O597  1  0.92705721  0.81488061  0.42648848  1
  O  O598  1  0.92652275  0.81236617  0.67488209  1
  O  O599  1  0.92609431  0.81441081  0.92384519  1
  O  O600  1  0.07377061  0.18623287  0.07420196  1
  O  O601  1  0.07287335  0.18626686  0.32384850  1
  O  O602  1  0.07261478  0.18473537  0.57484320  1
  O  O603  1  0.07148876  0.18596381  0.82267607  1
  O  O604  1  0.07348638  0.52030841  0.07526849  1
  O  O605  1  0.07275369  0.51880970  0.32386763  1
  O  O606  1  0.07243409  0.51760288  0.57448882  1
  O  O607  1  0.07302076  0.52128630  0.82454611  1
  O  O608  1  0.07313355  0.85535413  0.07430504  1
  O  O609  1  0.07282876  0.85253092  0.32465777  1
  O  O610  1  0.07168374  0.85293243  0.57455921  1
  O  O611  1  0.07357511  0.85546353  0.82519379  1
  O  O612  1  0.57309283  0.18496830  0.07445271  1
  O  O613  1  0.57284030  0.18591018  0.32411373  1
  O  O614  1  0.57172190  0.18597731  0.57316491  1
  O  O615  1  0.57345082  0.18736371  0.82376810  1
  O  O616  1  0.57302770  0.52086533  0.07544295  1
  O  O617  1  0.57318700  0.52033398  0.32448700  1
  O  O618  1  0.57430971  0.51914263  0.57479296  1
  O  O619  1  0.57287868  0.51871426  0.82406468  1
  O  O620  1  0.57399079  0.85371928  0.07599396  1
  O  O621  1  0.57147657  0.85349704  0.32331215  1
  O  O622  1  0.57246382  0.85439201  0.57463656  1
  O  O623  1  0.57292439  0.85472079  0.82480334  1
  O  O624  1  0.32401499  0.18704714  0.05003242  1
  O  O625  1  0.32292621  0.18766749  0.30050212  1
  O  O626  1  0.32240379  0.18504579  0.55056499  1
  O  O627  1  0.32279793  0.18557271  0.80073639  1
  O  O628  1  0.32326920  0.51825840  0.05022999  1
  O  O629  1  0.32320690  0.51818288  0.30120306  1
  O  O630  1  0.32298398  0.51712209  0.55121610  1
  O  O631  1  0.32171417  0.51947238  0.80156856  1
  O  O632  1  0.32328362  0.85124488  0.05103311  1
  O  O633  1  0.32378528  0.85251945  0.29987848  1
  O  O634  1  0.32297808  0.85093354  0.55114090  1
  O  O635  1  0.32437132  0.85323605  0.80010226  1
  O  O636  1  0.82326261  0.18578156  0.05136853  1
  O  O637  1  0.82417212  0.18650932  0.29982990  1
  O  O638  1  0.82308053  0.18762191  0.55026495  1
  O  O639  1  0.82291937  0.18503203  0.80037046  1
  O  O640  1  0.82419856  0.52096087  0.05007306  1
  O  O641  1  0.82218990  0.52026017  0.30201185  1
  O  O642  1  0.82404309  0.52056222  0.54891696  1
  O  O643  1  0.82266077  0.51829896  0.80043643  1
  O  O644  1  0.82335206  0.85522151  0.05111246  1
  O  O645  1  0.82260389  0.85409179  0.30147144  1
  O  O646  1  0.82255544  0.85180067  0.55008962  1
  O  O647  1  0.82304630  0.85197277  0.80156081  1
  O  O648  1  0.17667488  0.14736855  0.20050137  1
  O  O649  1  0.17588252  0.14613572  0.45046429  1
  O  O650  1  0.17720769  0.14831660  0.69856084  1
  O  O651  1  0.17726926  0.14799633  0.94864308  1
  O  O652  1  0.17699671  0.48121092  0.19947392  1
  O  O653  1  0.17783884  0.47950551  0.44816240  1
  O  O654  1  0.17696111  0.48162326  0.69866787  1
  O  O655  1  0.17632196  0.48163168  0.94846223  1
  O  O656  1  0.17702487  0.81399516  0.19873656  1
  O  O657  1  0.17568776  0.81219946  0.45016762  1
  O  O658  1  0.17664187  0.81416167  0.69968033  1
  O  O659  1  0.17691206  0.81211109  0.94964764  1
  O  O660  1  0.67866427  0.14702586  0.19926508  1
  O  O661  1  0.67713760  0.14588885  0.44945013  1
  O  O662  1  0.67568130  0.14639874  0.69972139  1
  O  O663  1  0.67733395  0.14849852  0.94953118  1
  O  O664  1  0.67619674  0.48112974  0.19992180  1
  O  O665  1  0.67661603  0.48121068  0.44934858  1
  O  O666  1  0.67695993  0.47848949  0.69932920  1
  O  O667  1  0.67679031  0.48174544  0.94864634  1
  O  O668  1  0.67669354  0.81425850  0.20134151  1
  O  O669  1  0.67696459  0.81405289  0.44799687  1
  O  O670  1  0.67629820  0.81444992  0.69865446  1
  O  O671  1  0.67703773  0.81602466  0.94931099  1
