# generated using pymatgen
data_Na2MnFe(PO4)2
_symmetry_space_group_name_H-M   'P 1'
_cell_length_a   22.34065807
_cell_length_b   20.08799074
_cell_length_c   19.45204280
_cell_angle_alpha   89.93302562
_cell_angle_beta   89.97369879
_cell_angle_gamma   90.01491093
_symmetry_Int_Tables_number   1
_chemical_formula_structural   Na2MnFe(PO4)2
_chemical_formula_sum   'Na96 Mn48 Fe48 P96 O384'
_cell_volume   8729.65982018
_cell_formula_units_Z   48
loop_
 _symmetry_equiv_pos_site_id
 _symmetry_equiv_pos_as_xyz
  1  'x, y, z'
loop_
 _atom_site_type_symbol
 _atom_site_label
 _atom_site_symmetry_multiplicity
 _atom_site_fract_x
 _atom_site_fract_y
 _atom_site_fract_z
 _atom_site_occupancy
  Na  Na0  1  0.14105311  0.24955149  0.24365416  1
  Na  Na1  1  0.14052370  0.25006983  0.49340117  1
  Na  Na2  1  0.14017007  0.25187458  0.74274967  1
  Na  Na3  1  0.14062829  0.25126705  0.99397965  1
  Na  Na4  1  0.14071118  0.58325529  0.24306182  1
  Na  Na5  1  0.14007805  0.58451571  0.49351753  1
  Na  Na6  1  0.14015186  0.58511798  0.74401155  1
  Na  Na7  1  0.14035303  0.58392557  0.99372734  1
  Na  Na8  1  0.14004426  0.91595964  0.24418111  1
  Na  Na9  1  0.14028743  0.91743026  0.49350238  1
  Na  Na10  1  0.13971833  0.91756559  0.74325645  1
  Na  Na11  1  0.14006605  0.91602119  0.99406259  1
  Na  Na12  1  0.64102670  0.25018795  0.24227348  1
  Na  Na13  1  0.64092138  0.25053743  0.49346107  1
  Na  Na14  1  0.64030188  0.24976420  0.74271696  1
  Na  Na15  1  0.64024763  0.24976164  0.99284328  1
  Na  Na16  1  0.64055923  0.58223423  0.24423465  1
  Na  Na17  1  0.64036251  0.58397640  0.49326236  1
  Na  Na18  1  0.64083067  0.58264726  0.74327711  1
  Na  Na19  1  0.64041037  0.58321919  0.99495387  1
  Na  Na20  1  0.64011331  0.91670422  0.24491008  1
  Na  Na21  1  0.64036287  0.91660787  0.49355387  1
  Na  Na22  1  0.64033880  0.91527714  0.74410709  1
  Na  Na23  1  0.64049719  0.91659743  0.99521937  1
  Na  Na24  1  0.35930416  0.08355342  0.00677458  1
  Na  Na25  1  0.35893189  0.08156745  0.25642943  1
  Na  Na26  1  0.35914633  0.08278352  0.50567807  1
  Na  Na27  1  0.35932271  0.08401575  0.75598478  1
  Na  Na28  1  0.35969207  0.41665608  0.00712739  1
  Na  Na29  1  0.36051924  0.41559429  0.25682231  1
  Na  Na30  1  0.36044751  0.41629301  0.50612657  1
  Na  Na31  1  0.35968387  0.41777271  0.75503659  1
  Na  Na32  1  0.35844043  0.75027145  0.00595903  1
  Na  Na33  1  0.35901437  0.75025902  0.25746614  1
  Na  Na34  1  0.35979630  0.74981838  0.50672295  1
  Na  Na35  1  0.35920344  0.75080252  0.75520422  1
  Na  Na36  1  0.85918645  0.08240705  0.00579622  1
  Na  Na37  1  0.85925000  0.08192452  0.25617832  1
  Na  Na38  1  0.85984940  0.08235736  0.50600856  1
  Na  Na39  1  0.85964157  0.08127117  0.75616386  1
  Na  Na40  1  0.85990465  0.41701884  0.00604009  1
  Na  Na41  1  0.86018258  0.41665550  0.25512977  1
  Na  Na42  1  0.86026430  0.41792701  0.50731560  1
  Na  Na43  1  0.86046105  0.41718091  0.75659274  1
  Na  Na44  1  0.85941718  0.74983103  0.00732128  1
  Na  Na45  1  0.85988772  0.75014288  0.25715767  1
  Na  Na46  1  0.85949711  0.75025849  0.50671424  1
  Na  Na47  1  0.85897025  0.74931788  0.75719346  1
  Na  Na48  1  0.10953169  0.08310117  0.11895758  1
  Na  Na49  1  0.11001477  0.08203710  0.36840657  1
  Na  Na50  1  0.10960438  0.08438522  0.61804251  1
  Na  Na51  1  0.10910116  0.08370146  0.86809768  1
  Na  Na52  1  0.11044323  0.41778582  0.11749579  1
  Na  Na53  1  0.11012016  0.41754922  0.36866187  1
  Na  Na54  1  0.10972119  0.41874238  0.61852203  1
  Na  Na55  1  0.10980114  0.41727321  0.86963184  1
  Na  Na56  1  0.10965713  0.74981256  0.11882635  1
  Na  Na57  1  0.10949051  0.75019026  0.36879544  1
  Na  Na58  1  0.10935119  0.75251450  0.61930606  1
  Na  Na59  1  0.10960391  0.74986606  0.86840298  1
  Na  Na60  1  0.60951198  0.08213616  0.11908068  1
  Na  Na61  1  0.60986528  0.08302544  0.36841411  1
  Na  Na62  1  0.60970835  0.08324801  0.61876170  1
  Na  Na63  1  0.60943598  0.08368859  0.86883432  1
  Na  Na64  1  0.61066745  0.41568944  0.11858518  1
  Na  Na65  1  0.61051097  0.41702723  0.36853698  1
  Na  Na66  1  0.60980260  0.41721307  0.61803674  1
  Na  Na67  1  0.60996710  0.41602584  0.86872627  1
  Na  Na68  1  0.60968156  0.75041702  0.12006549  1
  Na  Na69  1  0.60963937  0.75022281  0.36925632  1
  Na  Na70  1  0.60962877  0.74874204  0.61792647  1
  Na  Na71  1  0.60972785  0.75020427  0.86948725  1
  Na  Na72  1  0.39081904  0.24956023  0.13204048  1
  Na  Na73  1  0.39059166  0.25048381  0.38063766  1
  Na  Na74  1  0.39052819  0.25036216  0.63019283  1
  Na  Na75  1  0.39031532  0.25028526  0.87964624  1
  Na  Na76  1  0.39017879  0.58146181  0.13218503  1
  Na  Na77  1  0.39093630  0.58191415  0.38219949  1
  Na  Na78  1  0.39019775  0.58236324  0.63038518  1
  Na  Na79  1  0.39003174  0.58327569  0.88072264  1
  Na  Na80  1  0.38896987  0.91665007  0.13220648  1
  Na  Na81  1  0.38947969  0.91629521  0.38184188  1
  Na  Na82  1  0.39000185  0.91626676  0.63089249  1
  Na  Na83  1  0.38962739  0.91745039  0.88161309  1
  Na  Na84  1  0.89033788  0.25116581  0.13021200  1
  Na  Na85  1  0.89071666  0.24971697  0.38062411  1
  Na  Na86  1  0.89126663  0.25087039  0.63108163  1
  Na  Na87  1  0.89077113  0.25146891  0.88086628  1
  Na  Na88  1  0.89048266  0.58354912  0.13108457  1
  Na  Na89  1  0.89032869  0.58293021  0.38172777  1
  Na  Na90  1  0.89012227  0.58388794  0.63210466  1
  Na  Na91  1  0.89027964  0.58187277  0.88160237  1
  Na  Na92  1  0.88944549  0.91563771  0.13256660  1
  Na  Na93  1  0.88967622  0.91555200  0.38195007  1
  Na  Na94  1  0.89006937  0.91768223  0.63178606  1
  Na  Na95  1  0.88946987  0.91566280  0.88166852  1
  Mn  Mn96  1  0.24966003  0.16616704  0.12513371  1
  Mn  Mn97  1  -0.00050758  -0.00030678  -0.00015021  1
  Mn  Mn98  1  0.24985136  0.16748985  0.87578680  1
  Mn  Mn99  1  0.75111510  0.33404349  0.37412146  1
  Mn  Mn100  1  0.00086488  0.33383679  0.24965373  1
  Mn  Mn101  1  0.50010570  0.49902537  0.00029314  1
  Mn  Mn102  1  0.00027988  0.16747514  0.74957374  1
  Mn  Mn103  1  0.25021190  0.66652516  0.37498287  1
  Mn  Mn104  1  0.75004735  0.83301992  0.62583672  1
  Mn  Mn105  1  0.49964674  0.33197696  -0.00043639  1
  Mn  Mn106  1  0.49932758  0.00004134  0.50022589  1
  Mn  Mn107  1  0.49961845  0.00090676  0.00012600  1
  Mn  Mn108  1  0.25005484  0.00008209  0.62491528  1
  Mn  Mn109  1  0.74987760  0.66634427  0.87590467  1
  Mn  Mn110  1  -0.00032824  0.83358822  0.50021133  1
  Mn  Mn111  1  -0.00063877  0.16801338  -0.00144637  1
  Mn  Mn112  1  0.24941835  0.66750834  0.62437844  1
  Mn  Mn113  1  0.00032921  0.16686263  0.50036658  1
  Mn  Mn114  1  0.49939753  0.66565688  0.25051182  1
  Mn  Mn115  1  0.00036023  0.50077387  0.50021330  1
  Mn  Mn116  1  0.75056137  0.33395710  0.62410480  1
  Mn  Mn117  1  0.75000413  0.66683960  0.12557188  1
  Mn  Mn118  1  0.75057771  0.16518144  0.62411262  1
  Mn  Mn119  1  0.25002129  0.33323289  0.37507820  1
  Mn  Mn120  1  0.24994088  0.33394985  0.62401797  1
  Mn  Mn121  1  -0.00010737  0.83225707  0.00012365  1
  Mn  Mn122  1  0.75058643  0.16560179  0.37373398  1
  Mn  Mn123  1  0.49876456  0.83348103  0.25027987  1
  Mn  Mn124  1  0.75013357  0.33412660  0.87378593  1
  Mn  Mn125  1  0.49930791  0.83337459  0.00033612  1
  Mn  Mn126  1  0.24892748  -0.00028241  0.87508403  1
  Mn  Mn127  1  0.49941562  0.83324482  0.74969950  1
  Mn  Mn128  1  0.75036311  0.66664779  0.37511840  1
  Mn  Mn129  1  0.49967121  0.66608204  0.74932762  1
  Mn  Mn130  1  -0.00036705  0.66679400  0.75047201  1
  Mn  Mn131  1  0.75045074  0.16545806  0.87434955  1
  Mn  Mn132  1  0.25019800  0.66683010  0.12529399  1
  Mn  Mn133  1  0.24955984  0.50157607  0.87532627  1
  Mn  Mn134  1  0.25029554  0.33453144  0.87434028  1
  Mn  Mn135  1  0.00036809  0.16662347  0.25020316  1
  Mn  Mn136  1  0.50010589  0.16784633  0.49886119  1
  Mn  Mn137  1  -0.00012142  0.50117383  0.24981484  1
  Mn  Mn138  1  0.50005752  0.00120832  0.75027725  1
  Mn  Mn139  1  -0.00080910  -0.00115777  0.24934493  1
  Mn  Mn140  1  0.50026006  0.16673994  0.25025201  1
  Mn  Mn141  1  0.49971944  0.66607450  0.00054090  1
  Mn  Mn142  1  0.75002937  0.16585563  0.12431415  1
  Mn  Mn143  1  0.50066955  0.49892680  0.74971423  1
  Fe  Fe144  1  0.74966712  -0.00091953  0.62504292  1
  Fe  Fe145  1  0.25034674  0.66771954  0.87465801  1
  Fe  Fe146  1  0.00058388  0.33427896  -0.00005097  1
  Fe  Fe147  1  0.74989901  0.83349660  0.37585700  1
  Fe  Fe148  1  -0.00058993  0.66660125  0.00008838  1
  Fe  Fe149  1  0.24966263  0.83348683  0.12539562  1
  Fe  Fe150  1  0.75052089  0.50025643  0.37483911  1
  Fe  Fe151  1  -0.00045583  0.83222782  0.25078055  1
  Fe  Fe152  1  0.49983881  0.33298887  0.74944472  1
  Fe  Fe153  1  -0.00095996  0.83350904  0.74985938  1
  Fe  Fe154  1  0.49968267  -0.00000091  0.25014361  1
  Fe  Fe155  1  0.74948543  -0.00137090  0.87588016  1
  Fe  Fe156  1  0.75049753  0.33366412  0.12401610  1
  Fe  Fe157  1  0.50029429  0.83328593  0.49995224  1
  Fe  Fe158  1  0.74974774  0.66635349  0.62560473  1
  Fe  Fe159  1  0.00029697  0.50046962  -0.00012040  1
  Fe  Fe160  1  0.50108204  0.33336940  0.49993216  1
  Fe  Fe161  1  0.25008193  0.49973258  0.37447615  1
  Fe  Fe162  1  -0.00034399  0.00013699  0.74950436  1
  Fe  Fe163  1  0.74984145  0.50011238  0.87510462  1
  Fe  Fe164  1  -0.00023803  0.66732141  0.50044964  1
  Fe  Fe165  1  0.74959840  0.83311915  0.87610604  1
  Fe  Fe166  1  0.24984888  0.16665710  0.62424850  1
  Fe  Fe167  1  0.75026808  0.50042961  0.62506591  1
  Fe  Fe168  1  0.00061147  0.33456558  0.75046084  1
  Fe  Fe169  1  0.50132263  0.33327304  0.25048394  1
  Fe  Fe170  1  0.00049752  0.33416650  0.50042954  1
  Fe  Fe171  1  0.00054775  0.50018597  0.75075356  1
  Fe  Fe172  1  0.49989889  0.66588371  0.49951240  1
  Fe  Fe173  1  0.75054941  0.49987567  0.12478217  1
  Fe  Fe174  1  0.25065966  0.49992166  0.12469024  1
  Fe  Fe175  1  0.24971960  0.83379387  0.87517113  1
  Fe  Fe176  1  0.25039501  0.33326925  0.12547971  1
  Fe  Fe177  1  0.74964917  -0.00088190  0.37511202  1
  Fe  Fe178  1  0.50015776  0.49903872  0.49988673  1
  Fe  Fe179  1  0.74983160  -0.00101589  0.12543828  1
  Fe  Fe180  1  0.74977850  0.83360979  0.12601174  1
  Fe  Fe181  1  0.25006046  0.50100450  0.62490252  1
  Fe  Fe182  1  0.24976735  -0.00067594  0.37527657  1
  Fe  Fe183  1  0.00050611  0.66646867  0.24984365  1
  Fe  Fe184  1  0.25009861  0.16589165  0.37411487  1
  Fe  Fe185  1  0.00005468  -0.00012184  0.49986904  1
  Fe  Fe186  1  0.24966657  0.83346503  0.37498580  1
  Fe  Fe187  1  0.49987855  0.16689183  -0.00012770  1
  Fe  Fe188  1  0.49985790  0.16741049  0.74913201  1
  Fe  Fe189  1  0.50082453  0.49897649  0.25113501  1
  Fe  Fe190  1  0.24920368  -0.00066995  0.12569085  1
  Fe  Fe191  1  0.24981743  0.83381256  0.62497890  1
  P  P192  1  0.04260138  0.25138936  0.10190301  1
  P  P193  1  0.04330923  0.25039423  0.35368705  1
  P  P194  1  0.04256954  0.25232572  0.60297620  1
  P  P195  1  0.04263991  0.25229606  0.85247539  1
  P  P196  1  0.04161753  0.58420649  0.10167536  1
  P  P197  1  0.04254230  0.58517785  0.35279620  1
  P  P198  1  0.04205730  0.58546447  0.60296728  1
  P  P199  1  0.04204013  0.58212589  0.85352923  1
  P  P200  1  0.04203494  0.91555250  0.10354101  1
  P  P201  1  0.04145557  0.91505114  0.35270991  1
  P  P202  1  0.04200134  0.91854337  0.60297240  1
  P  P203  1  0.04078688  0.91630848  0.85123973  1
  P  P204  1  0.54277411  0.24835870  0.10262800  1
  P  P205  1  0.54350132  0.25158005  0.35256975  1
  P  P206  1  0.54274848  0.25113386  0.60269473  1
  P  P207  1  0.54175061  0.24970757  0.85120341  1
  P  P208  1  0.54280491  0.58217822  0.10428092  1
  P  P209  1  0.54203021  0.58178786  0.35373175  1
  P  P210  1  0.54136006  0.58265341  0.60095227  1
  P  P211  1  0.54308868  0.58282793  0.85294520  1
  P  P212  1  0.54193804  0.91706384  0.10393203  1
  P  P213  1  0.54142514  0.91740455  0.35306617  1
  P  P214  1  0.54225248  0.91558688  0.60231530  1
  P  P215  1  0.54238558  0.91713816  0.85316745  1
  P  P216  1  0.45729837  0.08248479  0.14759772  1
  P  P217  1  0.45719191  0.08349434  0.39626296  1
  P  P218  1  0.45742166  0.08492886  0.64721219  1
  P  P219  1  0.45735271  0.08575233  0.89705664  1
  P  P220  1  0.45928924  0.41573957  0.14907333  1
  P  P221  1  0.45949455  0.41588625  0.39782485  1
  P  P222  1  0.45814127  0.41505459  0.64639699  1
  P  P223  1  0.45696057  0.41576343  0.89646352  1
  P  P224  1  0.45624349  0.74932332  0.14748396  1
  P  P225  1  0.45837270  0.74976403  0.39875376  1
  P  P226  1  0.45739363  0.74962573  0.64524671  1
  P  P227  1  0.45653059  0.74969461  0.89696026  1
  P  P228  1  0.95669121  0.08371275  0.14658219  1
  P  P229  1  0.95791938  0.08189515  0.39761405  1
  P  P230  1  0.95803401  0.08259896  0.64702702  1
  P  P231  1  0.95700819  0.08318459  0.89578323  1
  P  P232  1  0.95825443  0.41759272  0.14580550  1
  P  P233  1  0.95799371  0.41609845  0.39793466  1
  P  P234  1  0.95909823  0.41748694  0.64857315  1
  P  P235  1  0.95897218  0.41703632  0.89801025  1
  P  P236  1  0.95838128  0.74909340  0.14844421  1
  P  P237  1  0.95772976  0.74858455  0.39723464  1
  P  P238  1  0.95729624  0.75148580  0.64765614  1
  P  P239  1  0.95713732  0.74842414  0.89745569  1
  P  P240  1  0.20750483  0.08151092  0.22838574  1
  P  P241  1  0.20874016  0.08355313  0.47651968  1
  P  P242  1  0.20740345  0.08485813  0.72705823  1
  P  P243  1  0.20658341  0.08301651  0.97875922  1
  P  P244  1  0.20920260  0.41703174  0.22682891  1
  P  P245  1  0.20813713  0.41837074  0.47757324  1
  P  P246  1  0.20775030  0.41893415  0.72696670  1
  P  P247  1  0.20790785  0.41719015  0.97910847  1
  P  P248  1  0.20794047  0.75133577  0.22784461  1
  P  P249  1  0.20778308  0.75162420  0.47748983  1
  P  P250  1  0.20758447  0.75195492  0.72793493  1
  P  P251  1  0.20817315  0.75040273  0.97684397  1
  P  P252  1  0.70778628  0.08114257  0.22758822  1
  P  P253  1  0.70790130  0.08158442  0.47726355  1
  P  P254  1  0.70796738  0.08085023  0.72770265  1
  P  P255  1  0.70782865  0.08134200  0.97775893  1
  P  P256  1  0.70936895  0.41685791  0.22633487  1
  P  P257  1  0.70873297  0.41859659  0.47740199  1
  P  P258  1  0.70806761  0.41813679  0.72716805  1
  P  P259  1  0.70808478  0.41780814  0.97789882  1
  P  P260  1  0.70806348  0.75134450  0.22857127  1
  P  P261  1  0.70794673  0.75075444  0.47809634  1
  P  P262  1  0.70741759  0.74822415  0.72812397  1
  P  P263  1  0.70763825  0.75132352  0.97873930  1
  P  P264  1  0.29252146  0.25124997  0.02310511  1
  P  P265  1  0.29208795  0.24879111  0.27217518  1
  P  P266  1  0.29202926  0.24838273  0.52155994  1
  P  P267  1  0.29222435  0.25025348  0.77089067  1
  P  P268  1  0.29238625  0.58316374  0.02239585  1
  P  P269  1  0.29258102  0.58169724  0.27229677  1
  P  P270  1  0.29189225  0.58237966  0.52185187  1
  P  P271  1  0.29207998  0.58541854  0.77197158  1
  P  P272  1  0.29077338  0.91654431  0.02350892  1
  P  P273  1  0.29075699  0.91629402  0.27300166  1
  P  P274  1  0.29194769  0.91543424  0.52190115  1
  P  P275  1  0.29189647  0.91572160  0.77233704  1
  P  P276  1  0.79198500  0.25083443  0.02186433  1
  P  P277  1  0.79307161  0.25003872  0.27047395  1
  P  P278  1  0.79352497  0.24983137  0.52125676  1
  P  P279  1  0.79306363  0.24950893  0.77120180  1
  P  P280  1  0.79209046  0.58232179  0.02253626  1
  P  P281  1  0.79253172  0.58197382  0.27228864  1
  P  P282  1  0.79157196  0.58371068  0.52345997  1
  P  P283  1  0.79213004  0.58209433  0.77238383  1
  P  P284  1  0.79155496  0.91620048  0.02345919  1
  P  P285  1  0.79132623  0.91615869  0.27326708  1
  P  P286  1  0.79194943  0.91734583  0.52244255  1
  P  P287  1  0.79102185  0.91583414  0.77388197  1
  O  O288  1  0.03767329  0.25069089  0.18190335  1
  O  O289  1  0.03807496  0.25077454  0.43364294  1
  O  O290  1  0.03708276  0.25237295  0.68291508  1
  O  O291  1  0.03729335  0.25227968  0.93240379  1
  O  O292  1  0.03660302  0.58456403  0.18166368  1
  O  O293  1  0.03747436  0.58522692  0.43273223  1
  O  O294  1  0.03686186  0.58459520  0.68284818  1
  O  O295  1  0.03649962  0.58222738  0.93338041  1
  O  O296  1  0.03674069  0.91477884  0.18344533  1
  O  O297  1  0.03643533  0.91578139  0.43264707  1
  O  O298  1  0.03670976  0.91860126  0.68281147  1
  O  O299  1  0.03578816  0.91600283  0.93124055  1
  O  O300  1  0.53807494  0.24901078  0.18254227  1
  O  O301  1  0.53847339  0.25189473  0.43250712  1
  O  O302  1  0.53702811  0.25061097  0.68253185  1
  O  O303  1  0.53661817  0.24898006  0.93120064  1
  O  O304  1  0.53768359  0.58154451  0.18426283  1
  O  O305  1  0.53642942  0.58211106  0.43360548  1
  O  O306  1  0.53682038  0.58251803  0.68095095  1
  O  O307  1  0.53808880  0.58279354  0.93293548  1
  O  O308  1  0.53660869  0.91747561  0.18387157  1
  O  O309  1  0.53618654  0.91656891  0.43301558  1
  O  O310  1  0.53732429  0.91595625  0.68227755  1
  O  O311  1  0.53722278  0.91718354  0.93312446  1
  O  O312  1  0.46232920  0.08323994  0.06764198  1
  O  O313  1  0.46251631  0.08286157  0.31636490  1
  O  O314  1  0.46233384  0.08449207  0.56724550  1
  O  O315  1  0.46253578  0.08602177  0.81709412  1
  O  O316  1  0.46365714  0.41552477  0.06904687  1
  O  O317  1  0.46479932  0.41641296  0.31795333  1
  O  O318  1  0.46370228  0.41529781  0.56654479  1
  O  O319  1  0.46202266  0.41553763  0.81651750  1
  O  O320  1  0.46126441  0.74940068  0.06754871  1
  O  O321  1  0.46286844  0.74980328  0.31873013  1
  O  O322  1  0.46312706  0.74973299  0.56535954  1
  O  O323  1  0.46161271  0.74978021  0.81694897  1
  O  O324  1  0.96153979  0.08387734  0.06658053  1
  O  O325  1  0.96307561  0.08214945  0.31766759  1
  O  O326  1  0.96347567  0.08246943  0.56708778  1
  O  O327  1  0.96262577  0.08273624  0.81584290  1
  O  O328  1  0.96367933  0.41780930  0.06593423  1
  O  O329  1  0.96299697  0.41666800  0.31798438  1
  O  O330  1  0.96418016  0.41712202  0.56860584  1
  O  O331  1  0.96428323  0.41711364  0.81809194  1
  O  O332  1  0.96328370  0.74887242  0.06845400  1
  O  O333  1  0.96323608  0.74875137  0.31737765  1
  O  O334  1  0.96243419  0.75104028  0.56775273  1
  O  O335  1  0.96216356  0.74919280  0.81757554  1
  O  O336  1  0.21179544  0.08223461  0.05869395  1
  O  O337  1  0.21318971  0.08194610  0.30822003  1
  O  O338  1  0.21372206  0.08374195  0.55650022  1
  O  O339  1  0.21221308  0.08441011  0.80704506  1
  O  O340  1  0.21345997  0.41668023  0.05899785  1
  O  O341  1  0.21384098  0.41726896  0.30687568  1
  O  O342  1  0.21346765  0.41857068  0.55746970  1
  O  O343  1  0.21292557  0.41859880  0.80691492  1
  O  O344  1  0.21333111  0.75051020  0.05681121  1
  O  O345  1  0.21323813  0.75116454  0.30772922  1
  O  O346  1  0.21298219  0.75164736  0.55740347  1
  O  O347  1  0.21320676  0.75148687  0.80775684  1
  O  O348  1  0.71320897  0.08134972  0.05767714  1
  O  O349  1  0.71315412  0.08114966  0.30751406  1
  O  O350  1  0.71308174  0.08149673  0.55722208  1
  O  O351  1  0.71329206  0.08083631  0.80764056  1
  O  O352  1  0.71388098  0.41725888  0.05774353  1
  O  O353  1  0.71423380  0.41684264  0.30627277  1
  O  O354  1  0.71390241  0.41871296  0.55731985  1
  O  O355  1  0.71296729  0.41822594  0.80714627  1
  O  O356  1  0.71297211  0.75138389  0.05868332  1
  O  O357  1  0.71349314  0.75126124  0.30848128  1
  O  O358  1  0.71319050  0.74994304  0.55800695  1
  O  O359  1  0.71235370  0.74839960  0.80803097  1
  O  O360  1  0.28664368  0.24966738  0.19228434  1
  O  O361  1  0.28672741  0.24822429  0.44163414  1
  O  O362  1  0.28682019  0.24968089  0.69095959  1
  O  O363  1  0.28748894  0.25144308  0.94311728  1
  O  O364  1  0.28739041  0.58169034  0.19235818  1
  O  O365  1  0.28667608  0.58206026  0.44191747  1
  O  O366  1  0.28683726  0.58496402  0.69202901  1
  O  O367  1  0.28709860  0.58422909  0.94248179  1
  O  O368  1  0.28571107  0.91664291  0.19312100  1
  O  O369  1  0.28657124  0.91563452  0.44204932  1
  O  O370  1  0.28687802  0.91596381  0.69238093  1
  O  O371  1  0.28569367  0.91605084  0.94355990  1
  O  O372  1  0.78752111  0.25047873  0.19055702  1
  O  O373  1  0.78848327  0.24990559  0.44126743  1
  O  O374  1  0.78805824  0.24951908  0.69124506  1
  O  O375  1  0.78709119  0.25079968  0.94188413  1
  O  O376  1  0.78730057  0.58210058  0.19239710  1
  O  O377  1  0.78679340  0.58367245  0.44348882  1
  O  O378  1  0.78667522  0.58265965  0.69250921  1
  O  O379  1  0.78658475  0.58231204  0.94266759  1
  O  O380  1  0.78609081  0.91617920  0.19337782  1
  O  O381  1  0.78663825  0.91699991  0.44259427  1
  O  O382  1  0.78621496  0.91595123  0.69393704  1
  O  O383  1  0.78618077  0.91606333  0.94359243  1
  O  O384  1  0.22816577  0.25117319  0.05850879  1
  O  O385  1  0.22796116  0.24850312  0.30823629  1
  O  O386  1  0.22783633  0.24871876  0.55755011  1
  O  O387  1  0.22799344  0.25062573  0.80658578  1
  O  O388  1  0.22817929  0.58237881  0.05832796  1
  O  O389  1  0.22822328  0.58198096  0.30790563  1
  O  O390  1  0.22764612  0.58245182  0.55768701  1
  O  O391  1  0.22787081  0.58609281  0.80790906  1
  O  O392  1  0.22664632  0.91700905  0.05967511  1
  O  O393  1  0.22674793  0.91572718  0.30939951  1
  O  O394  1  0.22781740  0.91559514  0.55816355  1
  O  O395  1  0.22751397  0.91536083  0.80790891  1
  O  O396  1  0.72775191  0.25039119  0.05741354  1
  O  O397  1  0.72888148  0.25004639  0.30620228  1
  O  O398  1  0.72909175  0.24975455  0.55633185  1
  O  O399  1  0.72863189  0.24959214  0.80625365  1
  O  O400  1  0.72798832  0.58225274  0.05869535  1
  O  O401  1  0.72826436  0.58197105  0.30809591  1
  O  O402  1  0.72733633  0.58318621  0.55932714  1
  O  O403  1  0.72797523  0.58179968  0.80859301  1
  O  O404  1  0.72749954  0.91627083  0.06003404  1
  O  O405  1  0.72728932  0.91605533  0.30982755  1
  O  O406  1  0.72776343  0.91727882  0.55851944  1
  O  O407  1  0.72685771  0.91579018  0.80991830  1
  O  O408  1  0.27153254  0.08125584  0.19188943  1
  O  O409  1  0.27279478  0.08364727  0.44037389  1
  O  O410  1  0.27179348  0.08499892  0.69162300  1
  O  O411  1  0.27097114  0.08295364  0.94345167  1
  O  O412  1  0.27343568  0.41730220  0.19102740  1
  O  O413  1  0.27236833  0.41814903  0.44168526  1
  O  O414  1  0.27203697  0.41873895  0.69130745  1
  O  O415  1  0.27201911  0.41769905  0.94309933  1
  O  O416  1  0.27215108  0.75138298  0.19203258  1
  O  O417  1  0.27202825  0.75160807  0.44163074  1
  O  O418  1  0.27161477  0.75200096  0.69139449  1
  O  O419  1  0.27225572  0.75061629  0.94053325  1
  O  O420  1  0.77195538  0.08120718  0.19161856  1
  O  O421  1  0.77216907  0.08126817  0.44149051  1
  O  O422  1  0.77221126  0.08054906  0.69178358  1
  O  O423  1  0.77202227  0.08103427  0.94180060  1
  O  O424  1  0.77348499  0.41720331  0.19027949  1
  O  O425  1  0.77304105  0.41873552  0.44171712  1
  O  O426  1  0.77246154  0.41842521  0.69171722  1
  O  O427  1  0.77214257  0.41844170  0.94136761  1
  O  O428  1  0.77221245  0.75135327  0.19250439  1
  O  O429  1  0.77214862  0.75123097  0.44215663  1
  O  O430  1  0.77176698  0.74814419  0.69255088  1
  O  O431  1  0.77182931  0.75126034  0.94277977  1
  O  O432  1  0.02120647  0.08297901  0.18140804  1
  O  O433  1  0.02223166  0.08196684  0.43319308  1
  O  O434  1  0.02221573  0.08258429  0.68287175  1
  O  O435  1  0.02124526  0.08358909  0.93136761  1
  O  O436  1  0.02241919  0.41797299  0.18168413  1
  O  O437  1  0.02237511  0.41601792  0.43333064  1
  O  O438  1  0.02323652  0.41798474  0.68464429  1
  O  O439  1  0.02295941  0.41703067  0.93448610  1
  O  O440  1  0.02257235  0.74923515  0.18440550  1
  O  O441  1  0.02184866  0.74868116  0.43345833  1
  O  O442  1  0.02153214  0.75183840  0.68339187  1
  O  O443  1  0.02155063  0.74785363  0.93287998  1
  O  O444  1  0.52163074  0.08177439  0.18320643  1
  O  O445  1  0.52150136  0.08346961  0.43159068  1
  O  O446  1  0.52184680  0.08514588  0.68242466  1
  O  O447  1  0.52165817  0.08546141  0.93274957  1
  O  O448  1  0.52368768  0.41610936  0.18437968  1
  O  O449  1  0.52351633  0.41551292  0.43415024  1
  O  O450  1  0.52225108  0.41440191  0.68265743  1
  O  O451  1  0.52140180  0.41562406  0.93156331  1
  O  O452  1  0.52072505  0.74963926  0.18233578  1
  O  O453  1  0.52265961  0.74950864  0.43419894  1
  O  O454  1  0.52154239  0.74965927  0.68120117  1
  O  O455  1  0.52103692  0.74983413  0.93188401  1
  O  O456  1  0.47827082  0.24798750  0.06735813  1
  O  O457  1  0.47908516  0.25176885  0.31724124  1
  O  O458  1  0.47861337  0.25195528  0.56642911  1
  O  O459  1  0.47759822  0.25028092  0.81509674  1
  O  O460  1  0.47840348  0.58236340  0.06904764  1
  O  O461  1  0.47793668  0.58105317  0.31755070  1
  O  O462  1  0.47713657  0.58295091  0.56540264  1
  O  O463  1  0.47861554  0.58241473  0.81801642  1
  O  O464  1  0.47760657  0.91709359  0.06859777  1
  O  O465  1  0.47716317  0.91830954  0.31733915  1
  O  O466  1  0.47781871  0.91516901  0.56716365  1
  O  O467  1  0.47795672  0.91728488  0.81812400  1
  O  O468  1  0.97822361  0.25225965  0.06647686  1
  O  O469  1  0.97894641  0.25039371  0.31840748  1
  O  O470  1  0.97842502  0.25206309  0.56696327  1
  O  O471  1  0.97839782  0.25205108  0.81675836  1
  O  O472  1  0.97745256  0.58415946  0.06567192  1
  O  O473  1  0.97817273  0.58548578  0.31729610  1
  O  O474  1  0.97780054  0.58531395  0.56718166  1
  O  O475  1  0.97796984  0.58161492  0.81724923  1
  O  O476  1  0.97769805  0.91565026  0.06824744  1
  O  O477  1  0.97718585  0.91449386  0.31709934  1
  O  O478  1  0.97779785  0.91860460  0.56695445  1
  O  O479  1  0.97658480  0.91649467  0.81542633  1
  O  O480  1  0.07365434  0.31500952  0.07401665  1
  O  O481  1  0.07465515  0.31360877  0.32504699  1
  O  O482  1  0.07337634  0.31579320  0.57432478  1
  O  O483  1  0.07353249  0.31576513  0.82389694  1
  O  O484  1  0.07263795  0.64770874  0.07316527  1
  O  O485  1  0.07382489  0.64816346  0.32371282  1
  O  O486  1  0.07241460  0.64945339  0.57478247  1
  O  O487  1  0.07287687  0.64595360  0.82544449  1
  O  O488  1  0.07291381  0.97935242  0.07564304  1
  O  O489  1  0.07256697  0.97852505  0.32444503  1
  O  O490  1  0.07304831  0.98177153  0.57371410  1
  O  O491  1  0.07180936  0.98004846  0.82341926  1
  O  O492  1  0.57370593  0.31183445  0.07396894  1
  O  O493  1  0.57463386  0.31468947  0.32344446  1
  O  O494  1  0.57428474  0.31431804  0.57423029  1
  O  O495  1  0.57268420  0.31360998  0.82350148  1
  O  O496  1  0.57369263  0.64606480  0.07652689  1
  O  O497  1  0.57288883  0.64566144  0.32574888  1
  O  O498  1  0.57242627  0.64624670  0.57282589  1
  O  O499  1  0.57377704  0.64650409  0.82462437  1
  O  O500  1  0.57335405  0.98016703  0.07529327  1
  O  O501  1  0.57245940  0.98093532  0.32477185  1
  O  O502  1  0.57304438  0.97944020  0.57446922  1
  O  O503  1  0.57334129  0.98076161  0.82504621  1
  O  O504  1  0.42636219  0.01890751  0.17597339  1
  O  O505  1  0.42561167  0.02056509  0.42507045  1
  O  O506  1  0.42650973  0.02118444  0.67530381  1
  O  O507  1  0.42615179  0.02193039  0.92464499  1
  O  O508  1  0.42891467  0.35178562  0.17746831  1
  O  O509  1  0.42810977  0.35240531  0.42586991  1
  O  O510  1  0.42679824  0.35188900  0.67513009  1
  O  O511  1  0.42569444  0.35252338  0.92513909  1
  O  O512  1  0.42549171  0.68571885  0.17587483  1
  O  O513  1  0.42749297  0.68591149  0.42660750  1
  O  O514  1  0.42622332  0.68603178  0.67341210  1
  O  O515  1  0.42576917  0.68603497  0.92513788  1
  O  O516  1  0.92533798  0.02029225  0.17466153  1
  O  O517  1  0.92729565  0.01813633  0.42583293  1
  O  O518  1  0.92694672  0.01933469  0.67586075  1
  O  O519  1  0.92586648  0.01987705  0.92441168  1
  O  O520  1  0.92728204  0.35398419  0.17406115  1
  O  O521  1  0.92729582  0.35251220  0.42634607  1
  O  O522  1  0.92829399  0.35381310  0.67700057  1
  O  O523  1  0.92793601  0.35337117  0.92631563  1
  O  O524  1  0.92737843  0.68557568  0.17678871  1
  O  O525  1  0.92694722  0.68510536  0.42623153  1
  O  O526  1  0.92618255  0.68801842  0.67590748  1
  O  O527  1  0.92630346  0.68482919  0.92586362  1
  O  O528  1  0.17639361  0.01811488  0.20001224  1
  O  O529  1  0.17839877  0.01933549  0.44860379  1
  O  O530  1  0.17655784  0.02110857  0.69914520  1
  O  O531  1  0.17503490  0.02009052  0.94989769  1
  O  O532  1  0.17894048  0.35279009  0.19898656  1
  O  O533  1  0.17717828  0.35445627  0.45010599  1
  O  O534  1  0.17649156  0.35551720  0.69901737  1
  O  O535  1  0.17682562  0.35391484  0.95032033  1
  O  O536  1  0.17700594  0.68752137  0.20002955  1
  O  O537  1  0.17696928  0.68769554  0.44985066  1
  O  O538  1  0.17619829  0.68852551  0.69972908  1
  O  O539  1  0.17781710  0.68639715  0.94872519  1
  O  O540  1  0.67679317  0.01778099  0.19920889  1
  O  O541  1  0.67667867  0.01838916  0.44868952  1
  O  O542  1  0.67678495  0.01762124  0.69915228  1
  O  O543  1  0.67662309  0.01808547  0.94934553  1
  O  O544  1  0.67918048  0.35279842  0.19782543  1
  O  O545  1  0.67789028  0.35473917  0.44968970  1
  O  O546  1  0.67743580  0.35416160  0.69939983  1
  O  O547  1  0.67713124  0.35410206  0.94970982  1
  O  O548  1  0.67702738  0.68748580  0.20104445  1
  O  O549  1  0.67686681  0.68734487  0.44971400  1
  O  O550  1  0.67685116  0.68468021  0.69923728  1
  O  O551  1  0.67655009  0.68754335  0.95120491  1
  O  O552  1  0.32321034  0.31470265  0.05189913  1
  O  O553  1  0.32333945  0.31216393  0.30046117  1
  O  O554  1  0.32313067  0.31227913  0.54884813  1
  O  O555  1  0.32333566  0.31404315  0.79834559  1
  O  O556  1  0.32333972  0.64659455  0.05088661  1
  O  O557  1  0.32361160  0.64549954  0.29998227  1
  O  O558  1  0.32275825  0.64630982  0.54922946  1
  O  O559  1  0.32298233  0.64892392  0.80034581  1
  O  O560  1  0.32184840  0.98021610  0.05134881  1
  O  O561  1  0.32114213  0.98007018  0.30192292  1
  O  O562  1  0.32331472  0.97898901  0.54982910  1
  O  O563  1  0.32251359  0.97970068  0.80025276  1
  O  O564  1  0.82226455  0.31471136  0.05034641  1
  O  O565  1  0.82469343  0.31310134  0.29883970  1
  O  O566  1  0.82447910  0.31337945  0.54935661  1
  O  O567  1  0.82411248  0.31306900  0.79915826  1
  O  O568  1  0.82297419  0.64623544  0.05010080  1
  O  O569  1  0.82346021  0.64572781  0.30014775  1
  O  O570  1  0.82172206  0.64779011  0.55182229  1
  O  O571  1  0.82327329  0.64555917  0.80078514  1
  O  O572  1  0.82255981  0.97981785  0.05165909  1
  O  O573  1  0.82230306  0.97979159  0.30149027  1
  O  O574  1  0.82262724  0.98087524  0.55118484  1
  O  O575  1  0.82211184  0.97922196  0.80223000  1
  O  O576  1  0.42647924  0.14608702  0.17584663  1
  O  O577  1  0.42655011  0.14750521  0.42379147  1
  O  O578  1  0.42671112  0.14851327  0.67539402  1
  O  O579  1  0.42673366  0.14907219  0.92615982  1
  O  O580  1  0.42837740  0.47927487  0.17730558  1
  O  O581  1  0.42882800  0.47954495  0.42671389  1
  O  O582  1  0.42731716  0.47889838  0.67431401  1
  O  O583  1  0.42617323  0.47939333  0.92478193  1
  O  O584  1  0.42500503  0.81267344  0.17564012  1
  O  O585  1  0.42779901  0.81361296  0.42677303  1
  O  O586  1  0.42604635  0.81288483  0.67371709  1
  O  O587  1  0.42547439  0.81317193  0.92510528  1
  O  O588  1  0.92627600  0.14738812  0.17503873  1
  O  O589  1  0.92672849  0.14546189  0.42534485  1
  O  O590  1  0.92702753  0.14649592  0.67435622  1
  O  O591  1  0.92582361  0.14688842  0.92329301  1
  O  O592  1  0.92677784  0.48076215  0.17436237  1
  O  O593  1  0.92710181  0.47979209  0.42598233  1
  O  O594  1  0.92820609  0.48123981  0.67650797  1
  O  O595  1  0.92800361  0.48058076  0.92645213  1
  O  O596  1  0.92776357  0.81291931  0.17674700  1
  O  O597  1  0.92635214  0.81202378  0.42526887  1
  O  O598  1  0.92660113  0.81517317  0.67601455  1
  O  O599  1  0.92624103  0.81192203  0.92590783  1
  O  O600  1  0.07313563  0.18762482  0.07369823  1
  O  O601  1  0.07406800  0.18661987  0.32567614  1
  O  O602  1  0.07371521  0.18853807  0.57552754  1
  O  O603  1  0.07381280  0.18863543  0.82469087  1
  O  O604  1  0.07230449  0.52036272  0.07376854  1
  O  O605  1  0.07307740  0.52115150  0.32491290  1
  O  O606  1  0.07353190  0.52232601  0.57451297  1
  O  O607  1  0.07336426  0.51901499  0.82472749  1
  O  O608  1  0.07340186  0.85248356  0.07478442  1
  O  O609  1  0.07214846  0.85132485  0.32454423  1
  O  O610  1  0.07300564  0.85483365  0.57502704  1
  O  O611  1  0.07130745  0.85240258  0.82318834  1
  O  O612  1  0.57321748  0.18466181  0.07407852  1
  O  O613  1  0.57412798  0.18758714  0.32494428  1
  O  O614  1  0.57349429  0.18739096  0.57435915  1
  O  O615  1  0.57254856  0.18621994  0.82252069  1
  O  O616  1  0.57394448  0.51904487  0.07547159  1
  O  O617  1  0.57339422  0.51860416  0.32512820  1
  O  O618  1  0.57178598  0.51871966  0.57283703  1
  O  O619  1  0.57427456  0.51947559  0.82470956  1
  O  O620  1  0.57283365  0.85326431  0.07620959  1
  O  O621  1  0.57224760  0.85370274  0.32501517  1
  O  O622  1  0.57315386  0.85215312  0.57380264  1
  O  O623  1  0.57341002  0.85366932  0.82510638  1
  O  O624  1  0.32355483  0.18747570  0.05065406  1
  O  O625  1  0.32287887  0.18497136  0.29996456  1
  O  O626  1  0.32282607  0.18503865  0.55043146  1
  O  O627  1  0.32334485  0.18708191  0.79985112  1
  O  O628  1  0.32344660  0.51950077  0.05035314  1
  O  O629  1  0.32335571  0.51834485  0.30122438  1
  O  O630  1  0.32287026  0.51914886  0.55084920  1
  O  O631  1  0.32307466  0.52174561  0.79993652  1
  O  O632  1  0.32141503  0.85281977  0.05210768  1
  O  O633  1  0.32224542  0.85290958  0.30119802  1
  O  O634  1  0.32268488  0.85200210  0.55076931  1
  O  O635  1  0.32303577  0.85258353  0.80113788  1
  O  O636  1  0.82360668  0.18738452  0.04934694  1
  O  O637  1  0.82394094  0.18619215  0.29829057  1
  O  O638  1  0.82449944  0.18625353  0.54928517  1
  O  O639  1  0.82402605  0.18598033  0.79934720  1
  O  O640  1  0.82329196  0.51909279  0.05103104  1
  O  O641  1  0.82343663  0.51863436  0.30111994  1
  O  O642  1  0.82301338  0.52042902  0.55178411  1
  O  O643  1  0.82313812  0.51863315  0.80087465  1
  O  O644  1  0.82245137  0.85259216  0.05210030  1
  O  O645  1  0.82226183  0.85254823  0.30175967  1
  O  O646  1  0.82331648  0.85395030  0.55078729  1
  O  O647  1  0.82147153  0.85182981  0.80216856  1
  O  O648  1  0.17629449  0.14512738  0.20032222  1
  O  O649  1  0.17737037  0.14677342  0.44807316  1
  O  O650  1  0.17665922  0.14836397  0.69854483  1
  O  O651  1  0.17598384  0.14703578  0.95105829  1
  O  O652  1  0.17790009  0.48031629  0.19829664  1
  O  O653  1  0.17707103  0.48157034  0.44868793  1
  O  O654  1  0.17727806  0.48283210  0.69896398  1
  O  O655  1  0.17643715  0.48065620  0.95119020  1
  O  O656  1  0.17694948  0.81459020  0.19903334  1
  O  O657  1  0.17662650  0.81482206  0.44880748  1
  O  O658  1  0.17670462  0.81547186  0.69938278  1
  O  O659  1  0.17694656  0.81385006  0.94857054  1
  O  O660  1  0.67673989  0.14494341  0.19984828  1
  O  O661  1  0.67716551  0.14554506  0.44944294  1
  O  O662  1  0.67728069  0.14481043  0.69979160  1
  O  O663  1  0.67709180  0.14529649  0.94992141  1
  O  O664  1  0.67794604  0.48022126  0.19826276  1
  O  O665  1  0.67778657  0.48191306  0.44854416  1
  O  O666  1  0.67693713  0.48129006  0.69825081  1
  O  O667  1  0.67675382  0.48115949  0.94966286  1
  O  O668  1  0.67692515  0.81461740  0.20004595  1
  O  O669  1  0.67711735  0.81443946  0.44999031  1
  O  O670  1  0.67624050  0.81171788  0.70002005  1
  O  O671  1  0.67673753  0.81465556  0.94991091  1
