# generated using pymatgen
data_Na2MnFe(PO4)2
_symmetry_space_group_name_H-M   'P 1'
_cell_length_a   22.34073189
_cell_length_b   20.08846589
_cell_length_c   19.45478406
_cell_angle_alpha   89.95868313
_cell_angle_beta   89.97059826
_cell_angle_gamma   89.98620339
_symmetry_Int_Tables_number   1
_chemical_formula_structural   Na2MnFe(PO4)2
_chemical_formula_sum   'Na96 Mn48 Fe48 P96 O384'
_cell_volume   8731.12891147
_cell_formula_units_Z   48
loop_
 _symmetry_equiv_pos_site_id
 _symmetry_equiv_pos_as_xyz
  1  'x, y, z'
loop_
 _atom_site_type_symbol
 _atom_site_label
 _atom_site_symmetry_multiplicity
 _atom_site_fract_x
 _atom_site_fract_y
 _atom_site_fract_z
 _atom_site_occupancy
  Na  Na0  1  0.14026739  0.24940189  0.24391279  1
  Na  Na1  1  0.14057056  0.25092549  0.49339072  1
  Na  Na2  1  0.14035386  0.25198619  0.74368863  1
  Na  Na3  1  0.14049226  0.25096457  0.99371527  1
  Na  Na4  1  0.14021945  0.58213320  0.24347318  1
  Na  Na5  1  0.14023915  0.58384541  0.49349351  1
  Na  Na6  1  0.14099321  0.58353628  0.74240507  1
  Na  Na7  1  0.14061218  0.58328455  0.99280947  1
  Na  Na8  1  0.14075682  0.91654447  0.24356384  1
  Na  Na9  1  0.14086147  0.91713331  0.49421429  1
  Na  Na10  1  0.14055330  0.91619744  0.74392940  1
  Na  Na11  1  0.14058742  0.91751062  0.99427192  1
  Na  Na12  1  0.64007445  0.25071625  0.24387686  1
  Na  Na13  1  0.64011703  0.24951646  0.49365005  1
  Na  Na14  1  0.64060536  0.24852039  0.74462506  1
  Na  Na15  1  0.64029008  0.24902823  0.99487612  1
  Na  Na16  1  0.64045732  0.58504929  0.24311709  1
  Na  Na17  1  0.64004241  0.58390457  0.49397112  1
  Na  Na18  1  0.64024052  0.58491780  0.74368813  1
  Na  Na19  1  0.64034977  0.58373878  0.99392953  1
  Na  Na20  1  0.64019159  0.91657062  0.24229308  1
  Na  Na21  1  0.64090552  0.91660116  0.49375128  1
  Na  Na22  1  0.64081794  0.91571488  0.74382561  1
  Na  Na23  1  0.64059754  0.91473071  0.99333895  1
  Na  Na24  1  0.35933416  0.08414311  0.00701578  1
  Na  Na25  1  0.35949950  0.08383062  0.25806106  1
  Na  Na26  1  0.35952701  0.08433251  0.50681608  1
  Na  Na27  1  0.35959557  0.08321048  0.75658144  1
  Na  Na28  1  0.35958220  0.41669129  0.00720985  1
  Na  Na29  1  0.35904508  0.41522895  0.25633440  1
  Na  Na30  1  0.35903468  0.41788650  0.50592711  1
  Na  Na31  1  0.35934714  0.41705021  0.75579544  1
  Na  Na32  1  0.35986684  0.75055853  0.00622690  1
  Na  Na33  1  0.35999009  0.74847024  0.25644316  1
  Na  Na34  1  0.35912856  0.74948227  0.50591692  1
  Na  Na35  1  0.35975276  0.74877740  0.75637407  1
  Na  Na36  1  0.86015820  0.08153009  0.00727175  1
  Na  Na37  1  0.86033409  0.08348742  0.25616302  1
  Na  Na38  1  0.85974511  0.08314316  0.50600049  1
  Na  Na39  1  0.85978318  0.08135739  0.75699645  1
  Na  Na40  1  0.85972476  0.41710561  0.00670622  1
  Na  Na41  1  0.85876775  0.41750130  0.25553226  1
  Na  Na42  1  0.85903814  0.41715695  0.50588197  1
  Na  Na43  1  0.85968706  0.41711051  0.75618035  1
  Na  Na44  1  0.85925963  0.74923495  0.00557692  1
  Na  Na45  1  0.85995491  0.74981922  0.25536738  1
  Na  Na46  1  0.85946819  0.75030954  0.50639638  1
  Na  Na47  1  0.85956324  0.75058523  0.75559862  1
  Na  Na48  1  0.11002062  0.08400314  0.11977511  1
  Na  Na49  1  0.10981002  0.08413750  0.36876079  1
  Na  Na50  1  0.10953336  0.08318302  0.61949638  1
  Na  Na51  1  0.10954925  0.08485967  0.87000387  1
  Na  Na52  1  0.10961908  0.41539843  0.11784538  1
  Na  Na53  1  0.10970793  0.41647139  0.36808843  1
  Na  Na54  1  0.10995803  0.41625250  0.61763712  1
  Na  Na55  1  0.11022273  0.41799983  0.86751096  1
  Na  Na56  1  0.10989587  0.74926994  0.11850341  1
  Na  Na57  1  0.10983602  0.75056326  0.36872158  1
  Na  Na58  1  0.11042576  0.74970068  0.61843578  1
  Na  Na59  1  0.11010119  0.75148211  0.86778734  1
  Na  Na60  1  0.60954788  0.08282302  0.11880873  1
  Na  Na61  1  0.60945690  0.08445974  0.36838818  1
  Na  Na62  1  0.60979583  0.08202408  0.61910585  1
  Na  Na63  1  0.60973121  0.08239441  0.86942163  1
  Na  Na64  1  0.60927724  0.41647256  0.11879521  1
  Na  Na65  1  0.60908289  0.41820174  0.36863488  1
  Na  Na66  1  0.60937769  0.41597518  0.61897558  1
  Na  Na67  1  0.60939917  0.41736293  0.87057698  1
  Na  Na68  1  0.61010524  0.74886216  0.11809358  1
  Na  Na69  1  0.60985004  0.75040311  0.36750766  1
  Na  Na70  1  0.61035597  0.74867127  0.61822804  1
  Na  Na71  1  0.61028798  0.75085004  0.86778491  1
  Na  Na72  1  0.38957260  0.24965637  0.13255157  1
  Na  Na73  1  0.38973272  0.25140878  0.38185795  1
  Na  Na74  1  0.39016880  0.24959416  0.63099649  1
  Na  Na75  1  0.39013890  0.25126302  0.88242784  1
  Na  Na76  1  0.39005551  0.58276110  0.13164640  1
  Na  Na77  1  0.38994643  0.58353813  0.38096237  1
  Na  Na78  1  0.38954027  0.58239436  0.63138302  1
  Na  Na79  1  0.39029773  0.58362172  0.88138183  1
  Na  Na80  1  0.39112171  0.91496920  0.13199517  1
  Na  Na81  1  0.39053156  0.91707541  0.38087906  1
  Na  Na82  1  0.39031245  0.91549863  0.63140286  1
  Na  Na83  1  0.39041014  0.91649283  0.88056626  1
  Na  Na84  1  0.89028837  0.24800334  0.13161977  1
  Na  Na85  1  0.88984345  0.24890663  0.38066057  1
  Na  Na86  1  0.89059763  0.24866724  0.63085581  1
  Na  Na87  1  0.89102903  0.25020196  0.88180469  1
  Na  Na88  1  0.88999412  0.58323730  0.13091192  1
  Na  Na89  1  0.88975583  0.58471866  0.38038495  1
  Na  Na90  1  0.89011869  0.58378559  0.63099859  1
  Na  Na91  1  0.89042757  0.58451440  0.88070345  1
  Na  Na92  1  0.89084308  0.91673280  0.13107983  1
  Na  Na93  1  0.89083118  0.91715278  0.38109424  1
  Na  Na94  1  0.88993582  0.91593724  0.63230513  1
  Na  Na95  1  0.88997087  0.91771413  0.88174595  1
  Mn  Mn96  1  0.49963442  -0.00120450  0.00032294  1
  Mn  Mn97  1  0.24969585  -0.00034956  0.87561470  1
  Mn  Mn98  1  0.25116458  0.00051240  0.12536559  1
  Mn  Mn99  1  0.75018365  0.33276821  0.87581197  1
  Mn  Mn100  1  0.49966168  0.50042640  0.75034906  1
  Mn  Mn101  1  0.50022436  0.33311949  0.75019631  1
  Mn  Mn102  1  -0.00055001  0.50027300  0.24955586  1
  Mn  Mn103  1  0.00017487  0.50055798  0.74881768  1
  Mn  Mn104  1  0.75003939  0.33322283  0.62510853  1
  Mn  Mn105  1  0.50014836  0.83311931  0.49960009  1
  Mn  Mn106  1  0.74976041  0.50101892  0.87550337  1
  Mn  Mn107  1  0.49919037  0.66581907  0.49891829  1
  Mn  Mn108  1  0.00011614  0.66628330  -0.00070049  1
  Mn  Mn109  1  0.74939202  0.50175993  0.37548350  1
  Mn  Mn110  1  0.49979116  0.66691223  0.00037558  1
  Mn  Mn111  1  0.74916687  0.50146232  0.62567265  1
  Mn  Mn112  1  0.50020188  0.83296400  0.74947363  1
  Mn  Mn113  1  -0.00057221  0.50056892  0.49929375  1
  Mn  Mn114  1  0.49975272  0.33331274  0.50044378  1
  Mn  Mn115  1  0.75075272  0.16456643  0.87461132  1
  Mn  Mn116  1  0.24931821  0.49952318  0.12445979  1
  Mn  Mn117  1  0.50035748  0.00050112  0.49968513  1
  Mn  Mn118  1  0.74916617  0.33333981  0.37482284  1
  Mn  Mn119  1  0.75018720  -0.00054814  0.12493123  1
  Mn  Mn120  1  0.75000424  0.33281436  0.12563246  1
  Mn  Mn121  1  0.24978340  0.66666667  0.87406728  1
  Mn  Mn122  1  -0.00062866  0.33219431  0.49876869  1
  Mn  Mn123  1  0.75040430  0.00047764  0.37407966  1
  Mn  Mn124  1  -0.00092748  0.33231683  0.24900437  1
  Mn  Mn125  1  0.00029468  0.83383369  0.75035231  1
  Mn  Mn126  1  0.00029135  0.83339625  0.25016364  1
  Mn  Mn127  1  0.75044537  0.16524966  0.62513826  1
  Mn  Mn128  1  0.24960826  0.66603650  0.37528878  1
  Mn  Mn129  1  0.75033123  0.83284216  0.37460250  1
  Mn  Mn130  1  0.25008189  0.00001539  0.37538495  1
  Mn  Mn131  1  0.49967051  0.16721848  0.24995551  1
  Mn  Mn132  1  0.00003143  0.83450121  -0.00033907  1
  Mn  Mn133  1  0.49912435  0.16687166  0.00046123  1
  Mn  Mn134  1  0.24960961  0.16851782  0.62606139  1
  Mn  Mn135  1  0.25036997  0.83242601  0.12486121  1
  Mn  Mn136  1  0.25010363  0.16843249  0.87571701  1
  Mn  Mn137  1  0.00075153  0.83274365  0.50048116  1
  Mn  Mn138  1  0.25010473  -0.00016377  0.62544291  1
  Mn  Mn139  1  0.00033232  0.00030681  0.50050681  1
  Mn  Mn140  1  0.49952310  0.49991909  0.24975033  1
  Mn  Mn141  1  -0.00023854  0.33359014  -0.00016286  1
  Mn  Mn142  1  -0.00002100  0.16671107  0.75073074  1
  Mn  Mn143  1  0.50018397  0.16567080  0.75133579  1
  Fe  Fe144  1  -0.00006211  0.66679927  0.49976206  1
  Fe  Fe145  1  0.24935486  0.33349281  0.37499453  1
  Fe  Fe146  1  0.49977088  0.50013201  0.49981374  1
  Fe  Fe147  1  0.74986345  0.16652750  0.37524978  1
  Fe  Fe148  1  0.24987401  0.66623394  0.12472947  1
  Fe  Fe149  1  0.50002627  0.50020917  0.00046822  1
  Fe  Fe150  1  0.74951207  0.50091323  0.12531907  1
  Fe  Fe151  1  0.49963358  0.33368784  0.25068183  1
  Fe  Fe152  1  0.24970353  0.33305372  0.12593419  1
  Fe  Fe153  1  0.49994147  0.33348997  0.00092890  1
  Fe  Fe154  1  0.25051868  0.33455393  0.87481858  1
  Fe  Fe155  1  0.50041160  0.83278292  -0.00021249  1
  Fe  Fe156  1  0.00023190  0.16596523  0.24998860  1
  Fe  Fe157  1  0.00027329  0.50022122  -0.00092608  1
  Fe  Fe158  1  0.00012926  0.16607331  0.50039221  1
  Fe  Fe159  1  0.74988073  -0.00091214  0.62523552  1
  Fe  Fe160  1  0.25038461  0.33459208  0.62443992  1
  Fe  Fe161  1  0.24996456  0.49973509  0.37498449  1
  Fe  Fe162  1  0.25028338  0.83309954  0.62462589  1
  Fe  Fe163  1  0.00062416  0.00097444  0.00111360  1
  Fe  Fe164  1  0.00003821  0.33366982  0.74968405  1
  Fe  Fe165  1  0.25030829  0.49989613  0.87410672  1
  Fe  Fe166  1  0.25017416  0.66663760  0.62484108  1
  Fe  Fe167  1  0.24990008  0.83280126  0.37518460  1
  Fe  Fe168  1  0.24958780  0.49969218  0.62423848  1
  Fe  Fe169  1  0.75033514  0.66757289  0.62486304  1
  Fe  Fe170  1  0.74989917  0.16580193  0.12463738  1
  Fe  Fe171  1  0.74966658  -0.00168161  0.87566241  1
  Fe  Fe172  1  0.50038003  0.66637385  0.74983320  1
  Fe  Fe173  1  0.74971742  0.66753019  0.37426687  1
  Fe  Fe174  1  0.49986377  -0.00042470  0.74996216  1
  Fe  Fe175  1  0.49993477  -0.00003117  0.24991696  1
  Fe  Fe176  1  0.49975372  0.16661924  0.50015411  1
  Fe  Fe177  1  0.75015083  0.83249523  0.87430640  1
  Fe  Fe178  1  0.50028083  0.83300173  0.24954014  1
  Fe  Fe179  1  0.50031094  0.66640529  0.24957975  1
  Fe  Fe180  1  0.00004247  0.00060747  0.75079984  1
  Fe  Fe181  1  0.25033472  0.83291245  0.87481658  1
  Fe  Fe182  1  0.00057736  0.66699232  0.74995952  1
  Fe  Fe183  1  0.25012609  0.16752205  0.12579373  1
  Fe  Fe184  1  -0.00000106  0.16646330  0.00043327  1
  Fe  Fe185  1  0.25003719  0.16750813  0.37578398  1
  Fe  Fe186  1  0.75012082  0.66699138  0.87487888  1
  Fe  Fe187  1  0.00062058  0.00047713  0.25061609  1
  Fe  Fe188  1  0.00039971  0.66663213  0.24935066  1
  Fe  Fe189  1  0.75006694  0.66737715  0.12417359  1
  Fe  Fe190  1  0.74991468  0.83333166  0.62507751  1
  Fe  Fe191  1  0.75042209  0.83274278  0.12399327  1
  P  P192  1  0.04192134  0.24826169  0.10255983  1
  P  P193  1  0.04184354  0.24817245  0.35232466  1
  P  P194  1  0.04229541  0.24872575  0.60249111  1
  P  P195  1  0.04231368  0.25181983  0.85265414  1
  P  P196  1  0.04252950  0.58196756  0.10201568  1
  P  P197  1  0.04208773  0.58508549  0.35229732  1
  P  P198  1  0.04210111  0.58471784  0.60231615  1
  P  P199  1  0.04279138  0.58444030  0.85194924  1
  P  P200  1  0.04259584  0.91839424  0.10323997  1
  P  P201  1  0.04288398  0.91799471  0.35260819  1
  P  P202  1  0.04299480  0.91677164  0.60395732  1
  P  P203  1  0.04233834  0.91907989  0.85328074  1
  P  P204  1  0.54161065  0.25114716  0.10332524  1
  P  P205  1  0.54192613  0.25145111  0.35298520  1
  P  P206  1  0.54239007  0.24804873  0.60271379  1
  P  P207  1  0.54278590  0.25050049  0.85434713  1
  P  P208  1  0.54180780  0.58223574  0.10288928  1
  P  P209  1  0.54210812  0.58419364  0.35223870  1
  P  P210  1  0.54188420  0.58225514  0.60249281  1
  P  P211  1  0.54228820  0.58469283  0.85298581  1
  P  P212  1  0.54243072  0.91407797  0.10301051  1
  P  P213  1  0.54166568  0.91685948  0.35099619  1
  P  P214  1  0.54277242  0.91645147  0.60316824  1
  P  P215  1  0.54242104  0.91735040  0.85237780  1
  P  P216  1  0.45744876  0.08180399  0.14799689  1
  P  P217  1  0.45737787  0.08503757  0.39730855  1
  P  P218  1  0.45759244  0.08207126  0.64761795  1
  P  P219  1  0.45667542  0.08263490  0.89711840  1
  P  P220  1  0.45746898  0.41491570  0.14731260  1
  P  P221  1  0.45751560  0.41804071  0.39749970  1
  P  P222  1  0.45726680  0.41670485  0.64667627  1
  P  P223  1  0.45838882  0.41708283  0.89918211  1
  P  P224  1  0.45869322  0.74954140  0.14808635  1
  P  P225  1  0.45731516  0.75037450  0.39551942  1
  P  P226  1  0.45778859  0.74803455  0.64731468  1
  P  P227  1  0.45799754  0.75103425  0.89726676  1
  P  P228  1  0.95888248  0.08288522  0.14812736  1
  P  P229  1  0.95806555  0.08444580  0.39721752  1
  P  P230  1  0.95760746  0.08236550  0.64798769  1
  P  P231  1  0.95850316  0.08343127  0.89882327  1
  P  P232  1  0.95685329  0.41668495  0.14585903  1
  P  P233  1  0.95651684  0.41671561  0.39622768  1
  P  P234  1  0.95756138  0.41535286  0.64696394  1
  P  P235  1  0.95781247  0.41828074  0.89672240  1
  P  P236  1  0.95820314  0.74901999  0.14720651  1
  P  P237  1  0.95794163  0.74901967  0.39720602  1
  P  P238  1  0.95841857  0.74859985  0.64741846  1
  P  P239  1  0.95768837  0.75044207  0.89625611  1
  P  P240  1  0.20868284  0.08493090  0.22828659  1
  P  P241  1  0.20788366  0.08493918  0.47782669  1
  P  P242  1  0.20727124  0.08392871  0.72873856  1
  P  P243  1  0.20782215  0.08449531  0.97909000  1
  P  P244  1  0.20718168  0.41503270  0.22792803  1
  P  P245  1  0.20825478  0.41705701  0.47684596  1
  P  P246  1  0.20844961  0.41720668  0.72654560  1
  P  P247  1  0.20865838  0.41699721  0.97641957  1
  P  P248  1  0.20778990  0.74804482  0.22764476  1
  P  P249  1  0.20784852  0.75103587  0.47815176  1
  P  P250  1  0.20902760  0.75017957  0.72652516  1
  P  P251  1  0.20763164  0.75070691  0.97721142  1
  P  P252  1  0.70781115  0.08461411  0.22752492  1
  P  P253  1  0.70765897  0.08358994  0.47756860  1
  P  P254  1  0.70791613  0.08048515  0.72809758  1
  P  P255  1  0.70788816  0.08112721  0.97797337  1
  P  P256  1  0.70735596  0.41842473  0.22740388  1
  P  P257  1  0.70656188  0.41725802  0.47822544  1
  P  P258  1  0.70694547  0.41698420  0.72862618  1
  P  P259  1  0.70770389  0.41701466  0.97935835  1
  P  P260  1  0.70867092  0.75012440  0.22608123  1
  P  P261  1  0.70759472  0.74898345  0.47772276  1
  P  P262  1  0.70882888  0.75022469  0.72697108  1
  P  P263  1  0.70861556  0.74970330  0.97667655  1
  P  P264  1  0.29131081  0.25115965  0.02382835  1
  P  P265  1  0.29114110  0.25008827  0.27345258  1
  P  P266  1  0.29186031  0.25213033  0.52201735  1
  P  P267  1  0.29251977  0.25262079  0.77253807  1
  P  P268  1  0.29219839  0.58436276  0.02208213  1
  P  P269  1  0.29185392  0.58151700  0.27220314  1
  P  P270  1  0.29096433  0.58306379  0.52304660  1
  P  P271  1  0.29217576  0.58194017  0.77143223  1
  P  P272  1  0.29330324  0.91632644  0.02175701  1
  P  P273  1  0.29221921  0.91495787  0.27293167  1
  P  P274  1  0.29244172  0.91542813  0.52224754  1
  P  P275  1  0.29199023  0.91491970  0.77226475  1
  P  P276  1  0.79258420  0.24805589  0.02282806  1
  P  P277  1  0.79161966  0.24837545  0.27219738  1
  P  P278  1  0.79260879  0.24934335  0.52145255  1
  P  P279  1  0.79328366  0.24916780  0.77210783  1
  P  P280  1  0.79127359  0.58402002  0.02308548  1
  P  P281  1  0.79170122  0.58538157  0.27135528  1
  P  P282  1  0.79200905  0.58560208  0.52227615  1
  P  P283  1  0.79217441  0.58552619  0.77223039  1
  P  P284  1  0.79231880  0.91469338  0.02163426  1
  P  P285  1  0.79305793  0.91623460  0.27119111  1
  P  P286  1  0.79176982  0.91647438  0.52348619  1
  P  P287  1  0.79142682  0.91611990  0.77293466  1
  O  O288  1  0.03654449  0.24803866  0.18246126  1
  O  O289  1  0.03675364  0.24803832  0.43225424  1
  O  O290  1  0.03697550  0.24971548  0.68240747  1
  O  O291  1  0.03707805  0.25152431  0.93249689  1
  O  O292  1  0.03737268  0.58254005  0.18192939  1
  O  O293  1  0.03678519  0.58525423  0.43224415  1
  O  O294  1  0.03712052  0.58471703  0.68226714  1
  O  O295  1  0.03755697  0.58337297  0.93186377  1
  O  O296  1  0.03733777  0.91810835  0.18317850  1
  O  O297  1  0.03773830  0.91742650  0.43255515  1
  O  O298  1  0.03783368  0.91718322  0.68388556  1
  O  O299  1  0.03707956  0.91903880  0.93324093  1
  O  O300  1  0.53641482  0.25133078  0.18326146  1
  O  O301  1  0.53659606  0.25044573  0.43287940  1
  O  O302  1  0.53751561  0.24818902  0.68270550  1
  O  O303  1  0.53725224  0.25111763  0.93427749  1
  O  O304  1  0.53659239  0.58307329  0.18277016  1
  O  O305  1  0.53677615  0.58335961  0.43213990  1
  O  O306  1  0.53674174  0.58322479  0.68244145  1
  O  O307  1  0.53704746  0.58438282  0.93287486  1
  O  O308  1  0.53726716  0.91367409  0.18284986  1
  O  O309  1  0.53692023  0.91705517  0.43098437  1
  O  O310  1  0.53748077  0.91687098  0.68306276  1
  O  O311  1  0.53728221  0.91654115  0.93227523  1
  O  O312  1  0.46234741  0.08203381  0.06807149  1
  O  O313  1  0.46220284  0.08489553  0.31740928  1
  O  O314  1  0.46294232  0.08298933  0.56767575  1
  O  O315  1  0.46190557  0.08230472  0.81717212  1
  O  O316  1  0.46283271  0.41490013  0.06749348  1
  O  O317  1  0.46275982  0.41742458  0.31759568  1
  O  O318  1  0.46247818  0.41722484  0.56678125  1
  O  O319  1  0.46354737  0.41709125  0.81923547  1
  O  O320  1  0.46368032  0.75008308  0.06811506  1
  O  O321  1  0.46295697  0.75033104  0.31565714  1
  O  O322  1  0.46253185  0.74839609  0.56735763  1
  O  O323  1  0.46313874  0.75035903  0.81738156  1
  O  O324  1  0.96401116  0.08295110  0.06824852  1
  O  O325  1  0.96357963  0.08405926  0.31735839  1
  O  O326  1  0.96282483  0.08307475  0.56810561  1
  O  O327  1  0.96342373  0.08319595  0.81887435  1
  O  O328  1  0.96221303  0.41731604  0.06592047  1
  O  O329  1  0.96158793  0.41678393  0.31626523  1
  O  O330  1  0.96244526  0.41560398  0.56698220  1
  O  O331  1  0.96303754  0.41766225  0.81677575  1
  O  O332  1  0.96336181  0.74947069  0.06730625  1
  O  O333  1  0.96314180  0.74922630  0.31724934  1
  O  O334  1  0.96374444  0.74847645  0.56747423  1
  O  O335  1  0.96308975  0.75010717  0.81635743  1
  O  O336  1  0.21358576  0.08490649  0.05898598  1
  O  O337  1  0.21385494  0.08499656  0.30822818  1
  O  O338  1  0.21303771  0.08460818  0.55775428  1
  O  O339  1  0.21247491  0.08389112  0.80866204  1
  O  O340  1  0.21307353  0.41692715  0.05633384  1
  O  O341  1  0.21226957  0.41517845  0.30773303  1
  O  O342  1  0.21361059  0.41716001  0.55669006  1
  O  O343  1  0.21368769  0.41733967  0.80638750  1
  O  O344  1  0.21285583  0.74972241  0.05710725  1
  O  O345  1  0.21283668  0.74851745  0.30756223  1
  O  O346  1  0.21337002  0.75093984  0.55798288  1
  O  O347  1  0.21375845  0.75021669  0.80649180  1
  O  O348  1  0.71300402  0.08192989  0.05792093  1
  O  O349  1  0.71294005  0.08490269  0.30745525  1
  O  O350  1  0.71281459  0.08245503  0.55748730  1
  O  O351  1  0.71316747  0.08018624  0.80803459  1
  O  O352  1  0.71314432  0.41757924  0.05927274  1
  O  O353  1  0.71225490  0.41842065  0.30737309  1
  O  O354  1  0.71166391  0.41719293  0.55816719  1
  O  O355  1  0.71233582  0.41703032  0.80859693  1
  O  O356  1  0.71383938  0.74983846  0.05652768  1
  O  O357  1  0.71360856  0.74985151  0.30601635  1
  O  O358  1  0.71280104  0.74924865  0.55756003  1
  O  O359  1  0.71373979  0.75040616  0.80682404  1
  O  O360  1  0.28611157  0.24963267  0.19357157  1
  O  O361  1  0.28624118  0.25166081  0.44218524  1
  O  O362  1  0.28730430  0.25282543  0.69262804  1
  O  O363  1  0.28681293  0.25178861  0.94387579  1
  O  O364  1  0.28673621  0.58206081  0.19231920  1
  O  O365  1  0.28607670  0.58294558  0.44311795  1
  O  O366  1  0.28685930  0.58202059  0.69160668  1
  O  O367  1  0.28734195  0.58417268  0.94216472  1
  O  O368  1  0.28715195  0.91529413  0.19300380  1
  O  O369  1  0.28691040  0.91551247  0.44234546  1
  O  O370  1  0.28660441  0.91497629  0.69233229  1
  O  O371  1  0.28799417  0.91596542  0.94184516  1
  O  O372  1  0.78617921  0.24811129  0.19227591  1
  O  O373  1  0.78715014  0.24911551  0.44151296  1
  O  O374  1  0.78809562  0.24916457  0.69215726  1
  O  O375  1  0.78764189  0.24823001  0.94288315  1
  O  O376  1  0.78605588  0.58469169  0.19151579  1
  O  O377  1  0.78673148  0.58580044  0.44234071  1
  O  O378  1  0.78692697  0.58558553  0.69231068  1
  O  O379  1  0.78643899  0.58418211  0.94312783  1
  O  O380  1  0.78815247  0.91593186  0.19129343  1
  O  O381  1  0.78714495  0.91631670  0.44351430  1
  O  O382  1  0.78630525  0.91644739  0.69305591  1
  O  O383  1  0.78671976  0.91510657  0.94180984  1
  O  O384  1  0.22704892  0.25062807  0.05957446  1
  O  O385  1  0.22704059  0.25001680  0.30974831  1
  O  O386  1  0.22777746  0.25278050  0.55836297  1
  O  O387  1  0.22822738  0.25289916  0.80828233  1
  O  O388  1  0.22782088  0.58465975  0.05765513  1
  O  O389  1  0.22762703  0.58129105  0.30807397  1
  O  O390  1  0.22690685  0.58298872  0.55915707  1
  O  O391  1  0.22801531  0.58183189  0.80755600  1
  O  O392  1  0.22899185  0.91673912  0.05714177  1
  O  O393  1  0.22793242  0.91522600  0.30857153  1
  O  O394  1  0.22824339  0.91537730  0.55824095  1
  O  O395  1  0.22780055  0.91472141  0.80830985  1
  O  O396  1  0.72817430  0.24812642  0.05820980  1
  O  O397  1  0.72743414  0.24825523  0.30822355  1
  O  O398  1  0.72834303  0.24913046  0.55702882  1
  O  O399  1  0.72885257  0.24880585  0.80720042  1
  O  O400  1  0.72710477  0.58457281  0.05903664  1
  O  O401  1  0.72759945  0.58603863  0.30776906  1
  O  O402  1  0.72774162  0.58591376  0.55809551  1
  O  O403  1  0.72788761  0.58551923  0.80799398  1
  O  O404  1  0.72823664  0.91462647  0.05799735  1
  O  O405  1  0.72864866  0.91647332  0.30634847  1
  O  O406  1  0.72750035  0.91686393  0.55916589  1
  O  O407  1  0.72739125  0.91592541  0.80940684  1
  O  O408  1  0.27291344  0.08519992  0.19247396  1
  O  O409  1  0.27214084  0.08483883  0.44212604  1
  O  O410  1  0.27159753  0.08410009  0.69341749  1
  O  O411  1  0.27193556  0.08413526  0.94321046  1
  O  O412  1  0.27140480  0.41516333  0.19194402  1
  O  O413  1  0.27224476  0.41676073  0.44023339  1
  O  O414  1  0.27254804  0.41724529  0.69011155  1
  O  O415  1  0.27299079  0.41679014  0.94072309  1
  O  O416  1  0.27213941  0.74771751  0.19202950  1
  O  O417  1  0.27192012  0.75096974  0.44178482  1
  O  O418  1  0.27315217  0.75040689  0.69056512  1
  O  O419  1  0.27194252  0.75110548  0.94147329  1
  O  O420  1  0.77214887  0.08439669  0.19189947  1
  O  O421  1  0.77202511  0.08441819  0.44196119  1
  O  O422  1  0.77218248  0.08046680  0.69228349  1
  O  O423  1  0.77221525  0.08027995  0.94242461  1
  O  O424  1  0.77166485  0.41798472  0.19201200  1
  O  O425  1  0.77092351  0.41727301  0.44299982  1
  O  O426  1  0.77131364  0.41737348  0.69333866  1
  O  O427  1  0.77190967  0.41715177  0.94362028  1
  O  O428  1  0.77284201  0.75002075  0.18996306  1
  O  O429  1  0.77188420  0.74842759  0.44174353  1
  O  O430  1  0.77288474  0.74996418  0.69063209  1
  O  O431  1  0.77266126  0.74938710  0.94019668  1
  O  O432  1  0.02294570  0.08294023  0.18449755  1
  O  O433  1  0.02221521  0.08482227  0.43339202  1
  O  O434  1  0.02189277  0.08210136  0.68371375  1
  O  O435  1  0.02271072  0.08385764  0.93472593  1
  O  O436  1  0.02114417  0.41633772  0.18123496  1
  O  O437  1  0.02096607  0.41667380  0.43115179  1
  O  O438  1  0.02198958  0.41555390  0.68218950  1
  O  O439  1  0.02209635  0.41833348  0.93247798  1
  O  O440  1  0.02245107  0.74901029  0.18288582  1
  O  O441  1  0.02228227  0.74877563  0.43278141  1
  O  O442  1  0.02262755  0.74891164  0.68328937  1
  O  O443  1  0.02194404  0.75059910  0.93168386  1
  O  O444  1  0.52185098  0.08225864  0.18321609  1
  O  O445  1  0.52182795  0.08529181  0.43260712  1
  O  O446  1  0.52186531  0.08132750  0.68346922  1
  O  O447  1  0.52099910  0.08299281  0.93242244  1
  O  O448  1  0.52163141  0.41496059  0.18343643  1
  O  O449  1  0.52172811  0.41823435  0.43331302  1
  O  O450  1  0.52158826  0.41683914  0.68203993  1
  O  O451  1  0.52251626  0.41714995  0.93521685  1
  O  O452  1  0.52290577  0.74937360  0.18394098  1
  O  O453  1  0.52153555  0.74975790  0.43124089  1
  O  O454  1  0.52222074  0.74809464  0.68255372  1
  O  O455  1  0.52230453  0.75102410  0.93288337  1
  O  O456  1  0.47731292  0.25127539  0.06775550  1
  O  O457  1  0.47763845  0.25178329  0.31725296  1
  O  O458  1  0.47799108  0.24828320  0.56736769  1
  O  O459  1  0.47847034  0.24994670  0.81894189  1
  O  O460  1  0.47760247  0.58196123  0.06709419  1
  O  O461  1  0.47784248  0.58481117  0.31656772  1
  O  O462  1  0.47754774  0.58130162  0.56684812  1
  O  O463  1  0.47798445  0.58518661  0.81731079  1
  O  O464  1  0.47817593  0.91385742  0.06711831  1
  O  O465  1  0.47742936  0.91652435  0.31537592  1
  O  O466  1  0.47844918  0.91665480  0.56781590  1
  O  O467  1  0.47817645  0.91763755  0.81657121  1
  O  O468  1  0.97773578  0.24842602  0.06671706  1
  O  O469  1  0.97758301  0.24792657  0.31659430  1
  O  O470  1  0.97801876  0.24791737  0.56665951  1
  O  O471  1  0.97807250  0.25182786  0.81687277  1
  O  O472  1  0.97819080  0.58139254  0.06642383  1
  O  O473  1  0.97782203  0.58527279  0.31656787  1
  O  O474  1  0.97775418  0.58474027  0.56682478  1
  O  O475  1  0.97847374  0.58504813  0.81635551  1
  O  O476  1  0.97835790  0.91854475  0.06743526  1
  O  O477  1  0.97857324  0.91816701  0.31710835  1
  O  O478  1  0.97867194  0.91641991  0.56866017  1
  O  O479  1  0.97809205  0.91870069  0.81749155  1
  O  O480  1  0.07299924  0.31207372  0.07498350  1
  O  O481  1  0.07244631  0.31221734  0.32453030  1
  O  O482  1  0.07316034  0.31219410  0.57376697  1
  O  O483  1  0.07281477  0.31545264  0.82376698  1
  O  O484  1  0.07351396  0.64558767  0.07387902  1
  O  O485  1  0.07317480  0.64825516  0.32328533  1
  O  O486  1  0.07302869  0.64800242  0.57351427  1
  O  O487  1  0.07363930  0.64824098  0.82404734  1
  O  O488  1  0.07358123  0.98183805  0.07483564  1
  O  O489  1  0.07361238  0.98169223  0.32454473  1
  O  O490  1  0.07418305  0.98005187  0.57542219  1
  O  O491  1  0.07297600  0.98261702  0.82467475  1
  O  O492  1  0.57277956  0.31429372  0.07452437  1
  O  O493  1  0.57255033  0.31534972  0.32507634  1
  O  O494  1  0.57357206  0.31165752  0.57491649  1
  O  O495  1  0.57386825  0.31375181  0.82555483  1
  O  O496  1  0.57314469  0.64552812  0.07456625  1
  O  O497  1  0.57299792  0.64780438  0.32393381  1
  O  O498  1  0.57265193  0.64581635  0.57394891  1
  O  O499  1  0.57302302  0.64822742  0.82419720  1
  O  O500  1  0.57327948  0.97807297  0.07539699  1
  O  O501  1  0.57189727  0.98102320  0.32281534  1
  O  O502  1  0.57425175  0.97944953  0.57440933  1
  O  O503  1  0.57296903  0.98113574  0.82416517  1
  O  O504  1  0.42743416  0.01779963  0.17652206  1
  O  O505  1  0.42642673  0.02132716  0.42529431  1
  O  O506  1  0.42676207  0.01829991  0.67563301  1
  O  O507  1  0.42552776  0.01934828  0.92554994  1
  O  O508  1  0.42667465  0.35165946  0.17669051  1
  O  O509  1  0.42620078  0.35469643  0.42567117  1
  O  O510  1  0.42665600  0.35279469  0.67464939  1
  O  O511  1  0.42748383  0.35342226  0.92723014  1
  O  O512  1  0.42807482  0.68544263  0.17577180  1
  O  O513  1  0.42555492  0.68718220  0.42376528  1
  O  O514  1  0.42741863  0.68431202  0.67588056  1
  O  O515  1  0.42649812  0.68781167  0.92566810  1
  O  O516  1  0.92802389  0.01927015  0.17674030  1
  O  O517  1  0.92703195  0.02070972  0.42534424  1
  O  O518  1  0.92706796  0.01856068  0.67633734  1
  O  O519  1  0.92775738  0.01988938  0.92744313  1
  O  O520  1  0.92578384  0.35289933  0.17350376  1
  O  O521  1  0.92543875  0.35318041  0.42415911  1
  O  O522  1  0.92717655  0.35168202  0.67565314  1
  O  O523  1  0.92634101  0.35500654  0.92496822  1
  O  O524  1  0.92770952  0.68518745  0.17532008  1
  O  O525  1  0.92692266  0.68579266  0.42602598  1
  O  O526  1  0.92764979  0.68522677  0.67622566  1
  O  O527  1  0.92643232  0.68712017  0.92459690  1
  O  O528  1  0.17795860  0.02092703  0.20073704  1
  O  O529  1  0.17668658  0.02132751  0.45012493  1
  O  O530  1  0.17633788  0.02041346  0.70064918  1
  O  O531  1  0.17651063  0.02092984  0.95149288  1
  O  O532  1  0.17655557  0.35151367  0.19890782  1
  O  O533  1  0.17689485  0.35367437  0.44863532  1
  O  O534  1  0.17762941  0.35360206  0.69803923  1
  O  O535  1  0.17762254  0.35358020  0.94797337  1
  O  O536  1  0.17723760  0.68439580  0.19908738  1
  O  O537  1  0.17654567  0.68747859  0.45031336  1
  O  O538  1  0.17889232  0.68597218  0.69828898  1
  O  O539  1  0.17641489  0.68745847  0.94863339  1
  O  O540  1  0.67690425  0.02069409  0.20004326  1
  O  O541  1  0.67685435  0.02011512  0.44879527  1
  O  O542  1  0.67692558  0.01739034  0.69908035  1
  O  O543  1  0.67679486  0.01756362  0.95003272  1
  O  O544  1  0.67600904  0.35480124  0.20005676  1
  O  O545  1  0.67549685  0.35381195  0.45006693  1
  O  O546  1  0.67611728  0.35332266  0.70068552  1
  O  O547  1  0.67697017  0.35306027  0.95182178  1
  O  O548  1  0.67744227  0.68683729  0.19768961  1
  O  O549  1  0.67635229  0.68597596  0.44864593  1
  O  O550  1  0.67758429  0.68686268  0.69861000  1
  O  O551  1  0.67745141  0.68619769  0.94841739  1
  O  O552  1  0.32181996  0.31472262  0.05279078  1
  O  O553  1  0.32186777  0.31391868  0.30153924  1
  O  O554  1  0.32314586  0.31547106  0.55029437  1
  O  O555  1  0.32366742  0.31573721  0.80139487  1
  O  O556  1  0.32278822  0.64794583  0.05084282  1
  O  O557  1  0.32308194  0.64484853  0.30046484  1
  O  O558  1  0.32140075  0.64711100  0.55117010  1
  O  O559  1  0.32336285  0.64547901  0.79951010  1
  O  O560  1  0.32451994  0.97980179  0.04981981  1
  O  O561  1  0.32349663  0.97853756  0.30050374  1
  O  O562  1  0.32339117  0.97929338  0.54989378  1
  O  O563  1  0.32284826  0.97880216  0.79985193  1
  O  O564  1  0.82368745  0.31163404  0.05063791  1
  O  O565  1  0.82238914  0.31255515  0.29929128  1
  O  O566  1  0.82344137  0.31316830  0.54924273  1
  O  O567  1  0.82401210  0.31277248  0.80029754  1
  O  O568  1  0.82280971  0.64730390  0.05114064  1
  O  O569  1  0.82287693  0.64876218  0.29961036  1
  O  O570  1  0.82325861  0.64861332  0.55115524  1
  O  O571  1  0.82308976  0.64881454  0.80094878  1
  O  O572  1  0.82362060  0.97807953  0.04989480  1
  O  O573  1  0.82398742  0.97983596  0.29939491  1
  O  O574  1  0.82286499  0.97994853  0.55156831  1
  O  O575  1  0.82233677  0.97950831  0.80186134  1
  O  O576  1  0.42592768  0.14516658  0.17571300  1
  O  O577  1  0.42677121  0.14853140  0.42626865  1
  O  O578  1  0.42649823  0.14550897  0.67597980  1
  O  O579  1  0.42550674  0.14626122  0.92510841  1
  O  O580  1  0.42617918  0.47861143  0.17498894  1
  O  O581  1  0.42694930  0.48187809  0.42564074  1
  O  O582  1  0.42579603  0.47970125  0.67538906  1
  O  O583  1  0.42779892  0.48107394  0.92702788  1
  O  O584  1  0.42755016  0.81279754  0.17674017  1
  O  O585  1  0.42655314  0.81390818  0.42417303  1
  O  O586  1  0.42667116  0.81158261  0.67524606  1
  O  O587  1  0.42759789  0.81483649  0.92567595  1
  O  O588  1  0.92786310  0.14649775  0.17641441  1
  O  O589  1  0.92699114  0.14770428  0.42595027  1
  O  O590  1  0.92633404  0.14565094  0.67638322  1
  O  O591  1  0.92777999  0.14732892  0.92685057  1
  O  O592  1  0.92555341  0.47980050  0.17452409  1
  O  O593  1  0.92555414  0.48027221  0.42438311  1
  O  O594  1  0.92633049  0.47900806  0.67460400  1
  O  O595  1  0.92736101  0.48217425  0.92493904  1
  O  O596  1  0.92700488  0.81254263  0.17508179  1
  O  O597  1  0.92716524  0.81293488  0.42514841  1
  O  O598  1  0.92721709  0.81237562  0.67491415  1
  O  O599  1  0.92661969  0.81403687  0.92418772  1
  O  O600  1  0.07282117  0.18497478  0.07375006  1
  O  O601  1  0.07308697  0.18507587  0.32353742  1
  O  O602  1  0.07318669  0.18496298  0.57470391  1
  O  O603  1  0.07366322  0.18828240  0.82493417  1
  O  O604  1  0.07337636  0.51842427  0.07351494  1
  O  O605  1  0.07288215  0.52106176  0.32483007  1
  O  O606  1  0.07288459  0.52079039  0.57452402  1
  O  O607  1  0.07386099  0.52111656  0.82331534  1
  O  O608  1  0.07353038  0.85464549  0.07521045  1
  O  O609  1  0.07396229  0.85443854  0.32459315  1
  O  O610  1  0.07410209  0.85322581  0.57585575  1
  O  O611  1  0.07358654  0.85542918  0.82554503  1
  O  O612  1  0.57240655  0.18713435  0.07575528  1
  O  O613  1  0.57321994  0.18823129  0.32441401  1
  O  O614  1  0.57275590  0.18433949  0.57415234  1
  O  O615  1  0.57407492  0.18683095  0.82681557  1
  O  O616  1  0.57235151  0.51841066  0.07477825  1
  O  O617  1  0.57320453  0.52073575  0.32405241  1
  O  O618  1  0.57287024  0.51866987  0.57440410  1
  O  O619  1  0.57334340  0.52106683  0.82511887  1
  O  O620  1  0.57338120  0.85096975  0.07348225  1
  O  O621  1  0.57293732  0.85341501  0.32302487  1
  O  O622  1  0.57346672  0.85255502  0.57530699  1
  O  O623  1  0.57364328  0.85393213  0.82412315  1
  O  O624  1  0.32227375  0.18737601  0.05184427  1
  O  O625  1  0.32234515  0.18676693  0.30232015  1
  O  O626  1  0.32273639  0.18842810  0.55033105  1
  O  O627  1  0.32327412  0.18864264  0.80024048  1
  O  O628  1  0.32314011  0.52076250  0.05023517  1
  O  O629  1  0.32248167  0.51778121  0.30061983  1
  O  O630  1  0.32225872  0.51972412  0.55131813  1
  O  O631  1  0.32306934  0.51859028  0.80052229  1
  O  O632  1  0.32435830  0.85295485  0.05030883  1
  O  O633  1  0.32258908  0.85111122  0.30113500  1
  O  O634  1  0.32354322  0.85210865  0.55079300  1
  O  O635  1  0.32302401  0.85151710  0.80077685  1
  O  O636  1  0.82309443  0.18428735  0.05116049  1
  O  O637  1  0.82281190  0.18525603  0.30105107  1
  O  O638  1  0.82411184  0.18618914  0.54986897  1
  O  O639  1  0.82450524  0.18562740  0.79998966  1
  O  O640  1  0.82140201  0.51994229  0.05155501  1
  O  O641  1  0.82264207  0.52174410  0.29978106  1
  O  O642  1  0.82266622  0.52149476  0.54986806  1
  O  O643  1  0.82318018  0.52172754  0.80002199  1
  O  O644  1  0.82323210  0.85110728  0.05001293  1
  O  O645  1  0.82420917  0.85301095  0.29991591  1
  O  O646  1  0.82200293  0.85245858  0.55195873  1
  O  O647  1  0.82241240  0.85236268  0.80106560  1
  O  O648  1  0.17748996  0.14811797  0.19950027  1
  O  O649  1  0.17724827  0.14861607  0.44955288  1
  O  O650  1  0.17616069  0.14755300  0.70093779  1
  O  O651  1  0.17661192  0.14784277  0.95073419  1
  O  O652  1  0.17584889  0.47840719  0.19953040  1
  O  O653  1  0.17760758  0.48091040  0.44843265  1
  O  O654  1  0.17736132  0.48068108  0.69787782  1
  O  O655  1  0.17843797  0.48097489  0.94773951  1
  O  O656  1  0.17660872  0.81157122  0.19955563  1
  O  O657  1  0.17707029  0.81453406  0.44927733  1
  O  O658  1  0.17756907  0.81342770  0.69831587  1
  O  O659  1  0.17698304  0.81456713  0.94916954  1
  O  O660  1  0.67681944  0.14779023  0.19845213  1
  O  O661  1  0.67669167  0.14722623  0.44954347  1
  O  O662  1  0.67703336  0.14451267  0.70066267  1
  O  O663  1  0.67702985  0.14474181  0.94964577  1
  O  O664  1  0.67700208  0.48219858  0.19881010  1
  O  O665  1  0.67559989  0.48086555  0.45020120  1
  O  O666  1  0.67568306  0.48050632  0.70076187  1
  O  O667  1  0.67615468  0.48012148  0.95089412  1
  O  O668  1  0.67825237  0.81411347  0.19790787  1
  O  O669  1  0.67691077  0.81290186  0.44945904  1
  O  O670  1  0.67835098  0.81405609  0.69814363  1
  O  O671  1  0.67790971  0.81335199  0.94798846  1
