# generated using pymatgen
data_Na2MnFe(PO4)2
_symmetry_space_group_name_H-M   'P 1'
_cell_length_a   22.34127410
_cell_length_b   20.09446785
_cell_length_c   19.44960346
_cell_angle_alpha   90.00433128
_cell_angle_beta   90.01583940
_cell_angle_gamma   89.98680179
_symmetry_Int_Tables_number   1
_chemical_formula_structural   Na2MnFe(PO4)2
_chemical_formula_sum   'Na96 Mn48 Fe48 P96 O384'
_cell_volume   8731.62686190
_cell_formula_units_Z   48
loop_
 _symmetry_equiv_pos_site_id
 _symmetry_equiv_pos_as_xyz
  1  'x, y, z'
loop_
 _atom_site_type_symbol
 _atom_site_label
 _atom_site_symmetry_multiplicity
 _atom_site_fract_x
 _atom_site_fract_y
 _atom_site_fract_z
 _atom_site_occupancy
  Na  Na0  1  0.14004926  0.24884127  0.24347661  1
  Na  Na1  1  0.13995044  0.24932281  0.49399136  1
  Na  Na2  1  0.13992779  0.24948588  0.74274207  1
  Na  Na3  1  0.14069060  0.25035663  0.99358970  1
  Na  Na4  1  0.14044560  0.58370799  0.24272870  1
  Na  Na5  1  0.14056954  0.58464228  0.49458328  1
  Na  Na6  1  0.14048803  0.58257470  0.74419941  1
  Na  Na7  1  0.13998027  0.58355680  0.99203101  1
  Na  Na8  1  0.14049827  0.91751222  0.24348957  1
  Na  Na9  1  0.14025251  0.91763396  0.49427247  1
  Na  Na10  1  0.14019775  0.91534701  0.74348702  1
  Na  Na11  1  0.13987811  0.91748440  0.99378611  1
  Na  Na12  1  0.64049113  0.24949598  0.24238129  1
  Na  Na13  1  0.64043088  0.24981181  0.49464020  1
  Na  Na14  1  0.64005981  0.25094074  0.74455904  1
  Na  Na15  1  0.64053365  0.25022467  0.99409295  1
  Na  Na16  1  0.64044646  0.58355450  0.24225281  1
  Na  Na17  1  0.64033545  0.58324037  0.49433119  1
  Na  Na18  1  0.64049865  0.58406967  0.74358809  1
  Na  Na19  1  0.64019580  0.58327035  0.99313916  1
  Na  Na20  1  0.64016919  0.91664582  0.24129746  1
  Na  Na21  1  0.64059252  0.91624166  0.49432889  1
  Na  Na22  1  0.64036138  0.91673580  0.74423627  1
  Na  Na23  1  0.63965602  0.91675906  0.99493214  1
  Na  Na24  1  0.35933770  0.08309681  0.00811600  1
  Na  Na25  1  0.35965480  0.08236245  0.25540091  1
  Na  Na26  1  0.35984853  0.08381558  0.50615711  1
  Na  Na27  1  0.35975411  0.08310159  0.75752189  1
  Na  Na28  1  0.35942222  0.41624697  0.00620695  1
  Na  Na29  1  0.35962063  0.41602508  0.25532003  1
  Na  Na30  1  0.35968049  0.41836556  0.50596310  1
  Na  Na31  1  0.35908440  0.41634584  0.75624442  1
  Na  Na32  1  0.36007999  0.75103153  0.00713886  1
  Na  Na33  1  0.35996448  0.75150003  0.25584011  1
  Na  Na34  1  0.35959567  0.75161216  0.50538938  1
  Na  Na35  1  0.36005058  0.74860544  0.75721288  1
  Na  Na36  1  0.85978475  0.08338386  0.00735392  1
  Na  Na37  1  0.85966064  0.08365063  0.25578494  1
  Na  Na38  1  0.86012931  0.08228922  0.50722870  1
  Na  Na39  1  0.86028523  0.08406197  0.75639235  1
  Na  Na40  1  0.85959871  0.41713717  0.00578619  1
  Na  Na41  1  0.85981403  0.41608987  0.25502525  1
  Na  Na42  1  0.85973165  0.41553268  0.50733357  1
  Na  Na43  1  0.85961781  0.41662883  0.75644830  1
  Na  Na44  1  0.85990588  0.75041686  0.00688553  1
  Na  Na45  1  0.85983310  0.75044726  0.25502168  1
  Na  Na46  1  0.85942340  0.74886184  0.50746220  1
  Na  Na47  1  0.86006165  0.74891001  0.75621474  1
  Na  Na48  1  0.10998285  0.08371621  0.11862153  1
  Na  Na49  1  0.10963964  0.08195607  0.36943582  1
  Na  Na50  1  0.10955610  0.08318391  0.61879721  1
  Na  Na51  1  0.10907148  0.08274253  0.86824873  1
  Na  Na52  1  0.10960642  0.41697079  0.11703115  1
  Na  Na53  1  0.10925138  0.41496267  0.36919785  1
  Na  Na54  1  0.10976340  0.41459195  0.61890873  1
  Na  Na55  1  0.11004717  0.41650486  0.86748071  1
  Na  Na56  1  0.10952039  0.75149742  0.11803125  1
  Na  Na57  1  0.10966648  0.75060131  0.36888719  1
  Na  Na58  1  0.10981149  0.75045822  0.61942537  1
  Na  Na59  1  0.10935200  0.75051625  0.86818165  1
  Na  Na60  1  0.60939883  0.08200830  0.11783545  1
  Na  Na61  1  0.60971929  0.08347250  0.36795727  1
  Na  Na62  1  0.60944272  0.08442095  0.61960170  1
  Na  Na63  1  0.60939928  0.08364597  0.87068283  1
  Na  Na64  1  0.60953388  0.41562949  0.11740754  1
  Na  Na65  1  0.60963554  0.41811471  0.36859889  1
  Na  Na66  1  0.60967907  0.41744184  0.61935004  1
  Na  Na67  1  0.60984085  0.41759772  0.86848367  1
  Na  Na68  1  0.60928415  0.75009824  0.11794923  1
  Na  Na69  1  0.60980349  0.75071188  0.36784293  1
  Na  Na70  1  0.61006489  0.74868543  0.61874743  1
  Na  Na71  1  0.60965164  0.75037729  0.86991784  1
  Na  Na72  1  0.38995069  0.24879974  0.13136645  1
  Na  Na73  1  0.39056132  0.25154105  0.38009661  1
  Na  Na74  1  0.39022350  0.25066793  0.63173129  1
  Na  Na75  1  0.38998935  0.24987093  0.88237624  1
  Na  Na76  1  0.39074437  0.58328930  0.13004575  1
  Na  Na77  1  0.39067280  0.58466269  0.37995649  1
  Na  Na78  1  0.39014730  0.58371519  0.63113078  1
  Na  Na79  1  0.39060596  0.58427678  0.88171162  1
  Na  Na80  1  0.38979193  0.91565811  0.13242721  1
  Na  Na81  1  0.38989113  0.91724131  0.38020342  1
  Na  Na82  1  0.39031618  0.91704050  0.63185915  1
  Na  Na83  1  0.39063846  0.91612535  0.88318869  1
  Na  Na84  1  0.89004085  0.25018664  0.13132860  1
  Na  Na85  1  0.89061618  0.24831938  0.38125725  1
  Na  Na86  1  0.89072244  0.24832158  0.63169959  1
  Na  Na87  1  0.89023220  0.25041276  0.88116933  1
  Na  Na88  1  0.89065535  0.58454531  0.13025772  1
  Na  Na89  1  0.89053577  0.58215930  0.38136656  1
  Na  Na90  1  0.89013057  0.58282464  0.63279965  1
  Na  Na91  1  0.89038103  0.58332092  0.88113862  1
  Na  Na92  1  0.89012050  0.91785002  0.13192257  1
  Na  Na93  1  0.89010259  0.91650225  0.38073035  1
  Na  Na94  1  0.89106383  0.91656222  0.63231006  1
  Na  Na95  1  0.89053172  0.91585643  0.88086100  1
  Mn  Mn96  1  0.74967006  0.16786952  0.87625971  1
  Mn  Mn97  1  0.74975849  0.83288674  0.37457867  1
  Mn  Mn98  1  0.74977733  -0.00041191  0.37501560  1
  Mn  Mn99  1  0.50038418  0.33492475  0.50054605  1
  Mn  Mn100  1  0.50016704  0.83366153  0.49969040  1
  Mn  Mn101  1  0.75028824  0.49974976  0.37465738  1
  Mn  Mn102  1  0.75001527  0.66645673  0.37504387  1
  Mn  Mn103  1  0.24984852  -0.00097531  0.87606969  1
  Mn  Mn104  1  0.50053823  0.83287299  0.75135435  1
  Mn  Mn105  1  0.00011613  0.16616128  -0.00071938  1
  Mn  Mn106  1  -0.00061706  0.83383554  0.50050844  1
  Mn  Mn107  1  0.50012721  0.00030775  0.50014983  1
  Mn  Mn108  1  0.75044870  0.00042077  0.87518469  1
  Mn  Mn109  1  -0.00007755  0.83386550  -0.00084506  1
  Mn  Mn110  1  0.50007846  0.16635650  0.24998126  1
  Mn  Mn111  1  0.25030362  0.16647825  0.62518208  1
  Mn  Mn112  1  0.00081878  0.66734384  0.25017286  1
  Mn  Mn113  1  0.75020841  0.33268396  0.37558449  1
  Mn  Mn114  1  0.24934635  0.16682594  0.87530256  1
  Mn  Mn115  1  0.75006442  0.83323671  0.87537049  1
  Mn  Mn116  1  0.49950883  0.66652820  0.49889979  1
  Mn  Mn117  1  0.74973053  0.33344376  0.62535348  1
  Mn  Mn118  1  0.25003276  0.66792828  0.12410002  1
  Mn  Mn119  1  0.24994789  0.66675608  0.87523001  1
  Mn  Mn120  1  0.49988593  0.33278130  -0.00051883  1
  Mn  Mn121  1  -0.00026271  0.00035446  0.25043954  1
  Mn  Mn122  1  0.50035268  0.00099851  0.75166688  1
  Mn  Mn123  1  0.49965319  0.50117060  0.74999698  1
  Mn  Mn124  1  -0.00024469  0.33208758  0.24948012  1
  Mn  Mn125  1  0.00058442  0.49819331  0.50116877  1
  Mn  Mn126  1  0.25070892  0.16594526  0.37449186  1
  Mn  Mn127  1  0.00052916  0.33381394  -0.00011042  1
  Mn  Mn128  1  0.00011384  0.49949699  0.74986662  1
  Mn  Mn129  1  0.49978054  0.16762912  0.49934553  1
  Mn  Mn130  1  0.74997231  0.00011600  0.62525218  1
  Mn  Mn131  1  0.25061298  0.83336965  0.62501684  1
  Mn  Mn132  1  0.49943080  0.33324533  0.75017665  1
  Mn  Mn133  1  0.24962529  0.50009848  0.62489553  1
  Mn  Mn134  1  0.25015989  0.66847595  0.37391582  1
  Mn  Mn135  1  -0.00021400  0.66634566  0.50021141  1
  Mn  Mn136  1  0.24946855  0.50073302  0.37497915  1
  Mn  Mn137  1  0.49998985  0.50020977  0.24917637  1
  Mn  Mn138  1  0.74992159  0.16601305  0.37426020  1
  Mn  Mn139  1  0.24999719  0.49938035  0.12394234  1
  Mn  Mn140  1  0.74937056  0.66644257  0.87496561  1
  Mn  Mn141  1  0.24976719  0.33321106  0.37453034  1
  Mn  Mn142  1  0.74984858  0.49979288  0.12452412  1
  Mn  Mn143  1  0.00035833  0.49983769  0.24993225  1
  Fe  Fe144  1  0.75023651  0.33393027  0.87479654  1
  Fe  Fe145  1  0.25013247  0.66691558  0.62532615  1
  Fe  Fe146  1  0.49959625  -0.00038539  0.24917469  1
  Fe  Fe147  1  0.25068214  -0.00035425  0.62519891  1
  Fe  Fe148  1  0.75023026  0.83331782  0.12498275  1
  Fe  Fe149  1  -0.00004775  0.50082282  -0.00105129  1
  Fe  Fe150  1  0.74982387  0.33364066  0.12461392  1
  Fe  Fe151  1  0.49978721  0.83292562  0.00095928  1
  Fe  Fe152  1  0.00001928  -0.00010057  0.74964725  1
  Fe  Fe153  1  0.75007840  0.16711459  0.12460924  1
  Fe  Fe154  1  0.24936274  0.83470936  0.37571109  1
  Fe  Fe155  1  0.74964643  0.49992959  0.62560821  1
  Fe  Fe156  1  -0.00050495  -0.00006786  -0.00061288  1
  Fe  Fe157  1  0.24944471  0.33331030  0.12454999  1
  Fe  Fe158  1  -0.00012907  0.66713517  -0.00029461  1
  Fe  Fe159  1  -0.00010917  0.16570851  0.50066591  1
  Fe  Fe160  1  0.49992842  0.16601180  0.00091540  1
  Fe  Fe161  1  0.75032702  0.83299432  0.62496258  1
  Fe  Fe162  1  0.50016924  0.50019777  -0.00008697  1
  Fe  Fe163  1  0.50016678  0.66684848  0.00052696  1
  Fe  Fe164  1  0.75044720  0.50014197  0.87507718  1
  Fe  Fe165  1  0.00031980  -0.00015135  0.50032372  1
  Fe  Fe166  1  0.50057068  0.66672986  0.24923926  1
  Fe  Fe167  1  -0.00007920  0.83379903  0.24981362  1
  Fe  Fe168  1  0.50034335  0.66692361  0.75044354  1
  Fe  Fe169  1  0.49949849  -0.00043936  0.00052401  1
  Fe  Fe170  1  0.49983888  0.50095886  0.49925435  1
  Fe  Fe171  1  0.24999854  0.33336886  0.62515517  1
  Fe  Fe172  1  0.75030754  0.66645651  0.12440870  1
  Fe  Fe173  1  0.00012022  0.16570376  0.25066674  1
  Fe  Fe174  1  0.50000660  0.83346917  0.24909751  1
  Fe  Fe175  1  0.24982367  0.16675446  0.12506160  1
  Fe  Fe176  1  0.24987884  0.00017862  0.37469032  1
  Fe  Fe177  1  0.50025336  0.33356032  0.24931358  1
  Fe  Fe178  1  0.75031102  0.66613062  0.62537163  1
  Fe  Fe179  1  0.24935801  0.83422458  0.12568605  1
  Fe  Fe180  1  -0.00010187  0.33231550  0.74928224  1
  Fe  Fe181  1  0.00039995  0.66645008  0.75055834  1
  Fe  Fe182  1  0.24998945  -0.00031756  0.12552491  1
  Fe  Fe183  1  0.25034825  0.83346721  0.87527232  1
  Fe  Fe184  1  -0.00013117  0.16620124  0.74951129  1
  Fe  Fe185  1  0.75011287  0.00005439  0.12487677  1
  Fe  Fe186  1  0.74990560  0.16683391  0.62576397  1
  Fe  Fe187  1  0.49979394  0.16671643  0.75090863  1
  Fe  Fe188  1  -0.00016245  0.83325810  0.75053505  1
  Fe  Fe189  1  0.25012963  0.33274769  0.87504569  1
  Fe  Fe190  1  -0.00037098  0.33137444  0.49972191  1
  Fe  Fe191  1  0.25000639  0.49927432  0.87421495  1
  P  P192  1  0.04280127  0.24939820  0.10295040  1
  P  P193  1  0.04199411  0.24764982  0.35327620  1
  P  P194  1  0.04135856  0.24902772  0.60232279  1
  P  P195  1  0.04112547  0.24948475  0.85098314  1
  P  P196  1  0.04175853  0.58399287  0.10092883  1
  P  P197  1  0.04336081  0.58285978  0.35333085  1
  P  P198  1  0.04259945  0.58312520  0.60415970  1
  P  P199  1  0.04213857  0.58431738  0.85309585  1
  P  P200  1  0.04166933  0.91829074  0.10227578  1
  P  P201  1  0.04216239  0.91574124  0.35265363  1
  P  P202  1  0.04197613  0.91823334  0.60355550  1
  P  P203  1  0.04124685  0.91706908  0.85153396  1
  P  P204  1  0.54189660  0.24856747  0.10274482  1
  P  P205  1  0.54256694  0.25194792  0.35198962  1
  P  P206  1  0.54265374  0.25015718  0.60375513  1
  P  P207  1  0.54173983  0.24854766  0.85336830  1
  P  P208  1  0.54169575  0.58343404  0.10163730  1
  P  P209  1  0.54266399  0.58465376  0.35179308  1
  P  P210  1  0.54201325  0.58273532  0.60233206  1
  P  P211  1  0.54226022  0.58517146  0.85339339  1
  P  P212  1  0.54041761  0.91632844  0.10253840  1
  P  P213  1  0.54185323  0.91700453  0.35066822  1
  P  P214  1  0.54294693  0.91674259  0.60366078  1
  P  P215  1  0.54285374  0.91691566  0.85508505  1
  P  P216  1  0.45804123  0.08160474  0.14656631  1
  P  P217  1  0.45731234  0.08325921  0.39604322  1
  P  P218  1  0.45743129  0.08484721  0.64837775  1
  P  P219  1  0.45802098  0.08349874  0.89920132  1
  P  P220  1  0.45795957  0.41546480  0.14655803  1
  P  P221  1  0.45777835  0.41855327  0.39686809  1
  P  P222  1  0.45690175  0.41757875  0.64673202  1
  P  P223  1  0.45782245  0.41831058  0.89766832  1
  P  P224  1  0.45876308  0.74952859  0.14752225  1
  P  P225  1  0.45745002  0.75091475  0.39530158  1
  P  P226  1  0.45788149  0.74890105  0.64807861  1
  P  P227  1  0.45883366  0.74975670  0.89900098  1
  P  P228  1  0.95779589  0.08458030  0.14742378  1
  P  P229  1  0.95835903  0.08278734  0.39868770  1
  P  P230  1  0.95886580  0.08289338  0.64774362  1
  P  P231  1  0.95749334  0.08170319  0.89649288  1
  P  P232  1  0.95769938  0.41725835  0.14598393  1
  P  P233  1  0.95761843  0.41430926  0.39793758  1
  P  P234  1  0.95791141  0.41417859  0.64723639  1
  P  P235  1  0.95834097  0.41760953  0.89685328  1
  P  P236  1  0.95830321  0.75153018  0.14695094  1
  P  P237  1  0.95696241  0.75037646  0.39683622  1
  P  P238  1  0.95900950  0.74984751  0.64900927  1
  P  P239  1  0.95778565  0.74872570  0.89678163  1
  P  P240  1  0.20882990  0.08282779  0.22666240  1
  P  P241  1  0.20838950  0.08200218  0.47768789  1
  P  P242  1  0.20798588  0.08146401  0.72749204  1
  P  P243  1  0.20734819  0.08345410  0.97931678  1
  P  P244  1  0.20704807  0.41543849  0.22672723  1
  P  P245  1  0.20708819  0.41668887  0.47846403  1
  P  P246  1  0.20777168  0.41514693  0.72814099  1
  P  P247  1  0.20853538  0.41595180  0.97623812  1
  P  P248  1  0.20752267  0.75216147  0.22762376  1
  P  P249  1  0.20759551  0.75182705  0.47780660  1
  P  P250  1  0.20814423  0.74884959  0.72785952  1
  P  P251  1  0.20774946  0.75212846  0.97768352  1
  P  P252  1  0.70842898  0.08349264  0.22579191  1
  P  P253  1  0.70724133  0.08328908  0.47859140  1
  P  P254  1  0.70769551  0.08492040  0.72806593  1
  P  P255  1  0.70779835  0.08346194  0.97958712  1
  P  P256  1  0.70729958  0.41547692  0.22696470  1
  P  P257  1  0.70731851  0.41690529  0.47879396  1
  P  P258  1  0.70778956  0.41820468  0.72856893  1
  P  P259  1  0.70863028  0.41648549  0.97671798  1
  P  P260  1  0.70841981  0.74978932  0.22584024  1
  P  P261  1  0.70745500  0.74965673  0.47894183  1
  P  P262  1  0.70877980  0.74999233  0.72652242  1
  P  P263  1  0.70770567  0.75000498  0.97931161  1
  P  P264  1  0.29120874  0.25035236  0.02319088  1
  P  P265  1  0.29250136  0.24956958  0.27052366  1
  P  P266  1  0.29242069  0.25128527  0.52267401  1
  P  P267  1  0.29190054  0.25095812  0.77243206  1
  P  P268  1  0.29226609  0.58330611  0.02084805  1
  P  P269  1  0.29273439  0.58375373  0.27117093  1
  P  P270  1  0.29219620  0.58547869  0.52245275  1
  P  P271  1  0.29207447  0.58206122  0.77241168  1
  P  P272  1  0.29113617  0.91633047  0.02376720  1
  P  P273  1  0.29099497  0.91680935  0.27291010  1
  P  P274  1  0.29248654  0.91826456  0.52200577  1
  P  P275  1  0.29283864  0.91525277  0.77294939  1
  P  P276  1  0.79171686  0.25088239  0.02317872  1
  P  P277  1  0.79255925  0.24998354  0.27076670  1
  P  P278  1  0.79253482  0.24831524  0.52318518  1
  P  P279  1  0.79195746  0.25126673  0.77265137  1
  P  P280  1  0.79204033  0.58396551  0.02189760  1
  P  P281  1  0.79295499  0.58356852  0.27105029  1
  P  P282  1  0.79172602  0.58255459  0.52398315  1
  P  P283  1  0.79201657  0.58215111  0.77210908  1
  P  P284  1  0.79159258  0.91659108  0.02366876  1
  P  P285  1  0.79219998  0.91658053  0.27060535  1
  P  P286  1  0.79273543  0.91515053  0.52290584  1
  P  P287  1  0.79263776  0.91631962  0.77153861  1
  O  O288  1  0.03773848  0.24904983  0.18286434  1
  O  O289  1  0.03641283  0.24778460  0.43316646  1
  O  O290  1  0.03610185  0.24931335  0.68222367  1
  O  O291  1  0.03657345  0.24968941  0.93094792  1
  O  O292  1  0.03725368  0.58384962  0.18097953  1
  O  O293  1  0.03823100  0.58261324  0.43329496  1
  O  O294  1  0.03714367  0.58361038  0.68411597  1
  O  O295  1  0.03664893  0.58424005  0.93299607  1
  O  O296  1  0.03664467  0.91769254  0.18218585  1
  O  O297  1  0.03711487  0.91635391  0.43257408  1
  O  O298  1  0.03657978  0.91805439  0.68339821  1
  O  O299  1  0.03622511  0.91718478  0.93148599  1
  O  O300  1  0.53670478  0.24964653  0.18263825  1
  O  O301  1  0.53733505  0.25195143  0.43196356  1
  O  O302  1  0.53738322  0.24954381  0.68373455  1
  O  O303  1  0.53634073  0.24824764  0.93330950  1
  O  O304  1  0.53649610  0.58370023  0.18155975  1
  O  O305  1  0.53719409  0.58385352  0.43169699  1
  O  O306  1  0.53704194  0.58352042  0.68227928  1
  O  O307  1  0.53693090  0.58485882  0.93326651  1
  O  O308  1  0.53545520  0.91602795  0.18245848  1
  O  O309  1  0.53714224  0.91708421  0.43072527  1
  O  O310  1  0.53810031  0.91675932  0.68366072  1
  O  O311  1  0.53729115  0.91691929  0.93498107  1
  O  O312  1  0.46360517  0.08161135  0.06669903  1
  O  O313  1  0.46250359  0.08260943  0.31607098  1
  O  O314  1  0.46239838  0.08456270  0.56837751  1
  O  O315  1  0.46329632  0.08411457  0.81922580  1
  O  O316  1  0.46329336  0.41597750  0.06664299  1
  O  O317  1  0.46300735  0.41768610  0.31691755  1
  O  O318  1  0.46199673  0.41812655  0.56678320  1
  O  O319  1  0.46286161  0.41804008  0.81773813  1
  O  O320  1  0.46394462  0.74961912  0.06760574  1
  O  O321  1  0.46281817  0.75096384  0.31542155  1
  O  O322  1  0.46269052  0.74923278  0.56809197  1
  O  O323  1  0.46363489  0.74979318  0.81906409  1
  O  O324  1  0.96249823  0.08395436  0.06751115  1
  O  O325  1  0.96351006  0.08326530  0.31872244  1
  O  O326  1  0.96397776  0.08324982  0.56786434  1
  O  O327  1  0.96284471  0.08167294  0.81664967  1
  O  O328  1  0.96321917  0.41808790  0.06604838  1
  O  O329  1  0.96279310  0.41477660  0.31795272  1
  O  O330  1  0.96313280  0.41361328  0.56732293  1
  O  O331  1  0.96322849  0.41707270  0.81692658  1
  O  O332  1  0.96344948  0.75089161  0.06698885  1
  O  O333  1  0.96234074  0.75084007  0.31689325  1
  O  O334  1  0.96350700  0.75017916  0.56902289  1
  O  O335  1  0.96321105  0.74866906  0.81693517  1
  O  O336  1  0.21275481  0.08386417  0.05917090  1
  O  O337  1  0.21386831  0.08229731  0.30661783  1
  O  O338  1  0.21358202  0.08197161  0.55760542  1
  O  O339  1  0.21277052  0.08183448  0.80749121  1
  O  O340  1  0.21340286  0.41558268  0.05623233  1
  O  O341  1  0.21198287  0.41594857  0.30669584  1
  O  O342  1  0.21247745  0.41627479  0.55842389  1
  O  O343  1  0.21344029  0.41530472  0.80801718  1
  O  O344  1  0.21290507  0.75233878  0.05764597  1
  O  O345  1  0.21268096  0.75246418  0.30756251  1
  O  O346  1  0.21311282  0.75088392  0.55770320  1
  O  O347  1  0.21310570  0.74949913  0.80777692  1
  O  O348  1  0.71333637  0.08349898  0.05944966  1
  O  O349  1  0.71292819  0.08299901  0.30586524  1
  O  O350  1  0.71231731  0.08380544  0.55855018  1
  O  O351  1  0.71283759  0.08480877  0.80804591  1
  O  O352  1  0.71364548  0.41607886  0.05670271  1
  O  O353  1  0.71236247  0.41587920  0.30693515  1
  O  O354  1  0.71240676  0.41729754  0.55877693  1
  O  O355  1  0.71353924  0.41812103  0.80843273  1
  O  O356  1  0.71314914  0.74985465  0.05915976  1
  O  O357  1  0.71321226  0.74971678  0.30588712  1
  O  O358  1  0.71271018  0.74973443  0.55884615  1
  O  O359  1  0.71335776  0.74959776  0.80657036  1
  O  O360  1  0.28691949  0.24947978  0.19062700  1
  O  O361  1  0.28730933  0.25067894  0.44269012  1
  O  O362  1  0.28687345  0.25097451  0.69248158  1
  O  O363  1  0.28621453  0.25069581  0.94318246  1
  O  O364  1  0.28762763  0.58357473  0.19118138  1
  O  O365  1  0.28688779  0.58542543  0.44249106  1
  O  O366  1  0.28681097  0.58282295  0.69248372  1
  O  O367  1  0.28691790  0.58281575  0.94092142  1
  O  O368  1  0.28571569  0.91655669  0.19300901  1
  O  O369  1  0.28689864  0.91819070  0.44215608  1
  O  O370  1  0.28815717  0.91575666  0.69300323  1
  O  O371  1  0.28655367  0.91592385  0.94379524  1
  O  O372  1  0.78717879  0.25020661  0.19085734  1
  O  O373  1  0.78757776  0.24850242  0.44319214  1
  O  O374  1  0.78663606  0.25042671  0.69276390  1
  O  O375  1  0.78660536  0.25145709  0.94319767  1
  O  O376  1  0.78775396  0.58393091  0.19107534  1
  O  O377  1  0.78733175  0.58299105  0.44391780  1
  O  O378  1  0.78675908  0.58227424  0.69222765  1
  O  O379  1  0.78673750  0.58327740  0.94197202  1
  O  O380  1  0.78695772  0.91671888  0.19066970  1
  O  O381  1  0.78762509  0.91544385  0.44287342  1
  O  O382  1  0.78735338  0.91577247  0.69162553  1
  O  O383  1  0.78713072  0.91690170  0.94363646  1
  O  O384  1  0.22707175  0.25037817  0.05919815  1
  O  O385  1  0.22833531  0.24922835  0.30639322  1
  O  O386  1  0.22811682  0.25121858  0.55831911  1
  O  O387  1  0.22751310  0.25128111  0.80787710  1
  O  O388  1  0.22799875  0.58361125  0.05627295  1
  O  O389  1  0.22829323  0.58414199  0.30619541  1
  O  O390  1  0.22795652  0.58547494  0.55823734  1
  O  O391  1  0.22787454  0.58195052  0.80823497  1
  O  O392  1  0.22686394  0.91638810  0.05934532  1
  O  O393  1  0.22702532  0.91704091  0.30953924  1
  O  O394  1  0.22838889  0.91820604  0.55832745  1
  O  O395  1  0.22828803  0.91483818  0.80806426  1
  O  O396  1  0.72752374  0.25034220  0.05913134  1
  O  O397  1  0.72828402  0.24995001  0.30644767  1
  O  O398  1  0.72811817  0.24834398  0.55848308  1
  O  O399  1  0.72774009  0.25207180  0.80852316  1
  O  O400  1  0.72782769  0.58429673  0.05769023  1
  O  O401  1  0.72852367  0.58319127  0.30620072  1
  O  O402  1  0.72739333  0.58234473  0.55935936  1
  O  O403  1  0.72785355  0.58165803  0.80810785  1
  O  O404  1  0.72731668  0.91589017  0.05916487  1
  O  O405  1  0.72789562  0.91662539  0.30617573  1
  O  O406  1  0.72835452  0.91502316  0.55826506  1
  O  O407  1  0.72834286  0.91672539  0.80700428  1
  O  O408  1  0.27287092  0.08324767  0.19055604  1
  O  O409  1  0.27259075  0.08166433  0.44179974  1
  O  O410  1  0.27237670  0.08182803  0.69220017  1
  O  O411  1  0.27153623  0.08333300  0.94351198  1
  O  O412  1  0.27152042  0.41490556  0.19150991  1
  O  O413  1  0.27137357  0.41708451  0.44292842  1
  O  O414  1  0.27180286  0.41509380  0.69170565  1
  O  O415  1  0.27273577  0.41577595  0.94039602  1
  O  O416  1  0.27184866  0.75210171  0.19199360  1
  O  O417  1  0.27175099  0.75280978  0.44173760  1
  O  O418  1  0.27246176  0.74857625  0.69225943  1
  O  O419  1  0.27210531  0.75188748  0.94217793  1
  O  O420  1  0.77274111  0.08407740  0.19044817  1
  O  O421  1  0.77167440  0.08296986  0.44342198  1
  O  O422  1  0.77202434  0.08473266  0.69252135  1
  O  O423  1  0.77196752  0.08385172  0.94374007  1
  O  O424  1  0.77170532  0.41549688  0.19165517  1
  O  O425  1  0.77176566  0.41647080  0.44363358  1
  O  O426  1  0.77182809  0.41822521  0.69215277  1
  O  O427  1  0.77279478  0.41622123  0.94069823  1
  O  O428  1  0.77270310  0.75011909  0.19024466  1
  O  O429  1  0.77178749  0.74972407  0.44342046  1
  O  O430  1  0.77304773  0.75048689  0.69101239  1
  O  O431  1  0.77186034  0.74967058  0.94346912  1
  O  O432  1  0.02212728  0.08458280  0.18303284  1
  O  O433  1  0.02253461  0.08258221  0.43480955  1
  O  O434  1  0.02287012  0.08262372  0.68413409  1
  O  O435  1  0.02173799  0.08132857  0.93250164  1
  O  O436  1  0.02192360  0.41640451  0.18162749  1
  O  O437  1  0.02195151  0.41379611  0.43351943  1
  O  O438  1  0.02216437  0.41463523  0.68296899  1
  O  O439  1  0.02264558  0.41774883  0.93236473  1
  O  O440  1  0.02251666  0.75203998  0.18286479  1
  O  O441  1  0.02131043  0.75029658  0.43221384  1
  O  O442  1  0.02320880  0.74964115  0.68466656  1
  O  O443  1  0.02193303  0.74889772  0.93293314  1
  O  O444  1  0.52207910  0.08140457  0.18295094  1
  O  O445  1  0.52167831  0.08363703  0.43137346  1
  O  O446  1  0.52185587  0.08530644  0.68381760  1
  O  O447  1  0.52219519  0.08318661  0.93523428  1
  O  O448  1  0.52219717  0.41548853  0.18238321  1
  O  O449  1  0.52206458  0.41913814  0.43272028  1
  O  O450  1  0.52124514  0.41723241  0.68205008  1
  O  O451  1  0.52216755  0.41814225  0.93310189  1
  O  O452  1  0.52279807  0.74948280  0.18391820  1
  O  O453  1  0.52165980  0.75043864  0.43115298  1
  O  O454  1  0.52232977  0.74870004  0.68347558  1
  O  O455  1  0.52297517  0.74947022  0.93489434  1
  O  O456  1  0.47766187  0.24839202  0.06692242  1
  O  O457  1  0.47824724  0.25163480  0.31638514  1
  O  O458  1  0.47834308  0.25088055  0.56831253  1
  O  O459  1  0.47751179  0.24843023  0.81745180  1
  O  O460  1  0.47760100  0.58313152  0.06542537  1
  O  O461  1  0.47841021  0.58518458  0.31594282  1
  O  O462  1  0.47771318  0.58217949  0.56658751  1
  O  O463  1  0.47802737  0.58568589  0.81740011  1
  O  O464  1  0.47642480  0.91685981  0.06624783  1
  O  O465  1  0.47748388  0.91714282  0.31512113  1
  O  O466  1  0.47845472  0.91683050  0.56865168  1
  O  O467  1  0.47866671  0.91680922  0.81924467  1
  O  O468  1  0.97846617  0.24981773  0.06760804  1
  O  O469  1  0.97789833  0.24746056  0.31689450  1
  O  O470  1  0.97731955  0.24879820  0.56585878  1
  O  O471  1  0.97683935  0.24941232  0.81554580  1
  O  O472  1  0.97744876  0.58412946  0.06536246  1
  O  O473  1  0.97890849  0.58337845  0.31828247  1
  O  O474  1  0.97830390  0.58248024  0.56868691  1
  O  O475  1  0.97805063  0.58437386  0.81685469  1
  O  O476  1  0.97743072  0.91827152  0.06639526  1
  O  O477  1  0.97785907  0.91544861  0.31695197  1
  O  O478  1  0.97783577  0.91870988  0.56731647  1
  O  O479  1  0.97711328  0.91742922  0.81562915  1
  O  O480  1  0.07391816  0.31292811  0.07481300  1
  O  O481  1  0.07320665  0.31116413  0.32521842  1
  O  O482  1  0.07216915  0.31254911  0.57362205  1
  O  O483  1  0.07190447  0.31310900  0.82263018  1
  O  O484  1  0.07259084  0.64777422  0.07305751  1
  O  O485  1  0.07460414  0.64626652  0.32524547  1
  O  O486  1  0.07358716  0.64648580  0.57568035  1
  O  O487  1  0.07310211  0.64776004  0.82449135  1
  O  O488  1  0.07198472  0.98215129  0.07390631  1
  O  O489  1  0.07324854  0.97927320  0.32450200  1
  O  O490  1  0.07304956  0.98142540  0.57456555  1
  O  O491  1  0.07298617  0.98000295  0.82320649  1
  O  O492  1  0.57327686  0.31169429  0.07410372  1
  O  O493  1  0.57299629  0.31557848  0.32338384  1
  O  O494  1  0.57405887  0.31369081  0.57613816  1
  O  O495  1  0.57250230  0.31260116  0.82599640  1
  O  O496  1  0.57264749  0.64699128  0.07355381  1
  O  O497  1  0.57351641  0.64827814  0.32359831  1
  O  O498  1  0.57301006  0.64617324  0.57394684  1
  O  O499  1  0.57321398  0.64851457  0.82444118  1
  O  O500  1  0.57203201  0.97952810  0.07439033  1
  O  O501  1  0.57266423  0.98062638  0.32239118  1
  O  O502  1  0.57383713  0.98030685  0.57545152  1
  O  O503  1  0.57406105  0.98031071  0.82673054  1
  O  O504  1  0.42692752  0.01827437  0.17518461  1
  O  O505  1  0.42627670  0.02007765  0.42490438  1
  O  O506  1  0.42679060  0.02107799  0.67652656  1
  O  O507  1  0.42713644  0.01960131  0.92684065  1
  O  O508  1  0.42757838  0.35167222  0.17499747  1
  O  O509  1  0.42661831  0.35520723  0.42525281  1
  O  O510  1  0.42595190  0.35393015  0.67482364  1
  O  O511  1  0.42663293  0.35464747  0.92519131  1
  O  O512  1  0.42775252  0.68592841  0.17565962  1
  O  O513  1  0.42593112  0.68769663  0.42366023  1
  O  O514  1  0.42742290  0.68523065  0.67662168  1
  O  O515  1  0.42736134  0.68657491  0.92727647  1
  O  O516  1  0.92654039  0.02127235  0.17582977  1
  O  O517  1  0.92773641  0.01877797  0.42641963  1
  O  O518  1  0.92742361  0.01960198  0.67589131  1
  O  O519  1  0.92651971  0.01849991  0.92570167  1
  O  O520  1  0.92628938  0.35373155  0.17354285  1
  O  O521  1  0.92663940  0.35077863  0.42602544  1
  O  O522  1  0.92718104  0.35085074  0.67631163  1
  O  O523  1  0.92693310  0.35430583  0.92501453  1
  O  O524  1  0.92730936  0.68798550  0.17507543  1
  O  O525  1  0.92607802  0.68660560  0.42483026  1
  O  O526  1  0.92795532  0.68622625  0.67679935  1
  O  O527  1  0.92694330  0.68544217  0.92587384  1
  O  O528  1  0.17803807  0.01917696  0.19818088  1
  O  O529  1  0.17711401  0.01896573  0.44875341  1
  O  O530  1  0.17778414  0.01766026  0.69907165  1
  O  O531  1  0.17619531  0.01995659  0.95116722  1
  O  O532  1  0.17612222  0.35197825  0.19840405  1
  O  O533  1  0.17600048  0.35335530  0.45001084  1
  O  O534  1  0.17686663  0.35173136  0.69938323  1
  O  O535  1  0.17722025  0.35264429  0.94786314  1
  O  O536  1  0.17664501  0.68834386  0.19975449  1
  O  O537  1  0.17665892  0.68837288  0.44932749  1
  O  O538  1  0.17756203  0.68512636  0.69949415  1
  O  O539  1  0.17668134  0.68838280  0.95005551  1
  O  O540  1  0.67819662  0.01952542  0.19728853  1
  O  O541  1  0.67633020  0.01955875  0.45051013  1
  O  O542  1  0.67643532  0.02135155  0.70042597  1
  O  O543  1  0.67681132  0.02001175  0.95112347  1
  O  O544  1  0.67672552  0.35193396  0.19835310  1
  O  O545  1  0.67630051  0.35324113  0.45090079  1
  O  O546  1  0.67646037  0.35460919  0.70078281  1
  O  O547  1  0.67729731  0.35322314  0.94830607  1
  O  O548  1  0.67801717  0.68588877  0.19767187  1
  O  O549  1  0.67643630  0.68621096  0.45030882  1
  O  O550  1  0.67871423  0.68585606  0.69816300  1
  O  O551  1  0.67616669  0.68693695  0.95063716  1
  O  O552  1  0.32233157  0.31376941  0.05152691  1
  O  O553  1  0.32351943  0.31307010  0.29887627  1
  O  O554  1  0.32300482  0.31499161  0.55080224  1
  O  O555  1  0.32319581  0.31397364  0.80133746  1
  O  O556  1  0.32333517  0.64696075  0.04870650  1
  O  O557  1  0.32393167  0.64723194  0.29903583  1
  O  O558  1  0.32289589  0.64907001  0.55086751  1
  O  O559  1  0.32350778  0.64529966  0.80068174  1
  O  O560  1  0.32145189  0.98038273  0.05201890  1
  O  O561  1  0.32208494  0.98052279  0.30077228  1
  O  O562  1  0.32333172  0.98161720  0.55101460  1
  O  O563  1  0.32372508  0.97870243  0.80156830  1
  O  O564  1  0.82243203  0.31449457  0.05163945  1
  O  O565  1  0.82377126  0.31319375  0.29958576  1
  O  O566  1  0.82349919  0.31197005  0.55101834  1
  O  O567  1  0.82289338  0.31488320  0.80073816  1
  O  O568  1  0.82278277  0.64764704  0.05015427  1
  O  O569  1  0.82399353  0.64681114  0.29978245  1
  O  O570  1  0.82205995  0.64643705  0.55271312  1
  O  O571  1  0.82289460  0.64592138  0.80014285  1
  O  O572  1  0.82167093  0.98066372  0.05208000  1
  O  O573  1  0.82338964  0.97993515  0.29924213  1
  O  O574  1  0.82366851  0.97885453  0.55069517  1
  O  O575  1  0.82365055  0.98003478  0.79931240  1
  O  O576  1  0.42689970  0.14525638  0.17433123  1
  O  O577  1  0.42627971  0.14707427  0.42364469  1
  O  O578  1  0.42652615  0.14828185  0.67685970  1
  O  O579  1  0.42699683  0.14693138  0.92773745  1
  O  O580  1  0.42647043  0.47885050  0.17441985  1
  O  O581  1  0.42712715  0.48242389  0.42486005  1
  O  O582  1  0.42565333  0.48074329  0.67534617  1
  O  O583  1  0.42731997  0.48194373  0.92612112  1
  O  O584  1  0.42794006  0.81326811  0.17588204  1
  O  O585  1  0.42659517  0.81439983  0.42406456  1
  O  O586  1  0.42687989  0.81244340  0.67625398  1
  O  O587  1  0.42852647  0.81377384  0.92757363  1
  O  O588  1  0.92738625  0.14827063  0.17606953  1
  O  O589  1  0.92722113  0.14607687  0.42726467  1
  O  O590  1  0.92831315  0.14665444  0.67662251  1
  O  O591  1  0.92657765  0.14551990  0.92440399  1
  O  O592  1  0.92671620  0.48061173  0.17463587  1
  O  O593  1  0.92683521  0.47806925  0.42598318  1
  O  O594  1  0.92670900  0.47794346  0.67460243  1
  O  O595  1  0.92792335  0.48145248  0.92535153  1
  O  O596  1  0.92757130  0.81523502  0.17514594  1
  O  O597  1  0.92563596  0.81348084  0.42552457  1
  O  O598  1  0.92864057  0.81380135  0.67738600  1
  O  O599  1  0.92648602  0.81239604  0.92450709  1
  O  O600  1  0.07385293  0.18616553  0.07426204  1
  O  O601  1  0.07288127  0.18411637  0.32465759  1
  O  O602  1  0.07253220  0.18539493  0.57431781  1
  O  O603  1  0.07183409  0.18562899  0.82297174  1
  O  O604  1  0.07226419  0.52021292  0.07241144  1
  O  O605  1  0.07408963  0.51926909  0.32495965  1
  O  O606  1  0.07390030  0.51949435  0.57660931  1
  O  O607  1  0.07344893  0.52080656  0.82510156  1
  O  O608  1  0.07309751  0.85507749  0.07389956  1
  O  O609  1  0.07278652  0.85220964  0.32397513  1
  O  O610  1  0.07287412  0.85444082  0.57563475  1
  O  O611  1  0.07129735  0.85272260  0.82341478  1
  O  O612  1  0.57244785  0.18459940  0.07503091  1
  O  O613  1  0.57382619  0.18824764  0.32454081  1
  O  O614  1  0.57351696  0.18688375  0.57477177  1
  O  O615  1  0.57290044  0.18535509  0.82473263  1
  O  O616  1  0.57243772  0.51951095  0.07368155  1
  O  O617  1  0.57384594  0.52128917  0.32343790  1
  O  O618  1  0.57270985  0.51906953  0.57400588  1
  O  O619  1  0.57322436  0.52154059  0.82520032  1
  O  O620  1  0.57084318  0.85236710  0.07398791  1
  O  O621  1  0.57241142  0.85317212  0.32242375  1
  O  O622  1  0.57375984  0.85323179  0.57523997  1
  O  O623  1  0.57422172  0.85358158  0.82675721  1
  O  O624  1  0.32174287  0.18634051  0.05111495  1
  O  O625  1  0.32399651  0.18633816  0.29896235  1
  O  O626  1  0.32358294  0.18767055  0.55053364  1
  O  O627  1  0.32240277  0.18695495  0.80044936  1
  O  O628  1  0.32355639  0.52006259  0.04921313  1
  O  O629  1  0.32346548  0.52014796  0.29950594  1
  O  O630  1  0.32321583  0.52176237  0.55008344  1
  O  O631  1  0.32255293  0.51815426  0.80053300  1
  O  O632  1  0.32233235  0.85313062  0.05253410  1
  O  O633  1  0.32184016  0.85327424  0.30155030  1
  O  O634  1  0.32386848  0.85474609  0.55000004  1
  O  O635  1  0.32342450  0.85160559  0.80163995  1
  O  O636  1  0.82272091  0.18706746  0.05088117  1
  O  O637  1  0.82364649  0.18644634  0.29909517  1
  O  O638  1  0.82314154  0.18475994  0.55181597  1
  O  O639  1  0.82296883  0.18782017  0.80104216  1
  O  O640  1  0.82329558  0.52051553  0.04986283  1
  O  O641  1  0.82397407  0.51990259  0.29912412  1
  O  O642  1  0.82272491  0.51900985  0.55204088  1
  O  O643  1  0.82325280  0.51896443  0.80102503  1
  O  O644  1  0.82297123  0.85318151  0.05152770  1
  O  O645  1  0.82332604  0.85317048  0.29899142  1
  O  O646  1  0.82356718  0.85168521  0.55139174  1
  O  O647  1  0.82373287  0.85307427  0.80028657  1
  O  O648  1  0.17776288  0.14649558  0.19877339  1
  O  O649  1  0.17773187  0.14601309  0.44995735  1
  O  O650  1  0.17670597  0.14498323  0.69963960  1
  O  O651  1  0.17607618  0.14665909  0.95041004  1
  O  O652  1  0.17638974  0.47920285  0.19846825  1
  O  O653  1  0.17601500  0.48041416  0.45071453  1
  O  O654  1  0.17643896  0.47873778  0.70037138  1
  O  O655  1  0.17822075  0.48007471  0.94817055  1
  O  O656  1  0.17650634  0.81541032  0.19886012  1
  O  O657  1  0.17649092  0.81549989  0.45003596  1
  O  O658  1  0.17698851  0.81224652  0.69951739  1
  O  O659  1  0.17696640  0.81543206  0.94864601  1
  O  O660  1  0.67721352  0.14700091  0.19796435  1
  O  O661  1  0.67605914  0.14640722  0.44969685  1
  O  O662  1  0.67725125  0.14866331  0.69972043  1
  O  O663  1  0.67630742  0.14678543  0.95140473  1
  O  O664  1  0.67615854  0.47901873  0.19892289  1
  O  O665  1  0.67642456  0.48022295  0.44998784  1
  O  O666  1  0.67673052  0.48153666  0.69985508  1
  O  O667  1  0.67828899  0.48063221  0.94886888  1
  O  O668  1  0.67737222  0.81341138  0.19787945  1
  O  O669  1  0.67617427  0.81290134  0.45011237  1
  O  O670  1  0.67748526  0.81345617  0.69873619  1
  O  O671  1  0.67679608  0.81362971  0.95102045  1
