# generated using pymatgen
data_Na2MnFe(PO4)2
_symmetry_space_group_name_H-M   'P 1'
_cell_length_a   22.34559299
_cell_length_b   20.09792067
_cell_length_c   19.44649181
_cell_angle_alpha   90.03691472
_cell_angle_beta   90.03167862
_cell_angle_gamma   90.01112268
_symmetry_Int_Tables_number   1
_chemical_formula_structural   Na2MnFe(PO4)2
_chemical_formula_sum   'Na96 Mn48 Fe48 P96 O384'
_cell_volume   8733.41528826
_cell_formula_units_Z   48
loop_
 _symmetry_equiv_pos_site_id
 _symmetry_equiv_pos_as_xyz
  1  'x, y, z'
loop_
 _atom_site_type_symbol
 _atom_site_label
 _atom_site_symmetry_multiplicity
 _atom_site_fract_x
 _atom_site_fract_y
 _atom_site_fract_z
 _atom_site_occupancy
  Na  Na0  1  0.14064666  0.24916108  0.24492640  1
  Na  Na1  1  0.14054624  0.25021601  0.49281729  1
  Na  Na2  1  0.14060879  0.25057607  0.74438292  1
  Na  Na3  1  0.14121147  0.25015393  0.99311808  1
  Na  Na4  1  0.13988109  0.58338903  0.24491283  1
  Na  Na5  1  0.14020527  0.58248601  0.49259115  1
  Na  Na6  1  0.13996131  0.58278277  0.74431322  1
  Na  Na7  1  0.14029897  0.58266313  0.99309648  1
  Na  Na8  1  0.14068026  0.91606158  0.24450650  1
  Na  Na9  1  0.14057321  0.91643472  0.49334083  1
  Na  Na10  1  0.14016850  0.91741075  0.74376767  1
  Na  Na11  1  0.14048150  0.91748823  0.99378657  1
  Na  Na12  1  0.64025833  0.24946084  0.24492530  1
  Na  Na13  1  0.64014748  0.24927765  0.49323801  1
  Na  Na14  1  0.64045018  0.24805701  0.74223398  1
  Na  Na15  1  0.64044409  0.25061235  0.99343618  1
  Na  Na16  1  0.64011854  0.58323675  0.24320520  1
  Na  Na17  1  0.63986436  0.58173696  0.49275103  1
  Na  Na18  1  0.63968915  0.58222933  0.74378802  1
  Na  Na19  1  0.63943709  0.58470289  0.99258703  1
  Na  Na20  1  0.64027563  0.91713895  0.24308276  1
  Na  Na21  1  0.63946240  0.91768663  0.49427015  1
  Na  Na22  1  0.63947164  0.91682271  0.74342994  1
  Na  Na23  1  0.63990780  0.91799063  0.99345471  1
  Na  Na24  1  0.36024984  0.08379025  0.00530759  1
  Na  Na25  1  0.36009924  0.08409683  0.25680395  1
  Na  Na26  1  0.36078441  0.08387794  0.50691315  1
  Na  Na27  1  0.36012910  0.08420792  0.75789902  1
  Na  Na28  1  0.35980596  0.41852219  0.00609895  1
  Na  Na29  1  0.35986227  0.41719804  0.25760941  1
  Na  Na30  1  0.36050677  0.41672417  0.50576702  1
  Na  Na31  1  0.35964246  0.41737936  0.75753764  1
  Na  Na32  1  0.35979758  0.75085612  0.00653427  1
  Na  Na33  1  0.35998919  0.74929672  0.25545219  1
  Na  Na34  1  0.35981134  0.74924939  0.50612256  1
  Na  Na35  1  0.35975455  0.75037899  0.75828713  1
  Na  Na36  1  0.85950441  0.08337652  0.00556548  1
  Na  Na37  1  0.85996907  0.08377854  0.25716947  1
  Na  Na38  1  0.86008181  0.08317203  0.50732494  1
  Na  Na39  1  0.85987050  0.08179407  0.75519655  1
  Na  Na40  1  0.85966138  0.41752174  0.00429136  1
  Na  Na41  1  0.85935341  0.41674944  0.25646236  1
  Na  Na42  1  0.85951487  0.41573426  0.50647747  1
  Na  Na43  1  0.85973529  0.41486560  0.75605027  1
  Na  Na44  1  0.85910093  0.75124528  0.00626251  1
  Na  Na45  1  0.85934299  0.75015420  0.25704150  1
  Na  Na46  1  0.85954544  0.75020448  0.50629574  1
  Na  Na47  1  0.85919242  0.74914786  0.75556887  1
  Na  Na48  1  0.11020340  0.08336414  0.11921496  1
  Na  Na49  1  0.10995994  0.08329327  0.36931550  1
  Na  Na50  1  0.10963096  0.08225707  0.61881080  1
  Na  Na51  1  0.11010194  0.08381954  0.86815155  1
  Na  Na52  1  0.10999189  0.41661309  0.11949933  1
  Na  Na53  1  0.10990310  0.41704248  0.36859950  1
  Na  Na54  1  0.10976915  0.41632219  0.61904924  1
  Na  Na55  1  0.11008254  0.41693766  0.86815313  1
  Na  Na56  1  0.10950164  0.74791814  0.11901336  1
  Na  Na57  1  0.10958877  0.74949091  0.36957990  1
  Na  Na58  1  0.10920563  0.74940791  0.61820664  1
  Na  Na59  1  0.10925460  0.74933294  0.86864827  1
  Na  Na60  1  0.60978529  0.08332594  0.11862908  1
  Na  Na61  1  0.60986516  0.08214263  0.36930931  1
  Na  Na62  1  0.60964439  0.08376731  0.61821098  1
  Na  Na63  1  0.60964364  0.08263746  0.86752800  1
  Na  Na64  1  0.60937658  0.41837850  0.11908663  1
  Na  Na65  1  0.61001334  0.41564576  0.36839310  1
  Na  Na66  1  0.60929798  0.41525977  0.61745018  1
  Na  Na67  1  0.60911404  0.41763629  0.86767206  1
  Na  Na68  1  0.60930187  0.75164700  0.11738985  1
  Na  Na69  1  0.60895519  0.74941930  0.36814631  1
  Na  Na70  1  0.60848623  0.75006211  0.61984353  1
  Na  Na71  1  0.60914827  0.75143457  0.86899847  1
  Na  Na72  1  0.39079566  0.25104975  0.13141067  1
  Na  Na73  1  0.39087243  0.24941271  0.38278850  1
  Na  Na74  1  0.39060582  0.24938510  0.63090044  1
  Na  Na75  1  0.39062714  0.24983333  0.88192093  1
  Na  Na76  1  0.39000657  0.58483872  0.13116725  1
  Na  Na77  1  0.39028915  0.58195833  0.38157539  1
  Na  Na78  1  0.39048954  0.58352316  0.63116692  1
  Na  Na79  1  0.39023061  0.58510674  0.88292380  1
  Na  Na80  1  0.39038020  0.91825680  0.13061378  1
  Na  Na81  1  0.39115857  0.91693889  0.38073764  1
  Na  Na82  1  0.39109010  0.91730684  0.63260648  1
  Na  Na83  1  0.39065362  0.91670578  0.88185868  1
  Na  Na84  1  0.89067476  0.25025653  0.13081490  1
  Na  Na85  1  0.89057399  0.24977217  0.38240085  1
  Na  Na86  1  0.89019076  0.24898360  0.63158889  1
  Na  Na87  1  0.89018210  0.25050540  0.88003181  1
  Na  Na88  1  0.89012299  0.58275398  0.13058708  1
  Na  Na89  1  0.89036877  0.58391133  0.38179451  1
  Na  Na90  1  0.89037992  0.58181893  0.63013890  1
  Na  Na91  1  0.88987323  0.58226306  0.88049987  1
  Na  Na92  1  0.88967493  0.91687270  0.13244063  1
  Na  Na93  1  0.89055498  0.91705028  0.38197872  1
  Na  Na94  1  0.89048345  0.91647949  0.63031856  1
  Na  Na95  1  0.88996727  0.91683357  0.88116008  1
  Mn  Mn96  1  -0.00041794  0.50054969  0.24998970  1
  Mn  Mn97  1  0.25038983  0.00057122  0.62492879  1
  Mn  Mn98  1  0.74984593  0.49818962  0.62404362  1
  Mn  Mn99  1  0.00039968  0.83230370  0.25108885  1
  Mn  Mn100  1  0.00031081  0.33307578  0.50016174  1
  Mn  Mn101  1  0.74926498  0.66580131  0.62515253  1
  Mn  Mn102  1  0.00076464  0.33433223  0.00056299  1
  Mn  Mn103  1  -0.00016716  0.83288286  0.00011682  1
  Mn  Mn104  1  0.49952884  0.66578626  0.49933545  1
  Mn  Mn105  1  0.25134947  0.00025874  0.37499756  1
  Mn  Mn106  1  0.74965736  0.33367819  0.12407858  1
  Mn  Mn107  1  0.74973412  0.00007277  0.87472118  1
  Mn  Mn108  1  0.50021825  0.00035694  0.25012840  1
  Mn  Mn109  1  0.25007696  0.83324404  0.62556648  1
  Mn  Mn110  1  0.25034291  0.50002537  0.62532035  1
  Mn  Mn111  1  0.00064687  0.00062700  0.25129153  1
  Mn  Mn112  1  -0.00073738  0.83378573  0.74876611  1
  Mn  Mn113  1  0.49996269  0.33353740  0.25038253  1
  Mn  Mn114  1  0.25027133  0.16740244  0.62573492  1
  Mn  Mn115  1  0.75099220  0.16641092  0.12515291  1
  Mn  Mn116  1  0.25120240  0.83222212  0.37401743  1
  Mn  Mn117  1  0.50057946  0.33462847  0.00074197  1
  Mn  Mn118  1  0.74926550  0.83462491  0.37548052  1
  Mn  Mn119  1  -0.00035500  0.00029138  0.00083619  1
  Mn  Mn120  1  0.75023731  0.16627642  0.37499436  1
  Mn  Mn121  1  0.74886957  0.66648381  0.37493132  1
  Mn  Mn122  1  0.24975963  0.83313964  0.12481371  1
  Mn  Mn123  1  0.24948854  0.50091160  0.12582703  1
  Mn  Mn124  1  0.25015942  0.66629131  0.62566418  1
  Mn  Mn125  1  -0.00098081  0.66543643  0.74873670  1
  Mn  Mn126  1  -0.00025293  0.33265282  0.24991760  1
  Mn  Mn127  1  0.50000634  0.66673320  0.24934418  1
  Mn  Mn128  1  0.74965651  0.33252292  0.87437682  1
  Mn  Mn129  1  0.25044371  0.33355164  0.12530185  1
  Mn  Mn130  1  0.50101337  0.16636233  0.00000999  1
  Mn  Mn131  1  0.49932547  0.50103062  0.74944786  1
  Mn  Mn132  1  -0.00074004  0.66524196  -0.00105856  1
  Mn  Mn133  1  0.25047654  0.33368357  0.62513248  1
  Mn  Mn134  1  0.25123874  0.16619860  0.12442498  1
  Mn  Mn135  1  0.49922501  0.83370953  0.50047525  1
  Mn  Mn136  1  0.74948300  0.66679612  0.87497773  1
  Mn  Mn137  1  -0.00002097  0.16633029  0.74991117  1
  Mn  Mn138  1  0.74928848  0.50037025  0.12505233  1
  Mn  Mn139  1  0.49956695  0.33284898  0.74927324  1
  Mn  Mn140  1  0.75036848  0.66801028  0.12429963  1
  Mn  Mn141  1  0.00028498  0.16720327  -0.00059589  1
  Mn  Mn142  1  0.24935481  0.83387743  0.87579298  1
  Mn  Mn143  1  0.74889705  0.83357700  0.62492462  1
  Fe  Fe144  1  0.50016480  0.00037733  0.50076667  1
  Fe  Fe145  1  0.49929674  0.83360455  0.75073711  1
  Fe  Fe146  1  0.00037144  0.16648304  0.25083298  1
  Fe  Fe147  1  0.50020553  0.16665203  0.25059221  1
  Fe  Fe148  1  -0.00003666  0.66631923  0.50016625  1
  Fe  Fe149  1  0.25042495  0.49995854  0.37492148  1
  Fe  Fe150  1  0.74980855  0.83396881  0.87504994  1
  Fe  Fe151  1  -0.00004249  0.49959133  -0.00040238  1
  Fe  Fe152  1  0.50005859  0.33261455  0.49953583  1
  Fe  Fe153  1  0.00056924  0.16614994  0.50100796  1
  Fe  Fe154  1  0.25028486  0.16657978  0.37483532  1
  Fe  Fe155  1  0.50009046  0.83438536  -0.00074109  1
  Fe  Fe156  1  0.75056545  0.33266841  0.37499102  1
  Fe  Fe157  1  0.49985510  0.66732646  0.75091428  1
  Fe  Fe158  1  0.24927240  0.66712297  0.87569511  1
  Fe  Fe159  1  0.74983556  0.16617882  0.87409078  1
  Fe  Fe160  1  0.74980698  0.83470511  0.12548426  1
  Fe  Fe161  1  0.74943703  0.33221143  0.62490119  1
  Fe  Fe162  1  0.75040544  0.00020063  0.37491487  1
  Fe  Fe163  1  0.25050340  0.33383399  0.87555962  1
  Fe  Fe164  1  0.25009212  0.00058992  0.87505374  1
  Fe  Fe165  1  0.00017243  0.83300161  0.49990536  1
  Fe  Fe166  1  0.75027413  -0.00041004  0.62538388  1
  Fe  Fe167  1  0.74953940  0.00050813  0.12438933  1
  Fe  Fe168  1  0.49976780  0.50136835  -0.00053155  1
  Fe  Fe169  1  0.00044874  -0.00036918  0.49989503  1
  Fe  Fe170  1  0.50037905  0.16649548  0.74967473  1
  Fe  Fe171  1  0.50009303  0.00021392  0.74998232  1
  Fe  Fe172  1  -0.00008023  0.49962772  0.49991288  1
  Fe  Fe173  1  0.74938098  0.49948974  0.87428250  1
  Fe  Fe174  1  0.75030586  0.49920520  0.37472129  1
  Fe  Fe175  1  0.25011456  0.66622729  0.37522449  1
  Fe  Fe176  1  0.49998170  0.50022038  0.24978938  1
  Fe  Fe177  1  0.00019258  0.33329269  0.74961152  1
  Fe  Fe178  1  -0.00027250  0.66646224  0.25057351  1
  Fe  Fe179  1  0.25000043  0.66642115  0.12530239  1
  Fe  Fe180  1  0.00013408  -0.00036844  0.74933382  1
  Fe  Fe181  1  0.50050092  0.49945957  0.50027971  1
  Fe  Fe182  1  0.25015875  0.16695988  0.87544415  1
  Fe  Fe183  1  0.74990202  0.16572334  0.62395080  1
  Fe  Fe184  1  0.49962651  0.66801260  0.00052123  1
  Fe  Fe185  1  0.49954027  0.00014408  -0.00038954  1
  Fe  Fe186  1  0.24995380  0.00049738  0.12480805  1
  Fe  Fe187  1  0.00007020  0.49951235  0.74922385  1
  Fe  Fe188  1  0.49986352  0.16575356  0.50063464  1
  Fe  Fe189  1  0.25017720  0.50063332  0.87575504  1
  Fe  Fe190  1  0.25058096  0.33326298  0.37501717  1
  Fe  Fe191  1  0.50000254  0.83391643  0.24925673  1
  P  P192  1  0.04360804  0.24969916  0.10355360  1
  P  P193  1  0.04207032  0.24854462  0.35341663  1
  P  P194  1  0.04242884  0.24893546  0.60303611  1
  P  P195  1  0.04234453  0.25151073  0.85210917  1
  P  P196  1  0.04225595  0.58185874  0.10229863  1
  P  P197  1  0.04159135  0.58480982  0.35366231  1
  P  P198  1  0.04152675  0.58225063  0.60146145  1
  P  P199  1  0.04164359  0.58148278  0.85193508  1
  P  P200  1  0.04284289  0.91612581  0.10372488  1
  P  P201  1  0.04298086  0.91641852  0.35464565  1
  P  P202  1  0.04177391  0.91645163  0.60138482  1
  P  P203  1  0.04204542  0.91766877  0.85207987  1
  P  P204  1  0.54314679  0.25043455  0.10371601  1
  P  P205  1  0.54172883  0.24844263  0.35368026  1
  P  P206  1  0.54112931  0.24918143  0.60152601  1
  P  P207  1  0.54240011  0.24882575  0.85194074  1
  P  P208  1  0.54104543  0.58389467  0.10156754  1
  P  P209  1  0.54201258  0.58158040  0.35239623  1
  P  P210  1  0.54223876  0.58258476  0.60261883  1
  P  P211  1  0.54155341  0.58530791  0.85333415  1
  P  P212  1  0.54117866  0.91730337  0.10131368  1
  P  P213  1  0.54240556  0.91547661  0.35244543  1
  P  P214  1  0.54158440  0.91830793  0.60360092  1
  P  P215  1  0.54091663  0.91698527  0.85210729  1
  P  P216  1  0.45795367  0.08491645  0.14760763  1
  P  P217  1  0.45894800  0.08308610  0.39859441  1
  P  P218  1  0.45856853  0.08357173  0.64814476  1
  P  P219  1  0.45856906  0.08203730  0.89660832  1
  P  P220  1  0.45755853  0.41875259  0.14746351  1
  P  P221  1  0.45928610  0.41666396  0.39819171  1
  P  P222  1  0.45726338  0.41650235  0.64582212  1
  P  P223  1  0.45786698  0.41828110  0.89758159  1
  P  P224  1  0.45821509  0.75207362  0.14637162  1
  P  P225  1  0.45713630  0.75000049  0.39636358  1
  P  P226  1  0.45802004  0.74995185  0.64909467  1
  P  P227  1  0.45867591  0.75081272  0.89807844  1
  P  P228  1  0.95780290  0.08461751  0.14837499  1
  P  P229  1  0.95897662  0.08373026  0.39892688  1
  P  P230  1  0.95843301  0.08150648  0.64650711  1
  P  P231  1  0.95728869  0.08312894  0.89621676  1
  P  P232  1  0.95691459  0.41684817  0.14669956  1
  P  P233  1  0.95776947  0.41757111  0.39775435  1
  P  P234  1  0.95863401  0.41633874  0.64777385  1
  P  P235  1  0.95821421  0.41764330  0.89628376  1
  P  P236  1  0.95745807  0.74816758  0.14802277  1
  P  P237  1  0.95827988  0.74957630  0.39857357  1
  P  P238  1  0.95695885  0.74944080  0.64523078  1
  P  P239  1  0.95651784  0.74974877  0.89626575  1
  P  P240  1  0.20843913  0.08276364  0.22778174  1
  P  P241  1  0.20841939  0.08457862  0.47739085  1
  P  P242  1  0.20768777  0.08376438  0.72927374  1
  P  P243  1  0.20877474  0.08325729  0.97686668  1
  P  P244  1  0.20766833  0.41665832  0.22948914  1
  P  P245  1  0.20897154  0.41644983  0.47629858  1
  P  P246  1  0.20799256  0.41690015  0.72935296  1
  P  P247  1  0.20874913  0.41700326  0.97685792  1
  P  P248  1  0.20793356  0.74802681  0.22785285  1
  P  P249  1  0.20796442  0.74873053  0.47737359  1
  P  P250  1  0.20690108  0.74972178  0.72906262  1
  P  P251  1  0.20741045  0.74894933  0.97831765  1
  P  P252  1  0.70803173  0.08199392  0.22760155  1
  P  P253  1  0.70837438  0.08192041  0.47811722  1
  P  P254  1  0.70870744  0.08314764  0.72634927  1
  P  P255  1  0.70762946  0.08449388  0.97719059  1
  P  P256  1  0.70724771  0.41630844  0.22888238  1
  P  P257  1  0.70872329  0.41526822  0.47646441  1
  P  P258  1  0.70718000  0.41446628  0.72710899  1
  P  P259  1  0.70688232  0.41784329  0.97663557  1
  P  P260  1  0.70733967  0.75182715  0.22714262  1
  P  P261  1  0.70621125  0.75042815  0.47815265  1
  P  P262  1  0.70674659  0.74991111  0.72871658  1
  P  P263  1  0.70779805  0.75259258  0.97786208  1
  P  P264  1  0.29327838  0.25056467  0.02104790  1
  P  P265  1  0.29231992  0.25005296  0.27369644  1
  P  P266  1  0.29265228  0.25030059  0.52107775  1
  P  P267  1  0.29181544  0.25057865  0.77419716  1
  P  P268  1  0.29172589  0.58487782  0.02219386  1
  P  P269  1  0.29156521  0.58377599  0.27342248  1
  P  P270  1  0.29254179  0.58309375  0.52124618  1
  P  P271  1  0.29147425  0.58393757  0.77442781  1
  P  P272  1  0.29176160  0.91852106  0.02213716  1
  P  P273  1  0.29333880  0.91675000  0.27089126  1
  P  P274  1  0.29361676  0.91637113  0.52199481  1
  P  P275  1  0.29233030  0.91802351  0.77322599  1
  P  P276  1  0.79288026  0.24980847  0.02082884  1
  P  P277  1  0.79281648  0.25067385  0.27271415  1
  P  P278  1  0.79124341  0.24987874  0.52299935  1
  P  P279  1  0.79191283  0.24782798  0.77104262  1
  P  P280  1  0.79197935  0.58347901  0.02099616  1
  P  P281  1  0.79193437  0.58235778  0.27265287  1
  P  P282  1  0.79197175  0.58232469  0.52101858  1
  P  P283  1  0.79169292  0.58133345  0.77216013  1
  P  P284  1  0.79151262  0.91714530  0.02317936  1
  P  P285  1  0.79225615  0.91817913  0.27196363  1
  P  P286  1  0.79197360  0.91826622  0.52237725  1
  P  P287  1  0.79185060  0.91571644  0.77223542  1
  O  O288  1  0.03853331  0.24907935  0.18355366  1
  O  O289  1  0.03668842  0.24850151  0.43337784  1
  O  O290  1  0.03685511  0.24980343  0.68294216  1
  O  O291  1  0.03763673  0.25153382  0.93209936  1
  O  O292  1  0.03723076  0.58285169  0.18225134  1
  O  O293  1  0.03602773  0.58461285  0.43352966  1
  O  O294  1  0.03626615  0.58163899  0.68142967  1
  O  O295  1  0.03663968  0.58134744  0.93188566  1
  O  O296  1  0.03807803  0.91614629  0.18375178  1
  O  O297  1  0.03763967  0.91646221  0.43455782  1
  O  O298  1  0.03648558  0.91710325  0.68136750  1
  O  O299  1  0.03688804  0.91737511  0.93206801  1
  O  O300  1  0.53770645  0.25015762  0.18365420  1
  O  O301  1  0.53606326  0.24850692  0.43354631  1
  O  O302  1  0.53642218  0.24909655  0.68150586  1
  O  O303  1  0.53766647  0.24921733  0.93191839  1
  O  O304  1  0.53634775  0.58359837  0.18155995  1
  O  O305  1  0.53683052  0.58144855  0.43234345  1
  O  O306  1  0.53686569  0.58351272  0.68252168  1
  O  O307  1  0.53616718  0.58491013  0.93322887  1
  O  O308  1  0.53630701  0.91703764  0.18126268  1
  O  O309  1  0.53731161  0.91587761  0.43233714  1
  O  O310  1  0.53603225  0.91840524  0.68343444  1
  O  O311  1  0.53596201  0.91668089  0.93200891  1
  O  O312  1  0.46303285  0.08436248  0.06769922  1
  O  O313  1  0.46390681  0.08343934  0.31864984  1
  O  O314  1  0.46374057  0.08371857  0.56821541  1
  O  O315  1  0.46393262  0.08209214  0.81674073  1
  O  O316  1  0.46288826  0.41901154  0.06751874  1
  O  O317  1  0.46377247  0.41676235  0.31820434  1
  O  O318  1  0.46282939  0.41646088  0.56592147  1
  O  O319  1  0.46278915  0.41783328  0.81759349  1
  O  O320  1  0.46372633  0.75214140  0.06649208  1
  O  O321  1  0.46254441  0.75027235  0.31644341  1
  O  O322  1  0.46277649  0.75013187  0.56910538  1
  O  O323  1  0.46336058  0.75018260  0.81815386  1
  O  O324  1  0.96261376  0.08435028  0.06836056  1
  O  O325  1  0.96404891  0.08425743  0.31894530  1
  O  O326  1  0.96425460  0.08161309  0.56666291  1
  O  O327  1  0.96244315  0.08238900  0.81624412  1
  O  O328  1  0.96205772  0.41724932  0.06673265  1
  O  O329  1  0.96270375  0.41727985  0.31782629  1
  O  O330  1  0.96371398  0.41655924  0.56779507  1
  O  O331  1  0.96364008  0.41715954  0.81637591  1
  O  O332  1  0.96234196  0.74840117  0.06801192  1
  O  O333  1  0.96333873  0.74900627  0.31856866  1
  O  O334  1  0.96264371  0.74938592  0.56535743  1
  O  O335  1  0.96131374  0.74990522  0.81625522  1
  O  O336  1  0.21373425  0.08313636  0.05688149  1
  O  O337  1  0.21397301  0.08352882  0.30772518  1
  O  O338  1  0.21309813  0.08452117  0.55742256  1
  O  O339  1  0.21284368  0.08351756  0.80922507  1
  O  O340  1  0.21321337  0.41727150  0.05691262  1
  O  O341  1  0.21309310  0.41645898  0.30937467  1
  O  O342  1  0.21353599  0.41674269  0.55635980  1
  O  O343  1  0.21322464  0.41691178  0.80924573  1
  O  O344  1  0.21292227  0.74873949  0.05824912  1
  O  O345  1  0.21370351  0.74780500  0.30776353  1
  O  O346  1  0.21292599  0.74926039  0.55740304  1
  O  O347  1  0.21168943  0.74965678  0.80910228  1
  O  O348  1  0.71303230  0.08378521  0.05711124  1
  O  O349  1  0.71328739  0.08177813  0.30756059  1
  O  O350  1  0.71374343  0.08202237  0.55799805  1
  O  O351  1  0.71341726  0.08396709  0.80633827  1
  O  O352  1  0.71178723  0.41767779  0.05664826  1
  O  O353  1  0.71290845  0.41620586  0.30879458  1
  O  O354  1  0.71365231  0.41475151  0.55647098  1
  O  O355  1  0.71218384  0.41515975  0.80703882  1
  O  O356  1  0.71355766  0.75304796  0.05781381  1
  O  O357  1  0.71190081  0.75130139  0.30718222  1
  O  O358  1  0.71124807  0.75016554  0.55815409  1
  O  O359  1  0.71226548  0.75049295  0.80866745  1
  O  O360  1  0.28764095  0.24989113  0.19364139  1
  O  O361  1  0.28742379  0.24991992  0.44115424  1
  O  O362  1  0.28710120  0.25037645  0.69413680  1
  O  O363  1  0.28786002  0.25059427  0.94116136  1
  O  O364  1  0.28680376  0.58387786  0.19340404  1
  O  O365  1  0.28734007  0.58321787  0.44133358  1
  O  O366  1  0.28718462  0.58352363  0.69435199  1
  O  O367  1  0.28630784  0.58469395  0.94232818  1
  O  O368  1  0.28751647  0.91742713  0.19098564  1
  O  O369  1  0.28895608  0.91621138  0.44193950  1
  O  O370  1  0.28753173  0.91753825  0.69320095  1
  O  O371  1  0.28600998  0.91855331  0.94220332  1
  O  O372  1  0.78796903  0.25041091  0.19273526  1
  O  O373  1  0.78661131  0.25018476  0.44299240  1
  O  O374  1  0.78635013  0.24817746  0.69114865  1
  O  O375  1  0.78732844  0.24911652  0.94087790  1
  O  O376  1  0.78708571  0.58291685  0.19262222  1
  O  O377  1  0.78668612  0.58200370  0.44106214  1
  O  O378  1  0.78644995  0.58131960  0.69216964  1
  O  O379  1  0.78645112  0.58294419  0.94105320  1
  O  O380  1  0.78682671  0.91776346  0.19203814  1
  O  O381  1  0.78705488  0.91861235  0.44239836  1
  O  O382  1  0.78658661  0.91634375  0.69232691  1
  O  O383  1  0.78632350  0.91657463  0.94317560  1
  O  O384  1  0.22907819  0.25007786  0.05678509  1
  O  O385  1  0.22803684  0.25055029  0.30924374  1
  O  O386  1  0.22840178  0.25039676  0.55670777  1
  O  O387  1  0.22761527  0.25117373  0.80981519  1
  O  O388  1  0.22759523  0.58520642  0.05836800  1
  O  O389  1  0.22740086  0.58396423  0.30922016  1
  O  O390  1  0.22825863  0.58318939  0.55680404  1
  O  O391  1  0.22710281  0.58416510  0.80957282  1
  O  O392  1  0.22772186  0.91854872  0.05837915  1
  O  O393  1  0.22923749  0.91660570  0.30675146  1
  O  O394  1  0.22900928  0.91656309  0.55663535  1
  O  O395  1  0.22786544  0.91810212  0.80823134  1
  O  O396  1  0.72863993  0.24949506  0.05639606  1
  O  O397  1  0.72843710  0.25094378  0.30803509  1
  O  O398  1  0.72703896  0.25029823  0.55872650  1
  O  O399  1  0.72781211  0.24760495  0.80732947  1
  O  O400  1  0.72776288  0.58421888  0.05658346  1
  O  O401  1  0.72752426  0.58182828  0.30776492  1
  O  O402  1  0.72767450  0.58213687  0.55638210  1
  O  O403  1  0.72744038  0.58163759  0.80778884  1
  O  O404  1  0.72732389  0.91757999  0.05920183  1
  O  O405  1  0.72800739  0.91891204  0.30790799  1
  O  O406  1  0.72762819  0.91856301  0.55784270  1
  O  O407  1  0.72757369  0.91538488  0.80795025  1
  O  O408  1  0.27265380  0.08169304  0.19187517  1
  O  O409  1  0.27286630  0.08479866  0.44233997  1
  O  O410  1  0.27204026  0.08373040  0.69386655  1
  O  O411  1  0.27293780  0.08307160  0.94105815  1
  O  O412  1  0.27183242  0.41718535  0.19364549  1
  O  O413  1  0.27321215  0.41584366  0.44074303  1
  O  O414  1  0.27229933  0.41684778  0.69382597  1
  O  O415  1  0.27302057  0.41645158  0.94139672  1
  O  O416  1  0.27203350  0.74838879  0.19170274  1
  O  O417  1  0.27235322  0.74798378  0.44203385  1
  O  O418  1  0.27147947  0.74987217  0.69433443  1
  O  O419  1  0.27160252  0.74918720  0.94244920  1
  O  O420  1  0.77231332  0.08139695  0.19193458  1
  O  O421  1  0.77249022  0.08170167  0.44191577  1
  O  O422  1  0.77286741  0.08252308  0.69054727  1
  O  O423  1  0.77184087  0.08486684  0.94130777  1
  O  O424  1  0.77142877  0.41656370  0.19306619  1
  O  O425  1  0.77291604  0.41533402  0.44056446  1
  O  O426  1  0.77156074  0.41375032  0.69169416  1
  O  O427  1  0.77125296  0.41773295  0.94127742  1
  O  O428  1  0.77185747  0.75196977  0.19225409  1
  O  O429  1  0.77064786  0.75036686  0.44323009  1
  O  O430  1  0.77096605  0.74993327  0.69311029  1
  O  O431  1  0.77182168  0.75209966  0.94160697  1
  O  O432  1  0.02229178  0.08501785  0.18360815  1
  O  O433  1  0.02314668  0.08364786  0.43488340  1
  O  O434  1  0.02237025  0.08153315  0.68315108  1
  O  O435  1  0.02167465  0.08301445  0.93152576  1
  O  O436  1  0.02128008  0.41658455  0.18198122  1
  O  O437  1  0.02216276  0.41760847  0.43314044  1
  O  O438  1  0.02279499  0.41652523  0.68374699  1
  O  O439  1  0.02236175  0.41848043  0.93264444  1
  O  O440  1  0.02190487  0.74783855  0.18336868  1
  O  O441  1  0.02242158  0.74991519  0.43466490  1
  O  O442  1  0.02105202  0.74940800  0.68126683  1
  O  O443  1  0.02099554  0.74944985  0.93125591  1
  O  O444  1  0.52224457  0.08525345  0.18339561  1
  O  O445  1  0.52304745  0.08293649  0.43479251  1
  O  O446  1  0.52274511  0.08366701  0.68431490  1
  O  O447  1  0.52266286  0.08147206  0.93283747  1
  O  O448  1  0.52183494  0.41842865  0.18323535  1
  O  O449  1  0.52340024  0.41713873  0.43415686  1
  O  O450  1  0.52143896  0.41683336  0.68164262  1
  O  O451  1  0.52219523  0.41900896  0.93306343  1
  O  O452  1  0.52222647  0.75192616  0.18285477  1
  O  O453  1  0.52131254  0.75003185  0.43210014  1
  O  O454  1  0.52220606  0.74953250  0.68492013  1
  O  O455  1  0.52272047  0.75136896  0.93425025  1
  O  O456  1  0.47892700  0.25036000  0.06808869  1
  O  O457  1  0.47775832  0.24835875  0.31705566  1
  O  O458  1  0.47702680  0.24876011  0.56560566  1
  O  O459  1  0.47797267  0.24831476  0.81663713  1
  O  O460  1  0.47687234  0.58362182  0.06569214  1
  O  O461  1  0.47775791  0.58199230  0.31660461  1
  O  O462  1  0.47799661  0.58137011  0.56673233  1
  O  O463  1  0.47738627  0.58565834  0.81716779  1
  O  O464  1  0.47702585  0.91729000  0.06524759  1
  O  O465  1  0.47817677  0.91538863  0.31650167  1
  O  O466  1  0.47756255  0.91868101  0.56715410  1
  O  O467  1  0.47688585  0.91777004  0.81588358  1
  O  O468  1  0.97915495  0.25036322  0.06845402  1
  O  O469  1  0.97788187  0.24826892  0.31740974  1
  O  O470  1  0.97823481  0.24866218  0.56707959  1
  O  O471  1  0.97802963  0.25128010  0.81665316  1
  O  O472  1  0.97788964  0.58091300  0.06663019  1
  O  O473  1  0.97753483  0.58492151  0.31725263  1
  O  O474  1  0.97736954  0.58243648  0.56545901  1
  O  O475  1  0.97736187  0.58115148  0.81622516  1
  O  O476  1  0.97826593  0.91624280  0.06894301  1
  O  O477  1  0.97878972  0.91653711  0.31886080  1
  O  O478  1  0.97768790  0.91595963  0.56518969  1
  O  O479  1  0.97770799  0.91820221  0.81643977  1
  O  O480  1  0.07480660  0.31327646  0.07572333  1
  O  O481  1  0.07281259  0.31251236  0.32589675  1
  O  O482  1  0.07381978  0.31222538  0.57480579  1
  O  O483  1  0.07288116  0.31504442  0.82346557  1
  O  O484  1  0.07296091  0.64536015  0.07363446  1
  O  O485  1  0.07240892  0.64820765  0.32484709  1
  O  O486  1  0.07237305  0.64613904  0.57388850  1
  O  O487  1  0.07221914  0.64550457  0.82422108  1
  O  O488  1  0.07379971  0.97962606  0.07554861  1
  O  O489  1  0.07432986  0.97972866  0.32630254  1
  O  O490  1  0.07265624  0.97998549  0.57296666  1
  O  O491  1  0.07308744  0.98104057  0.82377659  1
  O  O492  1  0.57393611  0.31422718  0.07573523  1
  O  O493  1  0.57296458  0.31201312  0.32586624  1
  O  O494  1  0.57128027  0.31325731  0.57306892  1
  O  O495  1  0.57301721  0.31261112  0.82392658  1
  O  O496  1  0.57121946  0.64815038  0.07357404  1
  O  O497  1  0.57321143  0.64522364  0.32461927  1
  O  O498  1  0.57282519  0.64626383  0.57421070  1
  O  O499  1  0.57257320  0.64877576  0.82498719  1
  O  O500  1  0.57158509  0.98132497  0.07321709  1
  O  O501  1  0.57348813  0.97904978  0.32441701  1
  O  O502  1  0.57270109  0.98152263  0.57463802  1
  O  O503  1  0.57275590  0.98002139  0.82385625  1
  O  O504  1  0.42697543  0.02139729  0.17580138  1
  O  O505  1  0.42837912  0.01916526  0.42665120  1
  O  O506  1  0.42753636  0.02010836  0.67642655  1
  O  O507  1  0.42734973  0.01888039  0.92554188  1
  O  O508  1  0.42642169  0.35506808  0.17521525  1
  O  O509  1  0.42924525  0.35235599  0.42630724  1
  O  O510  1  0.42632757  0.35294358  0.67421686  1
  O  O511  1  0.42738956  0.35441432  0.92557784  1
  O  O512  1  0.42694542  0.68841552  0.17405269  1
  O  O513  1  0.42632251  0.68621986  0.42428987  1
  O  O514  1  0.42684874  0.68649390  0.67708398  1
  O  O515  1  0.42822458  0.68723415  0.92740527  1
  O  O516  1  0.92715187  0.02083657  0.17639681  1
  O  O517  1  0.92837362  0.01967055  0.42656616  1
  O  O518  1  0.92746919  0.01811047  0.67508566  1
  O  O519  1  0.92572840  0.02027631  0.92515179  1
  O  O520  1  0.92594902  0.35321433  0.17474297  1
  O  O521  1  0.92677410  0.35394298  0.42558995  1
  O  O522  1  0.92819489  0.35229785  0.67579055  1
  O  O523  1  0.92746255  0.35388825  0.92447053  1
  O  O524  1  0.92668844  0.68463825  0.17639604  1
  O  O525  1  0.92731188  0.68617803  0.42707613  1
  O  O526  1  0.92557662  0.68608155  0.67343109  1
  O  O527  1  0.92546258  0.68622595  0.92417084  1
  O  O528  1  0.17709298  0.01936411  0.19971074  1
  O  O529  1  0.17758746  0.02077471  0.44968235  1
  O  O530  1  0.17651131  0.02055538  0.70029241  1
  O  O531  1  0.17730450  0.02008371  0.94849515  1
  O  O532  1  0.17676493  0.35318186  0.20081419  1
  O  O533  1  0.17757932  0.35305653  0.44839335  1
  O  O534  1  0.17682474  0.35361727  0.70055805  1
  O  O535  1  0.17749831  0.35360854  0.94876175  1
  O  O536  1  0.17704105  0.68468046  0.19916562  1
  O  O537  1  0.17689043  0.68526560  0.44928478  1
  O  O538  1  0.17585137  0.68640302  0.70043358  1
  O  O539  1  0.17644775  0.68571843  0.94938055  1
  O  O540  1  0.67652918  0.01914632  0.19847812  1
  O  O541  1  0.67714870  0.01882656  0.44921922  1
  O  O542  1  0.67767153  0.01926511  0.69893634  1
  O  O543  1  0.67666140  0.02087522  0.94891682  1
  O  O544  1  0.67617876  0.35288613  0.20030186  1
  O  O545  1  0.67766389  0.35183332  0.44802037  1
  O  O546  1  0.67625556  0.35093942  0.69863742  1
  O  O547  1  0.67578930  0.35418934  0.94888736  1
  O  O548  1  0.67638205  0.68821337  0.19893458  1
  O  O549  1  0.67507623  0.68706638  0.44980587  1
  O  O550  1  0.67594990  0.68602487  0.70100476  1
  O  O551  1  0.67641199  0.68880120  0.95082506  1
  O  O552  1  0.32417005  0.31403157  0.04979032  1
  O  O553  1  0.32348785  0.31354303  0.30180110  1
  O  O554  1  0.32372384  0.31382044  0.54942364  1
  O  O555  1  0.32330668  0.31392669  0.80205432  1
  O  O556  1  0.32289076  0.64817192  0.05090628  1
  O  O557  1  0.32304936  0.64696403  0.30167076  1
  O  O558  1  0.32387173  0.64628156  0.55008351  1
  O  O559  1  0.32227449  0.64761280  0.80261351  1
  O  O560  1  0.32295583  0.98176333  0.05059064  1
  O  O561  1  0.32491054  0.97977412  0.29951780  1
  O  O562  1  0.32448087  0.97997644  0.55012363  1
  O  O563  1  0.32299262  0.98162503  0.80159623  1
  O  O564  1  0.82339890  0.31391422  0.04843017  1
  O  O565  1  0.82373558  0.31402851  0.30129331  1
  O  O566  1  0.82277273  0.31288170  0.55171526  1
  O  O567  1  0.82297725  0.31147490  0.79924872  1
  O  O568  1  0.82334237  0.64710738  0.04865579  1
  O  O569  1  0.82272053  0.64613629  0.30060641  1
  O  O570  1  0.82269521  0.64605181  0.54917965  1
  O  O571  1  0.82305747  0.64488178  0.79968993  1
  O  O572  1  0.82232136  0.98108092  0.05089834  1
  O  O573  1  0.82360760  0.98134617  0.30066124  1
  O  O574  1  0.82316582  0.98122638  0.55163385  1
  O  O575  1  0.82283561  0.97926898  0.80052170  1
  O  O576  1  0.42723205  0.14847380  0.17619426  1
  O  O577  1  0.42781628  0.14642292  0.42705074  1
  O  O578  1  0.42773068  0.14723783  0.67669933  1
  O  O579  1  0.42769268  0.14577574  0.92458041  1
  O  O580  1  0.42678553  0.48209400  0.17640723  1
  O  O581  1  0.42783223  0.47978992  0.42662406  1
  O  O582  1  0.42566530  0.47962985  0.67432702  1
  O  O583  1  0.42680262  0.48176047  0.92565058  1
  O  O584  1  0.42734478  0.81547695  0.17511166  1
  O  O585  1  0.42571692  0.81308707  0.42491240  1
  O  O586  1  0.42786179  0.81401857  0.67752289  1
  O  O587  1  0.42729328  0.81432557  0.92599260  1
  O  O588  1  0.92698050  0.14805779  0.17690219  1
  O  O589  1  0.92779497  0.14700092  0.42761982  1
  O  O590  1  0.92707187  0.14511703  0.67413695  1
  O  O591  1  0.92675473  0.14716732  0.92386767  1
  O  O592  1  0.92568693  0.48001573  0.17529883  1
  O  O593  1  0.92717269  0.48114661  0.42620562  1
  O  O594  1  0.92732313  0.47964341  0.67606485  1
  O  O595  1  0.92688403  0.48081805  0.92492697  1
  O  O596  1  0.92672127  0.81188062  0.17615980  1
  O  O597  1  0.92746830  0.81353606  0.42619369  1
  O  O598  1  0.92568859  0.81285689  0.67343929  1
  O  O599  1  0.92582555  0.81327043  0.92485119  1
  O  O600  1  0.07447466  0.18646214  0.07446597  1
  O  O601  1  0.07320608  0.18533839  0.32479950  1
  O  O602  1  0.07318715  0.18516563  0.57511255  1
  O  O603  1  0.07344190  0.18781572  0.82456584  1
  O  O604  1  0.07321467  0.51826041  0.07418729  1
  O  O605  1  0.07285358  0.52124493  0.32578985  1
  O  O606  1  0.07250357  0.51875626  0.57289143  1
  O  O607  1  0.07288059  0.51844993  0.82302906  1
  O  O608  1  0.07360575  0.85255484  0.07538155  1
  O  O609  1  0.07409980  0.85297935  0.32629016  1
  O  O610  1  0.07279047  0.85262274  0.57381113  1
  O  O611  1  0.07273209  0.85382159  0.82416672  1
  O  O612  1  0.57468466  0.18737318  0.07530875  1
  O  O613  1  0.57275165  0.18500630  0.32508309  1
  O  O614  1  0.57268297  0.18598718  0.57332971  1
  O  O615  1  0.57322255  0.18533994  0.82341359  1
  O  O616  1  0.57244198  0.52073320  0.07305232  1
  O  O617  1  0.57271663  0.51818526  0.32362162  1
  O  O618  1  0.57356435  0.51915357  0.57459230  1
  O  O619  1  0.57258447  0.52180534  0.82487990  1
  O  O620  1  0.57236608  0.85406873  0.07271855  1
  O  O621  1  0.57293930  0.85193344  0.32362451  1
  O  O622  1  0.57254759  0.85450495  0.57586313  1
  O  O623  1  0.57096020  0.85294981  0.82318800  1
  O  O624  1  0.32478380  0.18730548  0.04936209  1
  O  O625  1  0.32249266  0.18600487  0.30184055  1
  O  O626  1  0.32387845  0.18714933  0.54998799  1
  O  O627  1  0.32187696  0.18647061  0.80249754  1
  O  O628  1  0.32260394  0.52121119  0.05042065  1
  O  O629  1  0.32175379  0.51964237  0.30176156  1
  O  O630  1  0.32353555  0.51961629  0.54968796  1
  O  O631  1  0.32191125  0.52011552  0.80293319  1
  O  O632  1  0.32270642  0.85456320  0.04939424  1
  O  O633  1  0.32431508  0.85292098  0.29829987  1
  O  O634  1  0.32432143  0.85287250  0.55051557  1
  O  O635  1  0.32329977  0.85447406  0.80135518  1
  O  O636  1  0.82462974  0.18699696  0.04951862  1
  O  O637  1  0.82345253  0.18689278  0.30081262  1
  O  O638  1  0.82126211  0.18556593  0.55101359  1
  O  O639  1  0.82301173  0.18450324  0.79953823  1
  O  O640  1  0.82302542  0.52021403  0.04951633  1
  O  O641  1  0.82279236  0.51884908  0.30100959  1
  O  O642  1  0.82344430  0.51914723  0.54930418  1
  O  O643  1  0.82209071  0.51753272  0.80039817  1
  O  O644  1  0.82236006  0.85373911  0.05190478  1
  O  O645  1  0.82295822  0.85444276  0.30040012  1
  O  O646  1  0.82253503  0.85419160  0.54986698  1
  O  O647  1  0.82273136  0.85221922  0.80055982  1
  O  O648  1  0.17784811  0.14650074  0.19954138  1
  O  O649  1  0.17768482  0.14800747  0.44868830  1
  O  O650  1  0.17666904  0.14733395  0.70111653  1
  O  O651  1  0.17857744  0.14740960  0.94863142  1
  O  O652  1  0.17614871  0.47995139  0.20129898  1
  O  O653  1  0.17887436  0.48048846  0.44790352  1
  O  O654  1  0.17699465  0.48028365  0.70062057  1
  O  O655  1  0.17872240  0.48109799  0.94849170  1
  O  O656  1  0.17666477  0.81178487  0.20057299  1
  O  O657  1  0.17746855  0.81250011  0.44914805  1
  O  O658  1  0.17609878  0.81329289  0.70063290  1
  O  O659  1  0.17624595  0.81278871  0.95104693  1
  O  O660  1  0.67759212  0.14617009  0.20015733  1
  O  O661  1  0.67749849  0.14574380  0.45016235  1
  O  O662  1  0.67818387  0.14657444  0.69704753  1
  O  O663  1  0.67667353  0.14790230  0.94886059  1
  O  O664  1  0.67581342  0.47961063  0.20057072  1
  O  O665  1  0.67827201  0.47930620  0.44857418  1
  O  O666  1  0.67628089  0.47798557  0.69876824  1
  O  O667  1  0.67641850  0.48148029  0.94812229  1
  O  O668  1  0.67679161  0.81546565  0.19873645  1
  O  O669  1  0.67535424  0.81408095  0.45029249  1
  O  O670  1  0.67525717  0.81297001  0.70026683  1
  O  O671  1  0.67695958  0.81591305  0.94905763  1
