# generated using pymatgen
data_Na2MnFe(PO4)2
_symmetry_space_group_name_H-M   'P 1'
_cell_length_a   22.34288456
_cell_length_b   20.09353040
_cell_length_c   19.44994629
_cell_angle_alpha   90.01308355
_cell_angle_beta   89.98686511
_cell_angle_gamma   89.99888298
_symmetry_Int_Tables_number   1
_chemical_formula_structural   Na2MnFe(PO4)2
_chemical_formula_sum   'Na96 Mn48 Fe48 P96 O384'
_cell_volume   8732.00294522
_cell_formula_units_Z   48
loop_
 _symmetry_equiv_pos_site_id
 _symmetry_equiv_pos_as_xyz
  1  'x, y, z'
loop_
 _atom_site_type_symbol
 _atom_site_label
 _atom_site_symmetry_multiplicity
 _atom_site_fract_x
 _atom_site_fract_y
 _atom_site_fract_z
 _atom_site_occupancy
  Na  Na0  1  0.14011348  0.24812710  0.24360066  1
  Na  Na1  1  0.14122716  0.25010293  0.49241060  1
  Na  Na2  1  0.14087499  0.24927520  0.74416686  1
  Na  Na3  1  0.14038421  0.25043385  0.99483015  1
  Na  Na4  1  0.14042687  0.58039068  0.24361684  1
  Na  Na5  1  0.14091139  0.58279804  0.49313624  1
  Na  Na6  1  0.14071494  0.58255896  0.74403439  1
  Na  Na7  1  0.14014113  0.58309926  0.99361603  1
  Na  Na8  1  0.14032342  0.91508698  0.24480038  1
  Na  Na9  1  0.14047367  0.91741249  0.49285424  1
  Na  Na10  1  0.14008341  0.91611396  0.74260333  1
  Na  Na11  1  0.14031465  0.91585940  0.99354448  1
  Na  Na12  1  0.64039060  0.25071784  0.24501923  1
  Na  Na13  1  0.64056840  0.25058870  0.49376351  1
  Na  Na14  1  0.64054857  0.25176131  0.74318916  1
  Na  Na15  1  0.64025631  0.25127984  0.99334537  1
  Na  Na16  1  0.63997224  0.58308785  0.24406959  1
  Na  Na17  1  0.63987142  0.58391794  0.49350608  1
  Na  Na18  1  0.64049839  0.58343454  0.74319322  1
  Na  Na19  1  0.63994444  0.58297596  0.99365221  1
  Na  Na20  1  0.64001139  0.91666326  0.24399402  1
  Na  Na21  1  0.64068779  0.91777546  0.49342204  1
  Na  Na22  1  0.63998285  0.91799451  0.74300344  1
  Na  Na23  1  0.63995088  0.91729739  0.99322838  1
  Na  Na24  1  0.35952233  0.08349316  0.00673647  1
  Na  Na25  1  0.35915944  0.08224951  0.25752290  1
  Na  Na26  1  0.35975968  0.08481964  0.50587629  1
  Na  Na27  1  0.35967688  0.08264051  0.75524807  1
  Na  Na28  1  0.36008382  0.41774807  0.00667643  1
  Na  Na29  1  0.35942823  0.41525993  0.25678250  1
  Na  Na30  1  0.35990642  0.41745625  0.50703971  1
  Na  Na31  1  0.36019539  0.41666349  0.75632857  1
  Na  Na32  1  0.35987913  0.75034006  0.00686689  1
  Na  Na33  1  0.35910141  0.74930130  0.25595983  1
  Na  Na34  1  0.35939637  0.75144533  0.50682957  1
  Na  Na35  1  0.35982508  0.74959989  0.75678841  1
  Na  Na36  1  0.85962635  0.08471623  0.00541966  1
  Na  Na37  1  0.85942077  0.08249656  0.25739260  1
  Na  Na38  1  0.85976498  0.08275869  0.50633521  1
  Na  Na39  1  0.85978322  0.08467138  0.75617244  1
  Na  Na40  1  0.85952997  0.41697376  0.00715112  1
  Na  Na41  1  0.86003013  0.41624434  0.25682237  1
  Na  Na42  1  0.85973889  0.41630244  0.50600740  1
  Na  Na43  1  0.85949840  0.41627544  0.75552407  1
  Na  Na44  1  0.85986134  0.74959058  0.00649731  1
  Na  Na45  1  0.85864205  0.74902387  0.25601739  1
  Na  Na46  1  0.85926613  0.74974143  0.50632095  1
  Na  Na47  1  0.85995295  0.75022010  0.75511993  1
  Na  Na48  1  0.10974657  0.08230981  0.11955170  1
  Na  Na49  1  0.11005728  0.08240783  0.36800588  1
  Na  Na50  1  0.10983975  0.08119426  0.61755417  1
  Na  Na51  1  0.10957207  0.08338535  0.86947972  1
  Na  Na52  1  0.10982526  0.41494077  0.11907478  1
  Na  Na53  1  0.10997500  0.41525410  0.36761591  1
  Na  Na54  1  0.11031220  0.41575079  0.61821225  1
  Na  Na55  1  0.10990435  0.41824086  0.86927584  1
  Na  Na56  1  0.10937418  0.74810181  0.11845862  1
  Na  Na57  1  0.10949198  0.74934333  0.36898987  1
  Na  Na58  1  0.11002390  0.74863630  0.61801222  1
  Na  Na59  1  0.10967860  0.75050292  0.86876084  1
  Na  Na60  1  0.60938148  0.08327264  0.11932859  1
  Na  Na61  1  0.61020550  0.08449603  0.36866624  1
  Na  Na62  1  0.60992621  0.08471502  0.61829148  1
  Na  Na63  1  0.60920197  0.08471786  0.86765500  1
  Na  Na64  1  0.60959411  0.41795292  0.11795739  1
  Na  Na65  1  0.60984229  0.41782014  0.37019202  1
  Na  Na66  1  0.60997223  0.41688216  0.61740802  1
  Na  Na67  1  0.60995214  0.41718308  0.86899023  1
  Na  Na68  1  0.60921029  0.74951960  0.11819927  1
  Na  Na69  1  0.60939632  0.75093970  0.36901209  1
  Na  Na70  1  0.60938805  0.75081546  0.61855655  1
  Na  Na71  1  0.60934160  0.75134740  0.86938267  1
  Na  Na72  1  0.39046928  0.25051279  0.13177401  1
  Na  Na73  1  0.39006624  0.25116957  0.38273005  1
  Na  Na74  1  0.39041286  0.25021151  0.63049663  1
  Na  Na75  1  0.39064895  0.25138611  0.88112903  1
  Na  Na76  1  0.39000989  0.58367661  0.13038218  1
  Na  Na77  1  0.39010665  0.58293670  0.38277451  1
  Na  Na78  1  0.39057568  0.58384049  0.63202779  1
  Na  Na79  1  0.39043090  0.58374878  0.88291494  1
  Na  Na80  1  0.39005408  0.91644719  0.13174945  1
  Na  Na81  1  0.38966579  0.91791126  0.38220516  1
  Na  Na82  1  0.39033657  0.91735887  0.63119970  1
  Na  Na83  1  0.39050478  0.91631649  0.88057162  1
  Na  Na84  1  0.89069257  0.24961134  0.13135004  1
  Na  Na85  1  0.89049944  0.24923266  0.38205243  1
  Na  Na86  1  0.89010385  0.24895258  0.63175218  1
  Na  Na87  1  0.88986193  0.25071882  0.88146171  1
  Na  Na88  1  0.88954959  0.58162850  0.13190500  1
  Na  Na89  1  0.89011998  0.58234172  0.38052426  1
  Na  Na90  1  0.89066009  0.58237060  0.63012300  1
  Na  Na91  1  0.89057977  0.58456560  0.88123096  1
  Na  Na92  1  0.89037103  0.91667032  0.13114890  1
  Na  Na93  1  0.88971308  0.91588260  0.38252042  1
  Na  Na94  1  0.89039820  0.91523899  0.63027918  1
  Na  Na95  1  0.89072500  0.91789330  0.88018985  1
  Mn  Mn96  1  0.74989597  0.66708249  0.62419844  1
  Mn  Mn97  1  0.25022938  0.50008365  0.62506645  1
  Mn  Mn98  1  -0.00037585  0.50075770  0.74944361  1
  Mn  Mn99  1  0.49949259  0.50061231  0.25041519  1
  Mn  Mn100  1  0.75019804  0.00094229  0.62455392  1
  Mn  Mn101  1  0.75034294  0.83294005  0.12485047  1
  Mn  Mn102  1  0.25065157  0.33404946  0.87483475  1
  Mn  Mn103  1  0.24935527  0.83249923  0.12520160  1
  Mn  Mn104  1  0.50055793  0.49997882  0.75055192  1
  Mn  Mn105  1  0.50013597  0.33419996  0.25060740  1
  Mn  Mn106  1  0.74982624  0.33372812  0.37516071  1
  Mn  Mn107  1  0.49879504  0.83420604  0.24996753  1
  Mn  Mn108  1  0.00041473  0.83322462  0.74933537  1
  Mn  Mn109  1  0.00015651  0.66520386  0.49912256  1
  Mn  Mn110  1  0.75106474  0.49942100  0.87439972  1
  Mn  Mn111  1  0.00055479  0.33296108  0.49968951  1
  Mn  Mn112  1  0.49995123  0.16784292  0.74985898  1
  Mn  Mn113  1  0.74973298  0.66630249  0.37521376  1
  Mn  Mn114  1  0.50061961  0.66781047  0.75094589  1
  Mn  Mn115  1  0.74959996  0.16700681  0.12505469  1
  Mn  Mn116  1  -0.00031807  0.00022487  0.00058609  1
  Mn  Mn117  1  0.49984327  0.66691700  0.24990303  1
  Mn  Mn118  1  0.00078598  0.16517115  0.50051795  1
  Mn  Mn119  1  0.75068505  0.33389497  0.12536748  1
  Mn  Mn120  1  0.49941170  0.16778937  -0.00059520  1
  Mn  Mn121  1  0.25024679  0.16607493  0.12588108  1
  Mn  Mn122  1  0.24986598  0.83357846  0.62488354  1
  Mn  Mn123  1  -0.00035621  0.66627462  0.00007397  1
  Mn  Mn124  1  0.75011258  0.83387944  0.87525149  1
  Mn  Mn125  1  0.49923861  -0.00042923  -0.00082556  1
  Mn  Mn126  1  0.24992879  0.16686282  0.62418065  1
  Mn  Mn127  1  0.24952018  -0.00051104  0.87498642  1
  Mn  Mn128  1  0.25031759  0.16650085  0.87515905  1
  Mn  Mn129  1  -0.00004682  0.33313475  0.00053678  1
  Mn  Mn130  1  0.00090702  0.16570162  0.75010891  1
  Mn  Mn131  1  0.25000148  0.66633646  0.37514042  1
  Mn  Mn132  1  0.50033836  0.16700895  0.25020802  1
  Mn  Mn133  1  0.00025235  0.33354664  0.75073218  1
  Mn  Mn134  1  0.74963402  0.00040377  0.12520334  1
  Mn  Mn135  1  -0.00055432  0.66517963  0.24929991  1
  Mn  Mn136  1  0.50071118  0.00132113  0.50068960  1
  Mn  Mn137  1  0.25053584  0.83210933  0.87457906  1
  Mn  Mn138  1  0.50068192  0.83386572  0.50017923  1
  Mn  Mn139  1  0.00034363  -0.00045856  0.24987706  1
  Mn  Mn140  1  -0.00058685  0.83255749  0.25017636  1
  Mn  Mn141  1  0.25023857  0.49915307  0.12523650  1
  Mn  Mn142  1  0.75000288  0.66672859  0.87454584  1
  Mn  Mn143  1  0.75024266  0.00177508  0.87366462  1
  Fe  Fe144  1  0.00035838  0.49906374  0.49961256  1
  Fe  Fe145  1  -0.00029396  -0.00113529  0.49951066  1
  Fe  Fe146  1  0.74924901  0.49987564  0.12494533  1
  Fe  Fe147  1  0.74972704  0.83394296  0.62453674  1
  Fe  Fe148  1  0.50030109  0.83395461  -0.00002210  1
  Fe  Fe149  1  0.49959996  0.50052101  -0.00031894  1
  Fe  Fe150  1  0.25030255  0.33364619  0.62478954  1
  Fe  Fe151  1  0.49986722  0.00058532  0.74971767  1
  Fe  Fe152  1  0.24982035  -0.00106111  0.12585381  1
  Fe  Fe153  1  0.25005193  0.50004962  0.87540843  1
  Fe  Fe154  1  0.74998776  0.33377872  0.87439466  1
  Fe  Fe155  1  0.74928105  0.83302223  0.37472045  1
  Fe  Fe156  1  0.00013731  0.16655967  0.00021159  1
  Fe  Fe157  1  0.25009847  0.33308491  0.37495361  1
  Fe  Fe158  1  0.50007136  0.33373509  0.50051896  1
  Fe  Fe159  1  0.00020953  0.49871710  0.25017837  1
  Fe  Fe160  1  0.50028458  0.33397958  0.74939618  1
  Fe  Fe161  1  0.49974467  0.00056452  0.24998499  1
  Fe  Fe162  1  0.74985384  0.16746916  0.62487695  1
  Fe  Fe163  1  0.25007977  0.16631772  0.37479418  1
  Fe  Fe164  1  0.25033974  0.33246040  0.12580219  1
  Fe  Fe165  1  0.75027645  0.50003015  0.62477367  1
  Fe  Fe166  1  -0.00074388  0.16586759  0.25026106  1
  Fe  Fe167  1  0.49998667  0.16728804  0.50011892  1
  Fe  Fe168  1  0.50014767  0.33427312  0.00025624  1
  Fe  Fe169  1  0.50023017  0.50041909  0.50083102  1
  Fe  Fe170  1  0.49982106  0.66744464  -0.00006252  1
  Fe  Fe171  1  0.75048899  0.16685907  0.37546773  1
  Fe  Fe172  1  0.00040832  0.66672128  0.74961542  1
  Fe  Fe173  1  0.24956140  0.83296618  0.37502623  1
  Fe  Fe174  1  0.00014602  0.33247543  0.24988150  1
  Fe  Fe175  1  0.74963989  0.16817809  0.87480742  1
  Fe  Fe176  1  0.24982590  0.66599135  0.87539075  1
  Fe  Fe177  1  -0.00010353  0.83207204  0.50013319  1
  Fe  Fe178  1  -0.00013418  0.83338669  -0.00078537  1
  Fe  Fe179  1  0.24998220  -0.00043225  0.37500511  1
  Fe  Fe180  1  0.49972722  0.83374254  0.75010349  1
  Fe  Fe181  1  0.25057441  0.49940106  0.37499315  1
  Fe  Fe182  1  0.75035700  0.33335834  0.62478695  1
  Fe  Fe183  1  0.74930861  0.66602564  0.12565093  1
  Fe  Fe184  1  0.25006333  0.00048193  0.62392157  1
  Fe  Fe185  1  0.00030794  -0.00061311  0.74975581  1
  Fe  Fe186  1  0.24967624  0.66568676  0.12536297  1
  Fe  Fe187  1  0.49929788  0.66732480  0.50053046  1
  Fe  Fe188  1  0.25040503  0.66630835  0.62547534  1
  Fe  Fe189  1  0.74990298  -0.00009399  0.37561414  1
  Fe  Fe190  1  0.74990166  0.49996237  0.37494114  1
  Fe  Fe191  1  -0.00028155  0.49950849  0.00049688  1
  P  P192  1  0.04197076  0.24811708  0.10355633  1
  P  P193  1  0.04123460  0.24900625  0.35146567  1
  P  P194  1  0.04356064  0.24926577  0.60295125  1
  P  P195  1  0.04305608  0.24983950  0.85390084  1
  P  P196  1  0.04181340  0.58085851  0.10283740  1
  P  P197  1  0.04233000  0.58107176  0.35238392  1
  P  P198  1  0.04282629  0.58154627  0.60202960  1
  P  P199  1  0.04214163  0.58484295  0.85257137  1
  P  P200  1  0.04233644  0.91492213  0.10228649  1
  P  P201  1  0.04211694  0.91597684  0.35415053  1
  P  P202  1  0.04156353  0.91575887  0.60131989  1
  P  P203  1  0.04253279  0.91762159  0.85246108  1
  P  P204  1  0.54234481  0.25148705  0.10235896  1
  P  P205  1  0.54249839  0.25078137  0.35446333  1
  P  P206  1  0.54163451  0.25055253  0.60176770  1
  P  P207  1  0.54210777  0.25272332  0.85249382  1
  P  P208  1  0.54093715  0.58357571  0.10120529  1
  P  P209  1  0.54209986  0.58392350  0.35448707  1
  P  P210  1  0.54136246  0.58429654  0.60199259  1
  P  P211  1  0.54270263  0.58379376  0.85424458  1
  P  P212  1  0.54205549  0.91620142  0.10263225  1
  P  P213  1  0.54189551  0.91857939  0.35242926  1
  P  P214  1  0.54299228  0.91740716  0.60413281  1
  P  P215  1  0.54151221  0.91678052  0.85143362  1
  P  P216  1  0.45726894  0.08249377  0.14759350  1
  P  P217  1  0.45806266  0.08494257  0.39744133  1
  P  P218  1  0.45819677  0.08334883  0.64718730  1
  P  P219  1  0.45699674  0.08362093  0.89598611  1
  P  P220  1  0.45747104  0.41729082  0.14634742  1
  P  P221  1  0.45867136  0.41704774  0.39941880  1
  P  P222  1  0.45852765  0.41599175  0.64680600  1
  P  P223  1  0.45855027  0.41683266  0.89826316  1
  P  P224  1  0.45703935  0.75023381  0.14594834  1
  P  P225  1  0.45731274  0.74954908  0.39801737  1
  P  P226  1  0.45784244  0.75122999  0.64760996  1
  P  P227  1  0.45858854  0.75121101  0.89837078  1
  P  P228  1  0.95752925  0.08420768  0.14750404  1
  P  P229  1  0.95806169  0.08193698  0.39737840  1
  P  P230  1  0.95813948  0.08077065  0.64705370  1
  P  P231  1  0.95777262  0.08450632  0.89733787  1
  P  P232  1  0.95867363  0.41609394  0.14835041  1
  P  P233  1  0.95827345  0.41730874  0.39661517  1
  P  P234  1  0.95749935  0.41637247  0.64638653  1
  P  P235  1  0.95748851  0.41811341  0.89797500  1
  P  P236  1  0.95667047  0.74942966  0.14616249  1
  P  P237  1  0.95723464  0.75004467  0.39750174  1
  P  P238  1  0.95833069  0.74836678  0.64665895  1
  P  P239  1  0.95770979  0.75115013  0.89686208  1
  P  P240  1  0.20806696  0.08085462  0.22864211  1
  P  P241  1  0.20886134  0.08320795  0.47635332  1
  P  P242  1  0.20757902  0.08202516  0.72659330  1
  P  P243  1  0.20728173  0.08306092  0.97890341  1
  P  P244  1  0.20812782  0.41401843  0.22831375  1
  P  P245  1  0.20898668  0.41653556  0.47663036  1
  P  P246  1  0.20803287  0.41575002  0.72760384  1
  P  P247  1  0.20798348  0.41779533  0.97796722  1
  P  P248  1  0.20732381  0.74776943  0.22783501  1
  P  P249  1  0.20769002  0.75115402  0.47776194  1
  P  P250  1  0.20808392  0.74801101  0.72768665  1
  P  P251  1  0.20780200  0.74829139  0.97774269  1
  P  P252  1  0.70742860  0.08361569  0.22950236  1
  P  P253  1  0.70895554  0.08413700  0.47705212  1
  P  P254  1  0.70786970  0.08597490  0.72738743  1
  P  P255  1  0.70713313  0.08540183  0.97673776  1
  P  P256  1  0.70760523  0.41813147  0.22783324  1
  P  P257  1  0.70838702  0.41824363  0.47830987  1
  P  P258  1  0.70879661  0.41648744  0.72621753  1
  P  P259  1  0.70814079  0.41606011  0.97740144  1
  P  P260  1  0.70716669  0.74890765  0.22777476  1
  P  P261  1  0.70759925  0.75161515  0.47773142  1
  P  P262  1  0.70771770  0.75148307  0.72694188  1
  P  P263  1  0.70739824  0.74949161  0.97867756  1
  P  P264  1  0.29254877  0.25113822  0.02309786  1
  P  P265  1  0.29135660  0.24957896  0.27345588  1
  P  P266  1  0.29194077  0.25198084  0.52158260  1
  P  P267  1  0.29310493  0.25000810  0.77126812  1
  P  P268  1  0.29171463  0.58441802  0.02212845  1
  P  P269  1  0.29241340  0.58154668  0.27266174  1
  P  P270  1  0.29261397  0.58479671  0.52269366  1
  P  P271  1  0.29199244  0.58301869  0.77364036  1
  P  P272  1  0.29213154  0.91727079  0.02305952  1
  P  P273  1  0.29130650  0.91585326  0.27338341  1
  P  P274  1  0.29207623  0.91853372  0.52155396  1
  P  P275  1  0.29267478  0.91638168  0.77117066  1
  P  P276  1  0.79270796  0.25048883  0.02121440  1
  P  P277  1  0.79250325  0.24915767  0.27321805  1
  P  P278  1  0.79153919  0.24976094  0.52303586  1
  P  P279  1  0.79161219  0.25073055  0.77241711  1
  P  P280  1  0.79114510  0.58325904  0.02362784  1
  P  P281  1  0.79162404  0.58175674  0.27189464  1
  P  P282  1  0.79193773  0.58194312  0.52185561  1
  P  P283  1  0.79289506  0.58312355  0.77085987  1
  P  P284  1  0.79283712  0.91742354  0.02174954  1
  P  P285  1  0.79110366  0.91628382  0.27378741  1
  P  P286  1  0.79161239  0.91577584  0.52162026  1
  P  P287  1  0.79262858  0.91696619  0.77082431  1
  O  O288  1  0.03618689  0.24812030  0.18341148  1
  O  O289  1  0.03700068  0.24946440  0.43148714  1
  O  O290  1  0.03877429  0.24928348  0.68291033  1
  O  O291  1  0.03770931  0.24948987  0.93385514  1
  O  O292  1  0.03664318  0.58057407  0.18277355  1
  O  O293  1  0.03731045  0.58111022  0.43233694  1
  O  O294  1  0.03752175  0.58274379  0.68191992  1
  O  O295  1  0.03683141  0.58426736  0.93245134  1
  O  O296  1  0.03716257  0.91520477  0.18226320  1
  O  O297  1  0.03670070  0.91598341  0.43406021  1
  O  O298  1  0.03680054  0.91650418  0.68135712  1
  O  O299  1  0.03725597  0.91701983  0.93238192  1
  O  O300  1  0.53742628  0.25098688  0.18237594  1
  O  O301  1  0.53703455  0.25065905  0.43435915  1
  O  O302  1  0.53668839  0.25087348  0.68174059  1
  O  O303  1  0.53673385  0.25279857  0.93240953  1
  O  O304  1  0.53639294  0.58370917  0.18124116  1
  O  O305  1  0.53689641  0.58415327  0.43439697  1
  O  O306  1  0.53701044  0.58403761  0.68205158  1
  O  O307  1  0.53728741  0.58356822  0.93410173  1
  O  O308  1  0.53661220  0.91712287  0.18255380  1
  O  O309  1  0.53740939  0.91837519  0.43243802  1
  O  O310  1  0.53749434  0.91740510  0.68399168  1
  O  O311  1  0.53641420  0.91624229  0.93143533  1
  O  O312  1  0.46191698  0.08277563  0.06756099  1
  O  O313  1  0.46315347  0.08412964  0.31749498  1
  O  O314  1  0.46353289  0.08420175  0.56724667  1
  O  O315  1  0.46254047  0.08324063  0.81606743  1
  O  O316  1  0.46265174  0.41726425  0.06643082  1
  O  O317  1  0.46298850  0.41726061  0.31938625  1
  O  O318  1  0.46392310  0.41646493  0.56694759  1
  O  O319  1  0.46337126  0.41670442  0.81827858  1
  O  O320  1  0.46232328  0.75052801  0.06606012  1
  O  O321  1  0.46217266  0.74972160  0.31801661  1
  O  O322  1  0.46321067  0.75045328  0.56768884  1
  O  O323  1  0.46350352  0.75147384  0.81838513  1
  O  O324  1  0.96282616  0.08435957  0.06756727  1
  O  O325  1  0.96294499  0.08277755  0.31740856  1
  O  O326  1  0.96337666  0.08050917  0.56707562  1
  O  O327  1  0.96323459  0.08356299  0.81743874  1
  O  O328  1  0.96327133  0.41628961  0.06836269  1
  O  O329  1  0.96376574  0.41694220  0.31672552  1
  O  O330  1  0.96280963  0.41652062  0.56645672  1
  O  O331  1  0.96250588  0.41803903  0.81802300  1
  O  O332  1  0.96190836  0.75003928  0.06619900  1
  O  O333  1  0.96206418  0.74968218  0.31751733  1
  O  O334  1  0.96352927  0.74875250  0.56672071  1
  O  O335  1  0.96333482  0.75041967  0.81692587  1
  O  O336  1  0.21254774  0.08264899  0.05885404  1
  O  O337  1  0.21367519  0.08090743  0.30849361  1
  O  O338  1  0.21352781  0.08329176  0.55632828  1
  O  O339  1  0.21254825  0.08226631  0.80654325  1
  O  O340  1  0.21311153  0.41725311  0.05785513  1
  O  O341  1  0.21345115  0.41393136  0.30813640  1
  O  O342  1  0.21373432  0.41654110  0.55661655  1
  O  O343  1  0.21333625  0.41674216  0.80749989  1
  O  O344  1  0.21252371  0.74827032  0.05772497  1
  O  O345  1  0.21274790  0.74856025  0.30769974  1
  O  O346  1  0.21289889  0.75089138  0.55763286  1
  O  O347  1  0.21350584  0.74771874  0.80762863  1
  O  O348  1  0.71190139  0.08468928  0.05677525  1
  O  O349  1  0.71297777  0.08361492  0.30939521  1
  O  O350  1  0.71370475  0.08435104  0.55705048  1
  O  O351  1  0.71311001  0.08628558  0.80730060  1
  O  O352  1  0.71323101  0.41682062  0.05734468  1
  O  O353  1  0.71263688  0.41838274  0.30779791  1
  O  O354  1  0.71388752  0.41813158  0.55812636  1
  O  O355  1  0.71365611  0.41565845  0.80618438  1
  O  O356  1  0.71259897  0.74886424  0.05863069  1
  O  O357  1  0.71260490  0.74941751  0.30774455  1
  O  O358  1  0.71310580  0.75198397  0.55764559  1
  O  O359  1  0.71279908  0.75106897  0.80692292  1
  O  O360  1  0.28674730  0.24951448  0.19345995  1
  O  O361  1  0.28647960  0.25213140  0.44175143  1
  O  O362  1  0.28762656  0.25034955  0.69133991  1
  O  O363  1  0.28763132  0.25097214  0.94312109  1
  O  O364  1  0.28719751  0.58171160  0.19276802  1
  O  O365  1  0.28779894  0.58446402  0.44284368  1
  O  O366  1  0.28703642  0.58323540  0.69363740  1
  O  O367  1  0.28633045  0.58433010  0.94226052  1
  O  O368  1  0.28593365  0.91601550  0.19342899  1
  O  O369  1  0.28660073  0.91822661  0.44168511  1
  O  O370  1  0.28758451  0.91664867  0.69122846  1
  O  O371  1  0.28717147  0.91685595  0.94309721  1
  O  O372  1  0.78762515  0.24955744  0.19327783  1
  O  O373  1  0.78652831  0.24961797  0.44310805  1
  O  O374  1  0.78656223  0.25037693  0.69247920  1
  O  O375  1  0.78738002  0.25074184  0.94130072  1
  O  O376  1  0.78605052  0.58198883  0.19202708  1
  O  O377  1  0.78653102  0.58196255  0.44191786  1
  O  O378  1  0.78751410  0.58274613  0.69095438  1
  O  O379  1  0.78675721  0.58320862  0.94356025  1
  O  O380  1  0.78653510  0.91674500  0.19376097  1
  O  O381  1  0.78614910  0.91559965  0.44174623  1
  O  O382  1  0.78713868  0.91650812  0.69087485  1
  O  O383  1  0.78783407  0.91767155  0.94178075  1
  O  O384  1  0.22820257  0.25084340  0.05856598  1
  O  O385  1  0.22713808  0.24997541  0.30913921  1
  O  O386  1  0.22787629  0.25200116  0.55793018  1
  O  O387  1  0.22884568  0.25002806  0.80686718  1
  O  O388  1  0.22765080  0.58409368  0.05848240  1
  O  O389  1  0.22815878  0.58130560  0.30841043  1
  O  O390  1  0.22825163  0.58469990  0.55822220  1
  O  O391  1  0.22775597  0.58252239  0.80953024  1
  O  O392  1  0.22773617  0.91748650  0.05848898  1
  O  O393  1  0.22721768  0.91570161  0.30959198  1
  O  O394  1  0.22793126  0.91853068  0.55776290  1
  O  O395  1  0.22831218  0.91563053  0.80644941  1
  O  O396  1  0.72843560  0.25100093  0.05686913  1
  O  O397  1  0.72812902  0.24894840  0.30856611  1
  O  O398  1  0.72739344  0.24975000  0.55907915  1
  O  O399  1  0.72751400  0.25109932  0.80883847  1
  O  O400  1  0.72682631  0.58378886  0.05921342  1
  O  O401  1  0.72753732  0.58190281  0.30815865  1
  O  O402  1  0.72777453  0.58232243  0.55779381  1
  O  O403  1  0.72859846  0.58297865  0.80631717  1
  O  O404  1  0.72835153  0.91691537  0.05670183  1
  O  O405  1  0.72686514  0.91617031  0.30941354  1
  O  O406  1  0.72758491  0.91631348  0.55794152  1
  O  O407  1  0.72836964  0.91737605  0.80639707  1
  O  O408  1  0.27212181  0.08083650  0.19227243  1
  O  O409  1  0.27302015  0.08313219  0.44059473  1
  O  O410  1  0.27196607  0.08207448  0.69115110  1
  O  O411  1  0.27164055  0.08296263  0.94349736  1
  O  O412  1  0.27230678  0.41430381  0.19221314  1
  O  O413  1  0.27323771  0.41618956  0.44090976  1
  O  O414  1  0.27229306  0.41534079  0.69173238  1
  O  O415  1  0.27229439  0.41847939  0.94225737  1
  O  O416  1  0.27151318  0.74785647  0.19184946  1
  O  O417  1  0.27191326  0.75141277  0.44191952  1
  O  O418  1  0.27226898  0.74867774  0.69174280  1
  O  O419  1  0.27220842  0.74809236  0.94235201  1
  O  O420  1  0.77163643  0.08363633  0.19362868  1
  O  O421  1  0.77307420  0.08406281  0.44114009  1
  O  O422  1  0.77211013  0.08589407  0.69155605  1
  O  O423  1  0.77160068  0.08592205  0.94157458  1
  O  O424  1  0.77198336  0.41837371  0.19238234  1
  O  O425  1  0.77238240  0.41808832  0.44183798  1
  O  O426  1  0.77297640  0.41704907  0.69040268  1
  O  O427  1  0.77242966  0.41487494  0.94167219  1
  O  O428  1  0.77141879  0.74793348  0.19192432  1
  O  O429  1  0.77175007  0.75143128  0.44172687  1
  O  O430  1  0.77203425  0.75107857  0.69147910  1
  O  O431  1  0.77177960  0.74989128  0.94336454  1
  O  O432  1  0.02184299  0.08429746  0.18312000  1
  O  O433  1  0.02241341  0.08121248  0.43278482  1
  O  O434  1  0.02244751  0.08084632  0.68269021  1
  O  O435  1  0.02190056  0.08472935  0.93348529  1
  O  O436  1  0.02288448  0.41615852  0.18403797  1
  O  O437  1  0.02246580  0.41761177  0.43271983  1
  O  O438  1  0.02180618  0.41657485  0.68178240  1
  O  O439  1  0.02188409  0.41809870  0.93329398  1
  O  O440  1  0.02104057  0.74906774  0.18144325  1
  O  O441  1  0.02166527  0.75011808  0.43265185  1
  O  O442  1  0.02253061  0.74825282  0.68254333  1
  O  O443  1  0.02183757  0.75108034  0.93301747  1
  O  O444  1  0.52174912  0.08235045  0.18271557  1
  O  O445  1  0.52235322  0.08583254  0.43309290  1
  O  O446  1  0.52230958  0.08331670  0.68309603  1
  O  O447  1  0.52119772  0.08379257  0.93162448  1
  O  O448  1  0.52178565  0.41751561  0.18185439  1
  O  O449  1  0.52294443  0.41656749  0.43478111  1
  O  O450  1  0.52267763  0.41583471  0.68294707  1
  O  O451  1  0.52271686  0.41684230  0.93420964  1
  O  O452  1  0.52123590  0.75073674  0.18171047  1
  O  O453  1  0.52174667  0.74883820  0.43325591  1
  O  O454  1  0.52209137  0.75224317  0.68342432  1
  O  O455  1  0.52272388  0.75162443  0.93431499  1
  O  O456  1  0.47792938  0.25204082  0.06706682  1
  O  O457  1  0.47828662  0.25059936  0.31870204  1
  O  O458  1  0.47745345  0.25017781  0.56582417  1
  O  O459  1  0.47790546  0.25258661  0.81661121  1
  O  O460  1  0.47677304  0.58317935  0.06553255  1
  O  O461  1  0.47780881  0.58393247  0.31888600  1
  O  O462  1  0.47708061  0.58460787  0.56659391  1
  O  O463  1  0.47851789  0.58371652  0.81847602  1
  O  O464  1  0.47777853  0.91522119  0.06683109  1
  O  O465  1  0.47741177  0.91891420  0.31737580  1
  O  O466  1  0.47879742  0.91740180  0.56839162  1
  O  O467  1  0.47736578  0.91665383  0.81534087  1
  O  O468  1  0.97798172  0.24804040  0.06695739  1
  O  O469  1  0.97691719  0.24885147  0.31619543  1
  O  O470  1  0.97901222  0.24926913  0.56823660  1
  O  O471  1  0.97875992  0.24961147  0.81840830  1
  O  O472  1  0.97751633  0.58118392  0.06718747  1
  O  O473  1  0.97798750  0.58089009  0.31685655  1
  O  O474  1  0.97852197  0.58074213  0.56626226  1
  O  O475  1  0.97790280  0.58539221  0.81671125  1
  O  O476  1  0.97799291  0.91488542  0.06680837  1
  O  O477  1  0.97790268  0.91644122  0.31842777  1
  O  O478  1  0.97736253  0.91542757  0.56545577  1
  O  O479  1  0.97832051  0.91769828  0.81658400  1
  O  O480  1  0.07311896  0.31187637  0.07582749  1
  O  O481  1  0.07161005  0.31283849  0.32281642  1
  O  O482  1  0.07455889  0.31259123  0.57443624  1
  O  O483  1  0.07372477  0.31380124  0.82617129  1
  O  O484  1  0.07293726  0.64458878  0.07527228  1
  O  O485  1  0.07299383  0.64505391  0.32461478  1
  O  O486  1  0.07376636  0.64498285  0.57351114  1
  O  O487  1  0.07291623  0.64840675  0.82406139  1
  O  O488  1  0.07335046  0.97868512  0.07476217  1
  O  O489  1  0.07365381  0.97910259  0.32556889  1
  O  O490  1  0.07237445  0.97918986  0.57251973  1
  O  O491  1  0.07300409  0.98138599  0.82401858  1
  O  O492  1  0.57329983  0.31499544  0.07422897  1
  O  O493  1  0.57359624  0.31434774  0.32626090  1
  O  O494  1  0.57237087  0.31419116  0.57339301  1
  O  O495  1  0.57296510  0.31596385  0.82347892  1
  O  O496  1  0.57115927  0.64761617  0.07294998  1
  O  O497  1  0.57338637  0.64709243  0.32565902  1
  O  O498  1  0.57233448  0.64784540  0.57393021  1
  O  O499  1  0.57382443  0.64729168  0.82594840  1
  O  O500  1  0.57289391  0.97973322  0.07407815  1
  O  O501  1  0.57255221  0.98212461  0.32394744  1
  O  O502  1  0.57430016  0.98081238  0.57583327  1
  O  O503  1  0.57184484  0.98098973  0.82361879  1
  O  O504  1  0.42680299  0.01885002  0.17620930  1
  O  O505  1  0.42717776  0.02143794  0.42581687  1
  O  O506  1  0.42770664  0.01943616  0.67523271  1
  O  O507  1  0.42557494  0.02042638  0.92430334  1
  O  O508  1  0.42651555  0.35390679  0.17521097  1
  O  O509  1  0.42748912  0.35356332  0.42741277  1
  O  O510  1  0.42767144  0.35245414  0.67524822  1
  O  O511  1  0.42736955  0.35355075  0.92675478  1
  O  O512  1  0.42620181  0.68660656  0.17428442  1
  O  O513  1  0.42614171  0.68635778  0.42661523  1
  O  O514  1  0.42719665  0.68757431  0.67611104  1
  O  O515  1  0.42858378  0.68685384  0.92639518  1
  O  O516  1  0.92673440  0.02020437  0.17508774  1
  O  O517  1  0.92712538  0.01839465  0.42563932  1
  O  O518  1  0.92727276  0.01748228  0.67587092  1
  O  O519  1  0.92639290  0.02114826  0.92551279  1
  O  O520  1  0.92843778  0.35199226  0.17674568  1
  O  O521  1  0.92723104  0.35358049  0.42460216  1
  O  O522  1  0.92674567  0.35268220  0.67466630  1
  O  O523  1  0.92649780  0.35447948  0.92582265  1
  O  O524  1  0.92583924  0.68563283  0.17404734  1
  O  O525  1  0.92621434  0.68630461  0.42511883  1
  O  O526  1  0.92774115  0.68467291  0.67507288  1
  O  O527  1  0.92602577  0.68798211  0.92496923  1
  O  O528  1  0.17705143  0.01748735  0.19995030  1
  O  O529  1  0.17754774  0.01990799  0.44816327  1
  O  O530  1  0.17707387  0.01839328  0.69797320  1
  O  O531  1  0.17580983  0.01995539  0.95037387  1
  O  O532  1  0.17755564  0.35048500  0.19928140  1
  O  O533  1  0.17735624  0.35347013  0.44828799  1
  O  O534  1  0.17724698  0.35208534  0.69946451  1
  O  O535  1  0.17698614  0.35425114  0.94983030  1
  O  O536  1  0.17698313  0.68379700  0.19971540  1
  O  O537  1  0.17648744  0.68762448  0.44980252  1
  O  O538  1  0.17769076  0.68437803  0.69886926  1
  O  O539  1  0.17672966  0.68513955  0.94884727  1
  O  O540  1  0.67629057  0.02019048  0.20098831  1
  O  O541  1  0.67854444  0.02005033  0.44892215  1
  O  O542  1  0.67696445  0.02210187  0.69983952  1
  O  O543  1  0.67632560  0.02177093  0.94841922  1
  O  O544  1  0.67694696  0.35410436  0.20021196  1
  O  O545  1  0.67717827  0.35456422  0.45042875  1
  O  O546  1  0.67834367  0.35290001  0.69704013  1
  O  O547  1  0.67682906  0.35284829  0.94903107  1
  O  O548  1  0.67599718  0.68545315  0.19961454  1
  O  O549  1  0.67660527  0.68766482  0.45048233  1
  O  O550  1  0.67622542  0.68804464  0.69911685  1
  O  O551  1  0.67637301  0.68627891  0.94983805  1
  O  O552  1  0.32290871  0.31492302  0.05151217  1
  O  O553  1  0.32295881  0.31267250  0.30174257  1
  O  O554  1  0.32292095  0.31516331  0.55075120  1
  O  O555  1  0.32449531  0.31318673  0.79970068  1
  O  O556  1  0.32229383  0.64797868  0.05102759  1
  O  O557  1  0.32365902  0.64503432  0.30049001  1
  O  O558  1  0.32292727  0.64852659  0.55148996  1
  O  O559  1  0.32271125  0.64668919  0.80199954  1
  O  O560  1  0.32290861  0.98074931  0.05156358  1
  O  O561  1  0.32250374  0.97925459  0.30156316  1
  O  O562  1  0.32287815  0.98210803  0.55014954  1
  O  O563  1  0.32352997  0.97979443  0.79964480  1
  O  O564  1  0.82432757  0.31351938  0.05002120  1
  O  O565  1  0.82324867  0.31295832  0.30113884  1
  O  O566  1  0.82196422  0.31375252  0.55130946  1
  O  O567  1  0.82263523  0.31437054  0.80062649  1
  O  O568  1  0.82226767  0.64661291  0.05197160  1
  O  O569  1  0.82305984  0.64523350  0.29994072  1
  O  O570  1  0.82320270  0.64574128  0.54923161  1
  O  O571  1  0.82374533  0.64680218  0.79893441  1
  O  O572  1  0.82349362  0.98107466  0.05008768  1
  O  O573  1  0.82159479  0.98001717  0.30253465  1
  O  O574  1  0.82319598  0.97929184  0.54924342  1
  O  O575  1  0.82369300  0.98074282  0.79845366  1
  O  O576  1  0.42635963  0.14616785  0.17561453  1
  O  O577  1  0.42707075  0.14847950  0.42571966  1
  O  O578  1  0.42650228  0.14657239  0.67511521  1
  O  O579  1  0.42602688  0.14736381  0.92384602  1
  O  O580  1  0.42614314  0.48058802  0.17487887  1
  O  O581  1  0.42853730  0.48102825  0.42800774  1
  O  O582  1  0.42736072  0.47947758  0.67523914  1
  O  O583  1  0.42807646  0.48088482  0.92638210  1
  O  O584  1  0.42542942  0.81328935  0.17471606  1
  O  O585  1  0.42693759  0.81363443  0.42576262  1
  O  O586  1  0.42661617  0.81466350  0.67566018  1
  O  O587  1  0.42708545  0.81431889  0.92679541  1
  O  O588  1  0.92641181  0.14728139  0.17650588  1
  O  O589  1  0.92721731  0.14546547  0.42594006  1
  O  O590  1  0.92722704  0.14470641  0.67458459  1
  O  O591  1  0.92711192  0.14826824  0.92539092  1
  O  O592  1  0.92740271  0.47934385  0.17682820  1
  O  O593  1  0.92724594  0.48061370  0.42533905  1
  O  O594  1  0.92601326  0.47955496  0.67460218  1
  O  O595  1  0.92681558  0.48170884  0.92650208  1
  O  O596  1  0.92537935  0.81255084  0.17484862  1
  O  O597  1  0.92664859  0.81353257  0.42623284  1
  O  O598  1  0.92702176  0.81180710  0.67462642  1
  O  O599  1  0.92733668  0.81515237  0.92484576  1
  O  O600  1  0.07313344  0.18486750  0.07488041  1
  O  O601  1  0.07211301  0.18528587  0.32360880  1
  O  O602  1  0.07440432  0.18566916  0.57465342  1
  O  O603  1  0.07465139  0.18682611  0.82535763  1
  O  O604  1  0.07257681  0.51749095  0.07389861  1
  O  O605  1  0.07343111  0.51787429  0.32365582  1
  O  O606  1  0.07370630  0.51788011  0.57400579  1
  O  O607  1  0.07317503  0.52126423  0.82446000  1
  O  O608  1  0.07301093  0.85137166  0.07382562  1
  O  O609  1  0.07305243  0.85241986  0.32580293  1
  O  O610  1  0.07223767  0.85165199  0.57383471  1
  O  O611  1  0.07394303  0.85433111  0.82415072  1
  O  O612  1  0.57293478  0.18765483  0.07423141  1
  O  O613  1  0.57391723  0.18767348  0.32574903  1
  O  O614  1  0.57245879  0.18678302  0.57375122  1
  O  O615  1  0.57315687  0.18894003  0.82481760  1
  O  O616  1  0.57217600  0.52011748  0.07318691  1
  O  O617  1  0.57303714  0.52035186  0.32598955  1
  O  O618  1  0.57160740  0.52022721  0.57369825  1
  O  O619  1  0.57405425  0.52057629  0.82549971  1
  O  O620  1  0.57323425  0.85272362  0.07455443  1
  O  O621  1  0.57255367  0.85471496  0.32456221  1
  O  O622  1  0.57418714  0.85414117  0.57539151  1
  O  O623  1  0.57277127  0.85347600  0.82302244  1
  O  O624  1  0.32382030  0.18768789  0.05105160  1
  O  O625  1  0.32135233  0.18533174  0.30181270  1
  O  O626  1  0.32308160  0.18816098  0.54909193  1
  O  O627  1  0.32393916  0.18627352  0.79923881  1
  O  O628  1  0.32323041  0.52100873  0.05000524  1
  O  O629  1  0.32295924  0.51785364  0.30139651  1
  O  O630  1  0.32384898  0.52139533  0.55091092  1
  O  O631  1  0.32282157  0.51925492  0.80175482  1
  O  O632  1  0.32296707  0.85356526  0.05100441  1
  O  O633  1  0.32188587  0.85187788  0.30137608  1
  O  O634  1  0.32337694  0.85509144  0.54964696  1
  O  O635  1  0.32394278  0.85293250  0.79935249  1
  O  O636  1  0.82348003  0.18691490  0.04970485  1
  O  O637  1  0.82333588  0.18574938  0.30175669  1
  O  O638  1  0.82278807  0.18642461  0.55133542  1
  O  O639  1  0.82233719  0.18713081  0.80113015  1
  O  O640  1  0.82124005  0.51907285  0.05168635  1
  O  O641  1  0.82250101  0.51833884  0.30064225  1
  O  O642  1  0.82279559  0.51862891  0.55051101  1
  O  O643  1  0.82426529  0.51995877  0.79941188  1
  O  O644  1  0.82408159  0.85406092  0.04985517  1
  O  O645  1  0.82201172  0.85243865  0.30133123  1
  O  O646  1  0.82225619  0.85225610  0.55058940  1
  O  O647  1  0.82394490  0.85380739  0.79930350  1
  O  O648  1  0.17689547  0.14455545  0.20094999  1
  O  O649  1  0.17850595  0.14723457  0.44790036  1
  O  O650  1  0.17646762  0.14558493  0.69868719  1
  O  O651  1  0.17669768  0.14689508  0.95074750  1
  O  O652  1  0.17676523  0.47747200  0.20036204  1
  O  O653  1  0.17911210  0.48080764  0.44818639  1
  O  O654  1  0.17691440  0.47917247  0.69920946  1
  O  O655  1  0.17716772  0.48132911  0.94945267  1
  O  O656  1  0.17573352  0.81098469  0.19970175  1
  O  O657  1  0.17701996  0.81473124  0.44914754  1
  O  O658  1  0.17650843  0.81151740  0.70022743  1
  O  O659  1  0.17718338  0.81221905  0.94970238  1
  O  O660  1  0.67611873  0.14694358  0.20107569  1
  O  O661  1  0.67780618  0.14752043  0.44874788  1
  O  O662  1  0.67679770  0.14916250  0.69855296  1
  O  O663  1  0.67633046  0.14900348  0.94854730  1
  O  O664  1  0.67643791  0.48117462  0.19871441  1
  O  O665  1  0.67736489  0.48154500  0.44954978  1
  O  O666  1  0.67766591  0.48025421  0.69862971  1
  O  O667  1  0.67771916  0.47988865  0.94901820  1
  O  O668  1  0.67651990  0.81269862  0.19975772  1
  O  O669  1  0.67647922  0.81473580  0.44882060  1
  O  O670  1  0.67737178  0.81529135  0.69865651  1
  O  O671  1  0.67637691  0.81320911  0.95090360  1
