# generated using pymatgen
data_Na2MnFe(PO4)2
_symmetry_space_group_name_H-M   'P 1'
_cell_length_a   22.33819876
_cell_length_b   20.09004479
_cell_length_c   19.45262784
_cell_angle_alpha   89.91988603
_cell_angle_beta   89.98629774
_cell_angle_gamma   90.01516986
_symmetry_Int_Tables_number   1
_chemical_formula_structural   Na2MnFe(PO4)2
_chemical_formula_sum   'Na96 Mn48 Fe48 P96 O384'
_cell_volume   8729.85201311
_cell_formula_units_Z   48
loop_
 _symmetry_equiv_pos_site_id
 _symmetry_equiv_pos_as_xyz
  1  'x, y, z'
loop_
 _atom_site_type_symbol
 _atom_site_label
 _atom_site_symmetry_multiplicity
 _atom_site_fract_x
 _atom_site_fract_y
 _atom_site_fract_z
 _atom_site_occupancy
  Na  Na0  1  0.14084019  0.25018855  0.24409702  1
  Na  Na1  1  0.14058169  0.24872060  0.49353334  1
  Na  Na2  1  0.14048292  0.25106703  0.74358779  1
  Na  Na3  1  0.14083398  0.25168989  0.99359332  1
  Na  Na4  1  0.13966626  0.58397270  0.24375160  1
  Na  Na5  1  0.14024630  0.58387680  0.49291034  1
  Na  Na6  1  0.14077553  0.58433294  0.74434317  1
  Na  Na7  1  0.14077147  0.58365552  0.99401062  1
  Na  Na8  1  0.14047544  0.91608905  0.24425619  1
  Na  Na9  1  0.14135279  0.91570403  0.49318627  1
  Na  Na10  1  0.14071896  0.91630195  0.74397640  1
  Na  Na11  1  0.14040603  0.91553349  0.99394583  1
  Na  Na12  1  0.63977778  0.24969354  0.24354558  1
  Na  Na13  1  0.64018935  0.24994357  0.49267862  1
  Na  Na14  1  0.64030785  0.25041821  0.74462207  1
  Na  Na15  1  0.64021090  0.25038559  0.99398802  1
  Na  Na16  1  0.63937379  0.58196387  0.24309216  1
  Na  Na17  1  0.63979507  0.58445222  0.49265831  1
  Na  Na18  1  0.64013520  0.58378433  0.74404481  1
  Na  Na19  1  0.63979354  0.58390412  0.99325502  1
  Na  Na20  1  0.64043853  0.91610703  0.24415828  1
  Na  Na21  1  0.64068743  0.91752387  0.49298767  1
  Na  Na22  1  0.64041075  0.91729389  0.74373187  1
  Na  Na23  1  0.64043177  0.91762963  0.99297824  1
  Na  Na24  1  0.35958147  0.08199755  0.00664499  1
  Na  Na25  1  0.35956767  0.08196871  0.25802042  1
  Na  Na26  1  0.35974949  0.08184812  0.50554293  1
  Na  Na27  1  0.35967604  0.08247352  0.75620595  1
  Na  Na28  1  0.36049160  0.41720934  0.00750498  1
  Na  Na29  1  0.36015721  0.41682269  0.25744991  1
  Na  Na30  1  0.35976248  0.41618628  0.50614012  1
  Na  Na31  1  0.35957491  0.41786100  0.75596159  1
  Na  Na32  1  0.36005605  0.74809576  0.00626372  1
  Na  Na33  1  0.35931883  0.74892231  0.25722311  1
  Na  Na34  1  0.35968641  0.74788492  0.50588584  1
  Na  Na35  1  0.35950728  0.74865235  0.75673899  1
  Na  Na36  1  0.85938356  0.08446176  0.00527128  1
  Na  Na37  1  0.85930557  0.08283497  0.25684570  1
  Na  Na38  1  0.85940507  0.08411440  0.50529304  1
  Na  Na39  1  0.85888707  0.08436868  0.75673653  1
  Na  Na40  1  0.86026293  0.41757685  0.00666953  1
  Na  Na41  1  0.85947994  0.41627871  0.25541093  1
  Na  Na42  1  0.85888845  0.41731787  0.50602755  1
  Na  Na43  1  0.85966809  0.41620576  0.75686900  1
  Na  Na44  1  0.85939747  0.75136288  0.00615512  1
  Na  Na45  1  0.85973145  0.74945359  0.25711910  1
  Na  Na46  1  0.85982684  0.75040195  0.50543366  1
  Na  Na47  1  0.85967307  0.75152169  0.75571218  1
  Na  Na48  1  0.10960844  0.08386403  0.11956715  1
  Na  Na49  1  0.11030597  0.08303672  0.36854336  1
  Na  Na50  1  0.11012620  0.08363398  0.61834414  1
  Na  Na51  1  0.10939964  0.08308360  0.86881658  1
  Na  Na52  1  0.10991081  0.41834977  0.11895674  1
  Na  Na53  1  0.10952376  0.41806641  0.36895517  1
  Na  Na54  1  0.10948860  0.41672582  0.61891552  1
  Na  Na55  1  0.11022257  0.41762427  0.86946506  1
  Na  Na56  1  0.11004094  0.75050964  0.11904050  1
  Na  Na57  1  0.10979729  0.74908575  0.36760012  1
  Na  Na58  1  0.11010699  0.75075147  0.61859377  1
  Na  Na59  1  0.11035359  0.75026596  0.86862641  1
  Na  Na60  1  0.60934869  0.08415956  0.11977793  1
  Na  Na61  1  0.60964786  0.08390675  0.36721205  1
  Na  Na62  1  0.60986157  0.08376892  0.61862271  1
  Na  Na63  1  0.60984489  0.08374873  0.86811653  1
  Na  Na64  1  0.60924588  0.41666147  0.11875018  1
  Na  Na65  1  0.60893840  0.41673470  0.36806297  1
  Na  Na66  1  0.60933492  0.41710843  0.61808952  1
  Na  Na67  1  0.60969580  0.41725730  0.86986692  1
  Na  Na68  1  0.60957620  0.74834979  0.11871754  1
  Na  Na69  1  0.60930189  0.74892555  0.36785508  1
  Na  Na70  1  0.60973206  0.74842281  0.61855502  1
  Na  Na71  1  0.60977279  0.75018487  0.86846010  1
  Na  Na72  1  0.39107897  0.25026724  0.13258814  1
  Na  Na73  1  0.39038491  0.24994035  0.38130756  1
  Na  Na74  1  0.39021834  0.24930633  0.63048375  1
  Na  Na75  1  0.39041472  0.25058805  0.88133666  1
  Na  Na76  1  0.39036104  0.58166050  0.13199235  1
  Na  Na77  1  0.38989628  0.58175407  0.38178917  1
  Na  Na78  1  0.39002391  0.58235023  0.63049887  1
  Na  Na79  1  0.39033349  0.58252146  0.88254022  1
  Na  Na80  1  0.39039702  0.91544369  0.13248681  1
  Na  Na81  1  0.39012943  0.91573006  0.38184118  1
  Na  Na82  1  0.39044451  0.91462397  0.63136480  1
  Na  Na83  1  0.39061852  0.91539494  0.88132421  1
  Na  Na84  1  0.89028930  0.25222708  0.13006100  1
  Na  Na85  1  0.89019342  0.25001141  0.38094656  1
  Na  Na86  1  0.88978713  0.24952298  0.63136034  1
  Na  Na87  1  0.89019904  0.25106598  0.88184321  1
  Na  Na88  1  0.89051841  0.58445449  0.13188014  1
  Na  Na89  1  0.88967601  0.58332202  0.38066646  1
  Na  Na90  1  0.89007047  0.58486125  0.63102643  1
  Na  Na91  1  0.89085007  0.58326185  0.88106327  1
  Na  Na92  1  0.89024815  0.91700545  0.13079787  1
  Na  Na93  1  0.88999484  0.91615542  0.38150992  1
  Na  Na94  1  0.89030400  0.91735287  0.63044318  1
  Na  Na95  1  0.88985960  0.91664468  0.88111969  1
  Mn  Mn96  1  0.24993497  0.66644258  0.62504929  1
  Mn  Mn97  1  -0.00030618  0.83419801  0.00005766  1
  Mn  Mn98  1  0.00067344  0.00052207  0.50014031  1
  Mn  Mn99  1  0.50060214  0.83150242  0.50052968  1
  Mn  Mn100  1  0.75072689  0.66791049  0.87451164  1
  Mn  Mn101  1  0.49917533  0.16716100  0.00034440  1
  Mn  Mn102  1  0.00055677  0.49975211  0.74999607  1
  Mn  Mn103  1  0.49934404  0.16699787  0.49927638  1
  Mn  Mn104  1  0.25016814  0.16623931  0.12528135  1
  Mn  Mn105  1  -0.00018332  -0.00042900  0.74914884  1
  Mn  Mn106  1  0.75060207  0.83302929  0.12463647  1
  Mn  Mn107  1  0.50081052  0.83193208  0.00083235  1
  Mn  Mn108  1  0.25025742  0.16666110  0.87508143  1
  Mn  Mn109  1  0.25050971  -0.00098726  0.62493157  1
  Mn  Mn110  1  0.50033553  -0.00055677  0.49974636  1
  Mn  Mn111  1  0.00051090  0.83259724  0.49978871  1
  Mn  Mn112  1  0.74977627  0.49964987  0.12416039  1
  Mn  Mn113  1  0.75044766  0.83377666  0.62440774  1
  Mn  Mn114  1  0.24974524  -0.00162761  0.12596576  1
  Mn  Mn115  1  0.49981800  -0.00008873  0.00072593  1
  Mn  Mn116  1  0.00040710  0.66774012  0.75051500  1
  Mn  Mn117  1  0.24971745  -0.00152188  0.87548322  1
  Mn  Mn118  1  -0.00041329  0.33298297  0.49933805  1
  Mn  Mn119  1  0.74932357  0.33319013  0.62509443  1
  Mn  Mn120  1  0.50000715  0.83220462  0.75011645  1
  Mn  Mn121  1  -0.00008550  0.16776231  0.24890936  1
  Mn  Mn122  1  -0.00075647  0.50084267  0.49988179  1
  Mn  Mn123  1  0.49978052  0.83208165  0.25010252  1
  Mn  Mn124  1  0.74925539  0.50128922  0.62572969  1
  Mn  Mn125  1  0.00037618  0.16757691  -0.00031337  1
  Mn  Mn126  1  0.74974141  0.33316182  0.37529330  1
  Mn  Mn127  1  0.25000014  0.33340415  0.62462124  1
  Mn  Mn128  1  -0.00051480  0.66680119  0.00004823  1
  Mn  Mn129  1  0.00078430  0.33495465  0.25047068  1
  Mn  Mn130  1  0.50043682  0.16619948  0.75014877  1
  Mn  Mn131  1  -0.00001974  0.16732072  0.75047047  1
  Mn  Mn132  1  -0.00086582  0.00009925  0.24995767  1
  Mn  Mn133  1  0.74982818  0.00016444  0.12475539  1
  Mn  Mn134  1  0.74957837  0.66651801  0.37480087  1
  Mn  Mn135  1  0.25124157  0.33485685  0.87419815  1
  Mn  Mn136  1  0.24955818  0.33310623  0.37557952  1
  Mn  Mn137  1  0.74966950  0.16730946  0.12495525  1
  Mn  Mn138  1  0.49963827  0.50058316  0.74958002  1
  Mn  Mn139  1  0.25020303  0.66654325  0.12521989  1
  Mn  Mn140  1  0.49950247  0.33383408  0.75005034  1
  Mn  Mn141  1  0.75074214  0.50012316  0.87507427  1
  Mn  Mn142  1  0.25082729  0.33437575  0.12529012  1
  Mn  Mn143  1  0.75026501  0.00148406  0.62428345  1
  Fe  Fe144  1  0.74988773  0.00109929  0.87442921  1
  Fe  Fe145  1  0.74969838  0.00004821  0.37493623  1
  Fe  Fe146  1  0.74968145  0.33341606  0.87519384  1
  Fe  Fe147  1  0.00011129  0.66676885  0.24946958  1
  Fe  Fe148  1  0.49960503  0.66508207  0.24981628  1
  Fe  Fe149  1  0.24997927  -0.00125451  0.37557744  1
  Fe  Fe150  1  0.25065706  0.83253842  0.87508831  1
  Fe  Fe151  1  0.00019652  0.00007099  -0.00013603  1
  Fe  Fe152  1  0.24993207  0.50048745  0.62516176  1
  Fe  Fe153  1  0.74952727  0.16715022  0.62508284  1
  Fe  Fe154  1  -0.00014513  0.66670925  0.49930270  1
  Fe  Fe155  1  0.25007197  0.50057373  0.12567555  1
  Fe  Fe156  1  0.25035230  0.66654769  0.87518205  1
  Fe  Fe157  1  0.25017797  0.50052369  0.87529845  1
  Fe  Fe158  1  -0.00003760  0.83344006  0.25013325  1
  Fe  Fe159  1  0.75022331  0.16668255  0.37455840  1
  Fe  Fe160  1  0.74995405  0.66754147  0.62445650  1
  Fe  Fe161  1  0.74999207  0.33315234  0.12521204  1
  Fe  Fe162  1  0.50033128  0.33326224  0.49926443  1
  Fe  Fe163  1  0.49995844  0.49959851  0.49934062  1
  Fe  Fe164  1  -0.00009060  0.33370736  0.75032655  1
  Fe  Fe165  1  0.24927235  0.49986043  0.37530368  1
  Fe  Fe166  1  0.25011763  0.83253758  0.37533240  1
  Fe  Fe167  1  0.49978745  0.16732399  0.24970570  1
  Fe  Fe168  1  0.24977268  0.66613712  0.37512543  1
  Fe  Fe169  1  0.49971479  0.49948023  0.25013337  1
  Fe  Fe170  1  0.74995367  0.16758622  0.87504613  1
  Fe  Fe171  1  0.74935318  0.83401471  0.87483288  1
  Fe  Fe172  1  0.74950874  0.66665382  0.12497309  1
  Fe  Fe173  1  0.50018782  0.49985547  0.00081677  1
  Fe  Fe174  1  0.25025859  0.16592128  0.62457783  1
  Fe  Fe175  1  0.00055654  0.33466082  0.00030355  1
  Fe  Fe176  1  0.49988800  -0.00053826  0.75004631  1
  Fe  Fe177  1  0.00020889  0.16697365  0.50015889  1
  Fe  Fe178  1  -0.00001758  0.83372399  0.74981315  1
  Fe  Fe179  1  0.50016466  -0.00040894  0.25035687  1
  Fe  Fe180  1  0.50031369  0.33387607  0.00114145  1
  Fe  Fe181  1  0.74948732  0.83315079  0.37473789  1
  Fe  Fe182  1  0.25026836  0.83247267  0.12554289  1
  Fe  Fe183  1  0.25029737  0.16572786  0.37501591  1
  Fe  Fe184  1  0.74949894  0.50003027  0.37445986  1
  Fe  Fe185  1  0.49991090  0.66553581  0.00017832  1
  Fe  Fe186  1  0.00047408  0.50046977  0.00031903  1
  Fe  Fe187  1  0.50018724  0.66566220  0.74995395  1
  Fe  Fe188  1  0.49979397  0.33391780  0.25034907  1
  Fe  Fe189  1  0.25033830  0.83234519  0.62471176  1
  Fe  Fe190  1  0.49956491  0.66520438  0.49939752  1
  Fe  Fe191  1  -0.00063129  0.50083150  0.24969477  1
  P  P192  1  0.04286530  0.25240981  0.10223879  1
  P  P193  1  0.04316957  0.24998385  0.35331118  1
  P  P194  1  0.04229104  0.24936015  0.60266695  1
  P  P195  1  0.04243160  0.25224541  0.85307747  1
  P  P196  1  0.04207129  0.58286825  0.10316339  1
  P  P197  1  0.04077218  0.58367853  0.35155210  1
  P  P198  1  0.04233193  0.58502152  0.60219001  1
  P  P199  1  0.04292700  0.58316150  0.85367300  1
  P  P200  1  0.04224308  0.91793757  0.10298759  1
  P  P201  1  0.04221393  0.91545061  0.35228205  1
  P  P202  1  0.04338258  0.91631397  0.60307749  1
  P  P203  1  0.04230888  0.91584831  0.85250785  1
  P  P204  1  0.54184941  0.25134777  0.10362836  1
  P  P205  1  0.54108084  0.25081312  0.35155459  1
  P  P206  1  0.54220291  0.25102506  0.60179413  1
  P  P207  1  0.54246915  0.25075731  0.85379174  1
  P  P208  1  0.54130472  0.58280901  0.10250966  1
  P  P209  1  0.54079650  0.58245930  0.35203088  1
  P  P210  1  0.54151025  0.58290329  0.60119818  1
  P  P211  1  0.54212087  0.58426322  0.85316023  1
  P  P212  1  0.54281983  0.91636102  0.10408946  1
  P  P213  1  0.54214358  0.91668337  0.35237304  1
  P  P214  1  0.54309809  0.91597592  0.60356734  1
  P  P215  1  0.54228236  0.91729014  0.85247761  1
  P  P216  1  0.45823868  0.08310967  0.14916727  1
  P  P217  1  0.45780747  0.08309227  0.39562141  1
  P  P218  1  0.45772226  0.08175432  0.64754762  1
  P  P219  1  0.45710872  0.08290840  0.89678764  1
  P  P220  1  0.45863683  0.41648448  0.14827221  1
  P  P221  1  0.45847619  0.41632667  0.39765245  1
  P  P222  1  0.45722475  0.41687799  0.64572230  1
  P  P223  1  0.45876413  0.41681676  0.89927365  1
  P  P224  1  0.45764458  0.74718166  0.14754831  1
  P  P225  1  0.45793559  0.74740378  0.39708026  1
  P  P226  1  0.45780672  0.74710066  0.64731470  1
  P  P227  1  0.45828766  0.74795492  0.89756572  1
  P  P228  1  0.95674869  0.08374278  0.14592322  1
  P  P229  1  0.95800656  0.08480895  0.39752259  1
  P  P230  1  0.95704391  0.08416457  0.64652268  1
  P  P231  1  0.95793807  0.08242350  0.89759333  1
  P  P232  1  0.95807204  0.41883926  0.14683960  1
  P  P233  1  0.95663618  0.41758862  0.39634737  1
  P  P234  1  0.95733897  0.41559996  0.64763359  1
  P  P235  1  0.95876149  0.41703880  0.89837955  1
  P  P236  1  0.95850318  0.75065432  0.14853797  1
  P  P237  1  0.95801786  0.74853869  0.39633962  1
  P  P238  1  0.95778322  0.75146577  0.64716437  1
  P  P239  1  0.95713583  0.75076943  0.89661884  1
  P  P240  1  0.20764669  0.08259951  0.22945162  1
  P  P241  1  0.20907629  0.08264297  0.47703948  1
  P  P242  1  0.20791081  0.08392500  0.72722218  1
  P  P243  1  0.20709606  0.08253658  0.97835637  1
  P  P244  1  0.20803157  0.41855571  0.22826638  1
  P  P245  1  0.20756092  0.41787764  0.47807585  1
  P  P246  1  0.20796701  0.41865321  0.72754594  1
  P  P247  1  0.20868380  0.41856885  0.97794916  1
  P  P248  1  0.20810109  0.75075200  0.22837688  1
  P  P249  1  0.20854771  0.74955611  0.47665983  1
  P  P250  1  0.20818202  0.75090896  0.72804099  1
  P  P251  1  0.20894491  0.74978133  0.97689941  1
  P  P252  1  0.70751824  0.08322620  0.22885585  1
  P  P253  1  0.70812500  0.08394551  0.47629566  1
  P  P254  1  0.70784776  0.08522681  0.72808118  1
  P  P255  1  0.70833340  0.08423380  0.97622653  1
  P  P256  1  0.70757947  0.41530259  0.22744452  1
  P  P257  1  0.70721536  0.41826306  0.47725426  1
  P  P258  1  0.70695931  0.41648819  0.72885215  1
  P  P259  1  0.70826947  0.41562635  0.97787061  1
  P  P260  1  0.70772885  0.74878850  0.22753293  1
  P  P261  1  0.70744964  0.75124900  0.47731367  1
  P  P262  1  0.70783597  0.74971450  0.72725887  1
  P  P263  1  0.70759897  0.75139259  0.97752537  1
  P  P264  1  0.29348274  0.25036242  0.02223554  1
  P  P265  1  0.29218118  0.24898499  0.27310280  1
  P  P266  1  0.29189536  0.24800852  0.52189422  1
  P  P267  1  0.29315349  0.25008634  0.77106823  1
  P  P268  1  0.29227136  0.58217434  0.02236876  1
  P  P269  1  0.29082645  0.58279816  0.27356011  1
  P  P270  1  0.29165560  0.58197371  0.52186743  1
  P  P271  1  0.29165448  0.58315419  0.77352179  1
  P  P272  1  0.29240836  0.91389499  0.02283712  1
  P  P273  1  0.29149832  0.91534716  0.27378434  1
  P  P274  1  0.29234620  0.91415592  0.52181436  1
  P  P275  1  0.29256228  0.91454166  0.77232891  1
  P  P276  1  0.79180959  0.25184178  0.02172925  1
  P  P277  1  0.79229442  0.24926342  0.27222919  1
  P  P278  1  0.79170868  0.24871302  0.52219918  1
  P  P279  1  0.79151030  0.25036748  0.77328388  1
  P  P280  1  0.79236744  0.58518529  0.02259243  1
  P  P281  1  0.79146767  0.58210040  0.27180760  1
  P  P282  1  0.79173438  0.58498343  0.52215627  1
  P  P283  1  0.79322859  0.58418510  0.77139355  1
  P  P284  1  0.79239394  0.91734694  0.02071036  1
  P  P285  1  0.79138353  0.91641992  0.27349875  1
  P  P286  1  0.79261909  0.91753774  0.52054362  1
  P  P287  1  0.79106283  0.91722996  0.77319563  1
  O  O288  1  0.03764116  0.25216650  0.18218211  1
  O  O289  1  0.03784322  0.24912663  0.43325457  1
  O  O290  1  0.03723957  0.25003382  0.68262959  1
  O  O291  1  0.03732041  0.25245429  0.93302553  1
  O  O292  1  0.03673924  0.58293417  0.18305462  1
  O  O293  1  0.03592782  0.58442418  0.43150642  1
  O  O294  1  0.03748221  0.58469280  0.68214661  1
  O  O295  1  0.03750522  0.58270421  0.93357934  1
  O  O296  1  0.03665753  0.91707522  0.18288450  1
  O  O297  1  0.03740168  0.91548446  0.43222557  1
  O  O298  1  0.03817973  0.91587108  0.68300588  1
  O  O299  1  0.03704825  0.91683483  0.93246423  1
  O  O300  1  0.53625307  0.25108787  0.18349019  1
  O  O301  1  0.53628085  0.25086735  0.43151806  1
  O  O302  1  0.53718454  0.25054615  0.68173891  1
  O  O303  1  0.53710496  0.25107867  0.93372729  1
  O  O304  1  0.53633885  0.58249860  0.18237792  1
  O  O305  1  0.53572280  0.58223358  0.43189075  1
  O  O306  1  0.53666550  0.58329521  0.68118144  1
  O  O307  1  0.53697418  0.58392702  0.93300981  1
  O  O308  1  0.53742856  0.91672068  0.18402426  1
  O  O309  1  0.53731734  0.91620439  0.43235400  1
  O  O310  1  0.53768226  0.91641746  0.68350900  1
  O  O311  1  0.53734993  0.91694333  0.93246873  1
  O  O312  1  0.46275075  0.08356229  0.06912293  1
  O  O313  1  0.46324326  0.08298962  0.31576500  1
  O  O314  1  0.46273633  0.08219858  0.56755060  1
  O  O315  1  0.46243997  0.08230771  0.81684432  1
  O  O316  1  0.46377176  0.41659922  0.06844840  1
  O  O317  1  0.46357443  0.41626104  0.31777219  1
  O  O318  1  0.46251065  0.41690975  0.56585689  1
  O  O319  1  0.46319302  0.41747688  0.81927478  1
  O  O320  1  0.46320036  0.74729525  0.06764884  1
  O  O321  1  0.46312291  0.74741144  0.31715605  1
  O  O322  1  0.46311670  0.74704936  0.56736002  1
  O  O323  1  0.46345828  0.74808753  0.81761858  1
  O  O324  1  0.96228225  0.08308771  0.06601814  1
  O  O325  1  0.96283090  0.08460749  0.31752925  1
  O  O326  1  0.96231798  0.08469522  0.56657879  1
  O  O327  1  0.96305223  0.08271102  0.81764292  1
  O  O328  1  0.96370293  0.41873753  0.06697698  1
  O  O329  1  0.96196785  0.41829163  0.31643326  1
  O  O330  1  0.96219696  0.41592486  0.56765289  1
  O  O331  1  0.96376438  0.41642911  0.81840096  1
  O  O332  1  0.96298690  0.75050147  0.06854547  1
  O  O333  1  0.96336996  0.74902303  0.31647600  1
  O  O334  1  0.96301207  0.75057208  0.56723985  1
  O  O335  1  0.96230809  0.75133036  0.81671199  1
  O  O336  1  0.21223983  0.08234552  0.05832758  1
  O  O337  1  0.21310400  0.08266838  0.30936352  1
  O  O338  1  0.21402588  0.08284426  0.55702532  1
  O  O339  1  0.21297300  0.08345775  0.80717551  1
  O  O340  1  0.21382586  0.41847176  0.05789603  1
  O  O341  1  0.21307575  0.41835511  0.30822832  1
  O  O342  1  0.21285491  0.41793946  0.55796632  1
  O  O343  1  0.21364888  0.41874853  0.80745977  1
  O  O344  1  0.21350554  0.74950804  0.05687332  1
  O  O345  1  0.21337280  0.75048243  0.30818903  1
  O  O346  1  0.21329799  0.74926337  0.55661142  1
  O  O347  1  0.21363621  0.75064751  0.80784867  1
  O  O348  1  0.71305676  0.08382876  0.05619765  1
  O  O349  1  0.71292172  0.08313524  0.30873125  1
  O  O350  1  0.71302519  0.08423950  0.55630358  1
  O  O351  1  0.71330900  0.08508000  0.80792285  1
  O  O352  1  0.71344719  0.41546394  0.05780750  1
  O  O353  1  0.71273234  0.41606664  0.30736696  1
  O  O354  1  0.71218677  0.41806199  0.55719863  1
  O  O355  1  0.71244707  0.41600406  0.80877521  1
  O  O356  1  0.71290160  0.75041184  0.05744632  1
  O  O357  1  0.71268867  0.74922653  0.30746515  1
  O  O358  1  0.71272726  0.75049616  0.55720881  1
  O  O359  1  0.71304109  0.75052246  0.80718698  1
  O  O360  1  0.28745166  0.24958517  0.19313655  1
  O  O361  1  0.28614521  0.24779784  0.44199517  1
  O  O362  1  0.28765150  0.24960839  0.69112296  1
  O  O363  1  0.28850947  0.25070523  0.94224136  1
  O  O364  1  0.28623482  0.58295723  0.19358001  1
  O  O365  1  0.28614916  0.58222003  0.44205726  1
  O  O366  1  0.28688593  0.58319918  0.69356076  1
  O  O367  1  0.28700368  0.58247076  0.94254345  1
  O  O368  1  0.28681776  0.91546947  0.19382703  1
  O  O369  1  0.28668681  0.91446903  0.44197779  1
  O  O370  1  0.28750959  0.91473696  0.69237100  1
  O  O371  1  0.28725129  0.91399091  0.94289217  1
  O  O372  1  0.78700855  0.25012208  0.19231492  1
  O  O373  1  0.78662589  0.24876688  0.44225596  1
  O  O374  1  0.78651957  0.25016061  0.69331685  1
  O  O375  1  0.78633700  0.25181886  0.94186479  1
  O  O376  1  0.78624079  0.58273124  0.19192158  1
  O  O377  1  0.78654428  0.58428400  0.44221869  1
  O  O378  1  0.78777387  0.58456467  0.69148431  1
  O  O379  1  0.78778546  0.58497442  0.94262174  1
  O  O380  1  0.78663986  0.91655732  0.19349382  1
  O  O381  1  0.78713282  0.91740684  0.44067984  1
  O  O382  1  0.78653746  0.91752727  0.69318804  1
  O  O383  1  0.78692912  0.91714708  0.94085522  1
  O  O384  1  0.22898360  0.25057883  0.05715470  1
  O  O385  1  0.22781492  0.24882861  0.30836371  1
  O  O386  1  0.22785238  0.24807216  0.55823790  1
  O  O387  1  0.22890636  0.25080849  0.80669393  1
  O  O388  1  0.22810465  0.58203062  0.05858017  1
  O  O389  1  0.22658880  0.58253354  0.30923180  1
  O  O390  1  0.22758811  0.58209148  0.55825499  1
  O  O391  1  0.22747298  0.58295461  0.80940191  1
  O  O392  1  0.22804455  0.91393672  0.05846884  1
  O  O393  1  0.22731956  0.91503829  0.30966184  1
  O  O394  1  0.22831176  0.91433321  0.55826607  1
  O  O395  1  0.22823358  0.91408196  0.80801826  1
  O  O396  1  0.72768904  0.25213631  0.05804395  1
  O  O397  1  0.72802663  0.24874447  0.30804253  1
  O  O398  1  0.72737935  0.24877687  0.55787909  1
  O  O399  1  0.72731603  0.24983945  0.80929979  1
  O  O400  1  0.72784307  0.58496068  0.05763866  1
  O  O401  1  0.72722213  0.58197205  0.30766419  1
  O  O402  1  0.72743199  0.58561462  0.55788175  1
  O  O403  1  0.72893432  0.58380416  0.80683848  1
  O  O404  1  0.72820141  0.91663356  0.05654940  1
  O  O405  1  0.72713663  0.91645480  0.30925197  1
  O  O406  1  0.72849653  0.91754603  0.55649172  1
  O  O407  1  0.72686178  0.91684038  0.80893421  1
  O  O408  1  0.27187546  0.08234517  0.19368556  1
  O  O409  1  0.27313597  0.08259722  0.44097451  1
  O  O410  1  0.27223077  0.08408287  0.69158514  1
  O  O411  1  0.27154593  0.08238615  0.94333226  1
  O  O412  1  0.27241046  0.41892451  0.19270924  1
  O  O413  1  0.27176724  0.41787263  0.44218886  1
  O  O414  1  0.27210724  0.41846670  0.69142381  1
  O  O415  1  0.27299663  0.41888750  0.94222151  1
  O  O416  1  0.27227230  0.75068175  0.19219948  1
  O  O417  1  0.27275549  0.74972429  0.44086647  1
  O  O418  1  0.27230536  0.75070481  0.69171019  1
  O  O419  1  0.27315940  0.75000465  0.94108670  1
  O  O420  1  0.77169140  0.08367323  0.19301593  1
  O  O421  1  0.77232624  0.08382328  0.44030100  1
  O  O422  1  0.77199172  0.08578639  0.69179097  1
  O  O423  1  0.77252561  0.08489030  0.94041025  1
  O  O424  1  0.77183198  0.41514067  0.19160720  1
  O  O425  1  0.77157477  0.41817606  0.44176720  1
  O  O426  1  0.77118510  0.41691148  0.69324750  1
  O  O427  1  0.77251099  0.41565540  0.94212229  1
  O  O428  1  0.77209242  0.74817601  0.19198159  1
  O  O429  1  0.77172076  0.75143503  0.44156475  1
  O  O430  1  0.77212342  0.74901322  0.69146778  1
  O  O431  1  0.77189206  0.75265773  0.94179245  1
  O  O432  1  0.02107850  0.08345898  0.18135797  1
  O  O433  1  0.02239123  0.08512851  0.43291510  1
  O  O434  1  0.02145620  0.08378891  0.68167775  1
  O  O435  1  0.02223086  0.08244496  0.93318906  1
  O  O436  1  0.02218631  0.41954776  0.18311939  1
  O  O437  1  0.02098384  0.41732605  0.43165133  1
  O  O438  1  0.02182165  0.41511158  0.68285690  1
  O  O439  1  0.02295021  0.41726642  0.93442166  1
  O  O440  1  0.02279777  0.75132986  0.18397581  1
  O  O441  1  0.02224743  0.74801149  0.43233401  1
  O  O442  1  0.02208348  0.75236369  0.68296112  1
  O  O443  1  0.02147372  0.75054599  0.93190673  1
  O  O444  1  0.52255110  0.08284848  0.18452261  1
  O  O445  1  0.52196798  0.08350023  0.43147798  1
  O  O446  1  0.52209097  0.08138239  0.68301870  1
  O  O447  1  0.52142888  0.08350196  0.93220615  1
  O  O448  1  0.52267878  0.41606496  0.18459334  1
  O  O449  1  0.52256635  0.41640903  0.43398951  1
  O  O450  1  0.52146615  0.41715956  0.68144370  1
  O  O451  1  0.52301258  0.41619621  0.93490224  1
  O  O452  1  0.52185582  0.74722515  0.18341992  1
  O  O453  1  0.52219006  0.74722033  0.43284645  1
  O  O454  1  0.52205660  0.74735734  0.68314254  1
  O  O455  1  0.52250845  0.74749171  0.93343937  1
  O  O456  1  0.47773701  0.25181245  0.06741152  1
  O  O457  1  0.47693853  0.25113901  0.31565406  1
  O  O458  1  0.47781824  0.25173225  0.56637188  1
  O  O459  1  0.47822281  0.24991546  0.81819277  1
  O  O460  1  0.47722605  0.58311649  0.06632086  1
  O  O461  1  0.47672620  0.58285422  0.31574169  1
  O  O462  1  0.47726291  0.58227222  0.56532704  1
  O  O463  1  0.47784985  0.58457035  0.81719786  1
  O  O464  1  0.47848652  0.91581928  0.06876498  1
  O  O465  1  0.47776944  0.91668837  0.31709379  1
  O  O466  1  0.47876367  0.91550726  0.56819676  1
  O  O467  1  0.47797821  0.91724891  0.81689966  1
  O  O468  1  0.97856859  0.25246700  0.06666529  1
  O  O469  1  0.97878111  0.25084972  0.31808998  1
  O  O470  1  0.97793349  0.24870950  0.56707020  1
  O  O471  1  0.97807435  0.25206835  0.81748478  1
  O  O472  1  0.97788821  0.58238565  0.06716015  1
  O  O473  1  0.97667227  0.58310696  0.31554888  1
  O  O474  1  0.97784812  0.58552583  0.56696697  1
  O  O475  1  0.97871328  0.58342915  0.81808352  1
  O  O476  1  0.97799915  0.91873066  0.06708132  1
  O  O477  1  0.97776722  0.91501050  0.31704864  1
  O  O478  1  0.97899387  0.91660329  0.56791848  1
  O  O479  1  0.97798583  0.91513580  0.81679120  1
  O  O480  1  0.07369401  0.31604974  0.07406741  1
  O  O481  1  0.07444008  0.31379222  0.32585980  1
  O  O482  1  0.07326212  0.31293188  0.57431470  1
  O  O483  1  0.07316411  0.31556256  0.82389598  1
  O  O484  1  0.07292418  0.64682354  0.07524158  1
  O  O485  1  0.07133432  0.64735599  0.32254554  1
  O  O486  1  0.07324991  0.64843537  0.57358402  1
  O  O487  1  0.07405300  0.64685924  0.82589481  1
  O  O488  1  0.07325260  0.98143715  0.07463992  1
  O  O489  1  0.07286911  0.97940893  0.32464078  1
  O  O490  1  0.07437939  0.98005912  0.57507635  1
  O  O491  1  0.07338615  0.97932801  0.82407984  1
  O  O492  1  0.57300716  0.31469235  0.07498315  1
  O  O493  1  0.57255756  0.31410915  0.32334225  1
  O  O494  1  0.57334914  0.31439409  0.57338285  1
  O  O495  1  0.57322015  0.31430947  0.82524503  1
  O  O496  1  0.57261456  0.64614804  0.07399753  1
  O  O497  1  0.57220172  0.64580715  0.32359721  1
  O  O498  1  0.57203317  0.64665781  0.57257167  1
  O  O499  1  0.57315834  0.64756956  0.82414504  1
  O  O500  1  0.57393767  0.97973157  0.07552695  1
  O  O501  1  0.57275254  0.98042390  0.32411247  1
  O  O502  1  0.57430771  0.97926781  0.57494670  1
  O  O503  1  0.57283869  0.98098264  0.82401772  1
  O  O504  1  0.42726408  0.01933356  0.17702373  1
  O  O505  1  0.42673028  0.01963897  0.42418054  1
  O  O506  1  0.42691936  0.01809806  0.67580365  1
  O  O507  1  0.42605890  0.01955023  0.92555546  1
  O  O508  1  0.42708351  0.35331474  0.17686473  1
  O  O509  1  0.42764008  0.35263774  0.42615895  1
  O  O510  1  0.42615388  0.35342751  0.67433157  1
  O  O511  1  0.42752794  0.35328920  0.92712248  1
  O  O512  1  0.42656612  0.68386921  0.17619599  1
  O  O513  1  0.42684383  0.68406207  0.42570679  1
  O  O514  1  0.42692859  0.68372753  0.67610351  1
  O  O515  1  0.42698027  0.68478920  0.92621638  1
  O  O516  1  0.92507835  0.02085006  0.17489920  1
  O  O517  1  0.92729124  0.02080608  0.42511628  1
  O  O518  1  0.92590587  0.02041971  0.67431967  1
  O  O519  1  0.92733392  0.01873649  0.92588555  1
  O  O520  1  0.92733909  0.35491187  0.17482892  1
  O  O521  1  0.92557458  0.35385215  0.42408857  1
  O  O522  1  0.92649943  0.35213883  0.67626929  1
  O  O523  1  0.92780709  0.35358199  0.92711736  1
  O  O524  1  0.92848696  0.68645951  0.17691168  1
  O  O525  1  0.92699032  0.68513630  0.42516786  1
  O  O526  1  0.92695376  0.68788363  0.67557660  1
  O  O527  1  0.92614757  0.68702667  0.92458939  1
  O  O528  1  0.17629199  0.01920526  0.20129400  1
  O  O529  1  0.17862402  0.01849204  0.44912279  1
  O  O530  1  0.17694090  0.02023363  0.69936992  1
  O  O531  1  0.17607267  0.01903766  0.95022215  1
  O  O532  1  0.17737474  0.35461572  0.20042462  1
  O  O533  1  0.17662418  0.35397901  0.45052578  1
  O  O534  1  0.17677074  0.35495303  0.69999640  1
  O  O535  1  0.17794168  0.35476495  0.94992841  1
  O  O536  1  0.17682631  0.68731849  0.20019280  1
  O  O537  1  0.17823233  0.68560656  0.44804346  1
  O  O538  1  0.17679229  0.68741489  0.70001665  1
  O  O539  1  0.17872621  0.68575884  0.94832443  1
  O  O540  1  0.67652402  0.01974981  0.20043266  1
  O  O541  1  0.67749929  0.01999109  0.44838285  1
  O  O542  1  0.67706780  0.02146484  0.69995658  1
  O  O543  1  0.67818149  0.02025403  0.94770447  1
  O  O544  1  0.67704237  0.35151217  0.19937353  1
  O  O545  1  0.67609899  0.35460373  0.44963934  1
  O  O546  1  0.67576109  0.35326176  0.70031695  1
  O  O547  1  0.67715967  0.35249404  0.94910385  1
  O  O548  1  0.67688882  0.68518470  0.19914661  1
  O  O549  1  0.67602747  0.68799812  0.44907890  1
  O  O550  1  0.67703138  0.68604268  0.69906962  1
  O  O551  1  0.67695198  0.68771361  0.94924476  1
  O  O552  1  0.32460934  0.31367094  0.05068682  1
  O  O553  1  0.32314778  0.31262147  0.30113286  1
  O  O554  1  0.32292711  0.31199685  0.54894153  1
  O  O555  1  0.32454998  0.31372877  0.79860159  1
  O  O556  1  0.32331024  0.64574703  0.05059440  1
  O  O557  1  0.32103363  0.64687317  0.30194032  1
  O  O558  1  0.32298821  0.64542612  0.54998325  1
  O  O559  1  0.32182589  0.64717014  0.80205136  1
  O  O560  1  0.32345038  0.97760429  0.05071324  1
  O  O561  1  0.32165124  0.97934311  0.30242727  1
  O  O562  1  0.32384301  0.97758668  0.54974131  1
  O  O563  1  0.32304589  0.97851174  0.80036213  1
  O  O564  1  0.82300674  0.31498742  0.05061882  1
  O  O565  1  0.82343277  0.31266703  0.30052090  1
  O  O566  1  0.82268991  0.31256579  0.54980343  1
  O  O567  1  0.82168708  0.31449649  0.80140637  1
  O  O568  1  0.82274078  0.64886108  0.05120415  1
  O  O569  1  0.82294240  0.64534156  0.29990897  1
  O  O570  1  0.82246893  0.64872874  0.55024603  1
  O  O571  1  0.82453332  0.64741313  0.79964541  1
  O  O572  1  0.82313172  0.98099819  0.04907804  1
  O  O573  1  0.82228008  0.98003045  0.30160690  1
  O  O574  1  0.82384260  0.98090178  0.54899097  1
  O  O575  1  0.82137373  0.98127048  0.80138354  1
  O  O576  1  0.42790600  0.14704981  0.17751791  1
  O  O577  1  0.42641966  0.14643515  0.42387022  1
  O  O578  1  0.42692364  0.14555970  0.67523735  1
  O  O579  1  0.42583124  0.14641357  0.92463992  1
  O  O580  1  0.42824263  0.48036249  0.17694370  1
  O  O581  1  0.42748071  0.47988240  0.42593886  1
  O  O582  1  0.42597809  0.48012248  0.67448043  1
  O  O583  1  0.42870683  0.48077190  0.92803346  1
  O  O584  1  0.42660596  0.81093189  0.17524812  1
  O  O585  1  0.42719758  0.81124424  0.42490854  1
  O  O586  1  0.42673019  0.81081783  0.67499310  1
  O  O587  1  0.42775305  0.81194521  0.92544543  1
  O  O588  1  0.92617587  0.14780826  0.17339721  1
  O  O589  1  0.92717309  0.14824150  0.42595719  1
  O  O590  1  0.92591426  0.14720620  0.67551959  1
  O  O591  1  0.92688731  0.14618745  0.92506737  1
  O  O592  1  0.92655570  0.48188869  0.17545058  1
  O  O593  1  0.92544317  0.48068959  0.42513904  1
  O  O594  1  0.92672606  0.47949647  0.67542875  1
  O  O595  1  0.92805218  0.48097495  0.92613187  1
  O  O596  1  0.92713089  0.81400288  0.17652358  1
  O  O597  1  0.92697873  0.81206878  0.42458630  1
  O  O598  1  0.92677894  0.81508163  0.67514953  1
  O  O599  1  0.92584205  0.81382707  0.92530873  1
  O  O600  1  0.07394181  0.18874429  0.07459789  1
  O  O601  1  0.07411480  0.18687398  0.32428930  1
  O  O602  1  0.07313815  0.18577019  0.57434414  1
  O  O603  1  0.07345462  0.18835448  0.82568587  1
  O  O604  1  0.07333436  0.51980552  0.07427508  1
  O  O605  1  0.07197310  0.52006218  0.32391813  1
  O  O606  1  0.07287093  0.52111957  0.57427522  1
  O  O607  1  0.07411619  0.52000104  0.82505815  1
  O  O608  1  0.07316717  0.85429435  0.07489143  1
  O  O609  1  0.07308609  0.85204008  0.32378575  1
  O  O610  1  0.07461454  0.85321505  0.57441541  1
  O  O611  1  0.07310907  0.85218629  0.82446993  1
  O  O612  1  0.57281691  0.18762085  0.07563341  1
  O  O613  1  0.57129327  0.18675909  0.32319292  1
  O  O614  1  0.57270654  0.18715432  0.57371525  1
  O  O615  1  0.57390797  0.18739490  0.82583639  1
  O  O616  1  0.57179966  0.51900224  0.07371657  1
  O  O617  1  0.57128414  0.51868543  0.32329386  1
  O  O618  1  0.57262554  0.51940153  0.57303876  1
  O  O619  1  0.57307375  0.52066391  0.82482855  1
  O  O620  1  0.57392234  0.85272378  0.07624713  1
  O  O621  1  0.57323952  0.85309629  0.32458648  1
  O  O622  1  0.57413986  0.85231347  0.57570713  1
  O  O623  1  0.57334995  0.85362770  0.82483405  1
  O  O624  1  0.32421942  0.18657269  0.05017323  1
  O  O625  1  0.32284300  0.18529152  0.30132541  1
  O  O626  1  0.32303503  0.18471399  0.55044864  1
  O  O627  1  0.32412614  0.18674999  0.79975237  1
  O  O628  1  0.32323714  0.51889812  0.05143382  1
  O  O629  1  0.32215668  0.51951147  0.30193533  1
  O  O630  1  0.32252938  0.51852280  0.55060765  1
  O  O631  1  0.32302632  0.51985892  0.80189170  1
  O  O632  1  0.32319770  0.85049809  0.05172857  1
  O  O633  1  0.32295823  0.85202306  0.30190327  1
  O  O634  1  0.32307219  0.85052732  0.55040245  1
  O  O635  1  0.32382815  0.85137933  0.80100307  1
  O  O636  1  0.82274593  0.18800212  0.04958678  1
  O  O637  1  0.82316818  0.18558473  0.30033079  1
  O  O638  1  0.82241903  0.18538240  0.55119938  1
  O  O639  1  0.82297531  0.18720640  0.80183973  1
  O  O640  1  0.82348155  0.52157148  0.05042258  1
  O  O641  1  0.82184982  0.51822483  0.30025288  1
  O  O642  1  0.82282931  0.52150364  0.55042612  1
  O  O643  1  0.82434834  0.52054373  0.79944873  1
  O  O644  1  0.82413712  0.85431937  0.04947251  1
  O  O645  1  0.82189054  0.85240972  0.30142343  1
  O  O646  1  0.82397719  0.85419662  0.54901879  1
  O  O647  1  0.82205450  0.85361061  0.80118760  1
  O  O648  1  0.17649244  0.14601519  0.20089438  1
  O  O649  1  0.17780666  0.14594396  0.44857393  1
  O  O650  1  0.17715641  0.14756676  0.69898105  1
  O  O651  1  0.17617981  0.14617390  0.95032555  1
  O  O652  1  0.17695433  0.48178745  0.19951366  1
  O  O653  1  0.17644450  0.48108507  0.44923630  1
  O  O654  1  0.17700438  0.48209761  0.69910278  1
  O  O655  1  0.17750670  0.48179177  0.94928756  1
  O  O656  1  0.17742626  0.81422412  0.19937047  1
  O  O657  1  0.17725618  0.81291267  0.44850552  1
  O  O658  1  0.17750783  0.81433014  0.69897680  1
  O  O659  1  0.17766101  0.81312508  0.94862352  1
  O  O660  1  0.67607726  0.14651265  0.20038361  1
  O  O661  1  0.67716419  0.14743498  0.44778336  1
  O  O662  1  0.67669925  0.14850707  0.69919061  1
  O  O663  1  0.67703601  0.14779345  0.94859538  1
  O  O664  1  0.67629943  0.47863445  0.19900706  1
  O  O665  1  0.67678360  0.48191495  0.44852496  1
  O  O666  1  0.67569105  0.48010662  0.70107380  1
  O  O667  1  0.67743474  0.47970780  0.95047583  1
  O  O668  1  0.67684774  0.81241485  0.19938803  1
  O  O669  1  0.67690120  0.81505201  0.44899431  1
  O  O670  1  0.67685278  0.81326310  0.69904043  1
  O  O671  1  0.67635131  0.81481820  0.94930798  1
