# generated using pymatgen
data_Na2MnFe(PO4)2
_symmetry_space_group_name_H-M   'P 1'
_cell_length_a   22.35097524
_cell_length_b   20.09958248
_cell_length_c   19.44246852
_cell_angle_alpha   90.00179414
_cell_angle_beta   89.96634003
_cell_angle_gamma   90.05749334
_symmetry_Int_Tables_number   1
_chemical_formula_structural   Na2MnFe(PO4)2
_chemical_formula_sum   'Na96 Mn48 Fe48 P96 O384'
_cell_volume   8734.43111968
_cell_formula_units_Z   48
loop_
 _symmetry_equiv_pos_site_id
 _symmetry_equiv_pos_as_xyz
  1  'x, y, z'
loop_
 _atom_site_type_symbol
 _atom_site_label
 _atom_site_symmetry_multiplicity
 _atom_site_fract_x
 _atom_site_fract_y
 _atom_site_fract_z
 _atom_site_occupancy
  Na  Na0  1  0.14072505  0.24844690  0.24360529  1
  Na  Na1  1  0.14071875  0.25039322  0.49369513  1
  Na  Na2  1  0.14102935  0.25058941  0.74411554  1
  Na  Na3  1  0.14072103  0.24902859  0.99360377  1
  Na  Na4  1  0.14089481  0.58269534  0.24434926  1
  Na  Na5  1  0.14069887  0.58400025  0.49489054  1
  Na  Na6  1  0.14087979  0.58358490  0.74299941  1
  Na  Na7  1  0.14083780  0.58359251  0.99426388  1
  Na  Na8  1  0.13981882  0.91697878  0.24265056  1
  Na  Na9  1  0.14016250  0.91781210  0.49178850  1
  Na  Na10  1  0.14059545  0.91819478  0.74367287  1
  Na  Na11  1  0.14018351  0.91832443  0.99348439  1
  Na  Na12  1  0.63962624  0.24981934  0.24371040  1
  Na  Na13  1  0.64041706  0.25075450  0.49417720  1
  Na  Na14  1  0.64140154  0.24945992  0.74354419  1
  Na  Na15  1  0.64042008  0.25015374  0.99443656  1
  Na  Na16  1  0.63998742  0.58288700  0.24451324  1
  Na  Na17  1  0.64058650  0.58331101  0.49505812  1
  Na  Na18  1  0.64075036  0.58252083  0.74312150  1
  Na  Na19  1  0.64058733  0.58426115  0.99338245  1
  Na  Na20  1  0.64004767  0.91511618  0.24356027  1
  Na  Na21  1  0.63939246  0.91612299  0.49381712  1
  Na  Na22  1  0.64014091  0.91497866  0.74223931  1
  Na  Na23  1  0.64010415  0.91593899  0.99207639  1
  Na  Na24  1  0.35976061  0.08341568  0.00545286  1
  Na  Na25  1  0.35928184  0.08224587  0.25675132  1
  Na  Na26  1  0.35930782  0.08292344  0.50606865  1
  Na  Na27  1  0.35947076  0.08366177  0.75524585  1
  Na  Na28  1  0.35985904  0.41668843  0.00753153  1
  Na  Na29  1  0.35992775  0.41587639  0.25842995  1
  Na  Na30  1  0.35971557  0.41725073  0.50804013  1
  Na  Na31  1  0.35998799  0.41679965  0.75544452  1
  Na  Na32  1  0.35998494  0.75182809  0.00667683  1
  Na  Na33  1  0.35930652  0.75004147  0.25682577  1
  Na  Na34  1  0.35888239  0.75080703  0.50671399  1
  Na  Na35  1  0.35963013  0.75206904  0.75559362  1
  Na  Na36  1  0.85989058  0.08319553  0.00625695  1
  Na  Na37  1  0.85973582  0.08222807  0.25527567  1
  Na  Na38  1  0.85933743  0.08250982  0.50622948  1
  Na  Na39  1  0.85921809  0.08171749  0.75592219  1
  Na  Na40  1  0.85986789  0.41717350  0.00634230  1
  Na  Na41  1  0.85975102  0.41630608  0.25528156  1
  Na  Na42  1  0.85964714  0.41700032  0.50803870  1
  Na  Na43  1  0.85978200  0.41699314  0.75737030  1
  Na  Na44  1  0.85939237  0.75036324  0.00481660  1
  Na  Na45  1  0.85974415  0.74976699  0.25520386  1
  Na  Na46  1  0.85875020  0.75044407  0.50657715  1
  Na  Na47  1  0.85901597  0.74930312  0.75595907  1
  Na  Na48  1  0.11015567  0.08254439  0.11713756  1
  Na  Na49  1  0.10989824  0.08227790  0.36759262  1
  Na  Na50  1  0.10998244  0.08520964  0.61771707  1
  Na  Na51  1  0.11063505  0.08385771  0.86925848  1
  Na  Na52  1  0.10965142  0.41579245  0.11904488  1
  Na  Na53  1  0.10994956  0.41630419  0.37042222  1
  Na  Na54  1  0.11035910  0.41755933  0.61876322  1
  Na  Na55  1  0.10996252  0.41673513  0.86965882  1
  Na  Na56  1  0.10967366  0.75045154  0.11871610  1
  Na  Na57  1  0.10946199  0.75126793  0.36851074  1
  Na  Na58  1  0.11007030  0.75120403  0.61759830  1
  Na  Na59  1  0.10987642  0.75022863  0.86898181  1
  Na  Na60  1  0.60958845  0.08356994  0.11847924  1
  Na  Na61  1  0.60908408  0.08232761  0.36877384  1
  Na  Na62  1  0.60941710  0.08198012  0.61805029  1
  Na  Na63  1  0.60989434  0.08288147  0.86770387  1
  Na  Na64  1  0.60890777  0.41692426  0.12015860  1
  Na  Na65  1  0.60914331  0.41543121  0.37018550  1
  Na  Na66  1  0.61022719  0.41724009  0.61865444  1
  Na  Na67  1  0.60998002  0.41728409  0.86851575  1
  Na  Na68  1  0.60958595  0.74965747  0.11859662  1
  Na  Na69  1  0.60957561  0.74954364  0.36919531  1
  Na  Na70  1  0.60982702  0.75052411  0.61784869  1
  Na  Na71  1  0.60980195  0.75043963  0.86749066  1
  Na  Na72  1  0.39054708  0.25001405  0.13270405  1
  Na  Na73  1  0.39030166  0.24925986  0.38209460  1
  Na  Na74  1  0.39006690  0.25048791  0.63164733  1
  Na  Na75  1  0.39033568  0.24954529  0.88057186  1
  Na  Na76  1  0.39053368  0.58394334  0.13289400  1
  Na  Na77  1  0.39023732  0.58220047  0.38290025  1
  Na  Na78  1  0.39000510  0.58383376  0.63198877  1
  Na  Na79  1  0.39054082  0.58437413  0.88060605  1
  Na  Na80  1  0.39034144  0.91727176  0.13148574  1
  Na  Na81  1  0.38957701  0.91605086  0.38119620  1
  Na  Na82  1  0.38969589  0.91667772  0.63049172  1
  Na  Na83  1  0.39026202  0.91754797  0.88021825  1
  Na  Na84  1  0.89043130  0.24850313  0.13009980  1
  Na  Na85  1  0.89047531  0.24904158  0.38111088  1
  Na  Na86  1  0.89043593  0.25149029  0.63190165  1
  Na  Na87  1  0.89074360  0.24963233  0.88294917  1
  Na  Na88  1  0.89024177  0.58369717  0.12992060  1
  Na  Na89  1  0.89036753  0.58276494  0.38154448  1
  Na  Na90  1  0.88984229  0.58345632  0.63306989  1
  Na  Na91  1  0.89020687  0.58288818  0.88185051  1
  Na  Na92  1  0.89047917  0.91632366  0.13001143  1
  Na  Na93  1  0.88971920  0.91610331  0.38040155  1
  Na  Na94  1  0.88961878  0.91715822  0.63034273  1
  Na  Na95  1  0.89034159  0.91676953  0.88096446  1
  Mn  Mn96  1  0.25004613  0.33205782  0.12613729  1
  Mn  Mn97  1  0.00068158  0.16505134  0.25009875  1
  Mn  Mn98  1  0.74980616  0.83210417  0.12365043  1
  Mn  Mn99  1  0.50052978  -0.00091466  0.24950986  1
  Mn  Mn100  1  0.00092898  0.33461708  0.75159796  1
  Mn  Mn101  1  0.49989079  -0.00080829  -0.00022322  1
  Mn  Mn102  1  0.00015449  0.49950963  0.50050669  1
  Mn  Mn103  1  0.74901530  -0.00107040  0.37501938  1
  Mn  Mn104  1  0.75038367  0.33299907  0.87533775  1
  Mn  Mn105  1  -0.00039729  0.49942798  0.25036653  1
  Mn  Mn106  1  0.74952988  -0.00058256  0.87456387  1
  Mn  Mn107  1  0.50005091  0.66718920  0.74951551  1
  Mn  Mn108  1  0.25084899  0.50044282  0.87525808  1
  Mn  Mn109  1  -0.00033251  0.66694934  0.50001026  1
  Mn  Mn110  1  -0.00067219  0.83474799  0.49901511  1
  Mn  Mn111  1  0.74973808  0.33306069  0.12480906  1
  Mn  Mn112  1  0.24992854  0.66649389  0.37623124  1
  Mn  Mn113  1  0.00073404  0.83432286  0.74945753  1
  Mn  Mn114  1  0.50054593  0.33429930  0.75039007  1
  Mn  Mn115  1  0.75005454  0.50040222  0.37568696  1
  Mn  Mn116  1  0.50029439  0.66781642  0.00058601  1
  Mn  Mn117  1  0.24979150  0.83400866  0.12521407  1
  Mn  Mn118  1  -0.00003815  0.66663534  0.75041207  1
  Mn  Mn119  1  0.49992628  0.16624473  0.50007507  1
  Mn  Mn120  1  -0.00007843  0.16744240  0.74984877  1
  Mn  Mn121  1  0.25029326  0.66786405  0.87447342  1
  Mn  Mn122  1  -0.00012867  0.33232807  0.24931485  1
  Mn  Mn123  1  0.50037255  0.16661866  -0.00017526  1
  Mn  Mn124  1  -0.00037853  0.16664307  0.49968643  1
  Mn  Mn125  1  0.49988742  0.33371950  0.00075782  1
  Mn  Mn126  1  0.74998174  0.16616012  0.62518542  1
  Mn  Mn127  1  0.74976220  0.16650383  0.37570501  1
  Mn  Mn128  1  0.75001986  0.00013784  0.12401114  1
  Mn  Mn129  1  0.25040076  0.33265765  0.87523545  1
  Mn  Mn130  1  0.24938671  0.00069292  0.62411175  1
  Mn  Mn131  1  0.74988342  0.50100752  0.12505057  1
  Mn  Mn132  1  0.00069998  0.66727044  0.24959398  1
  Mn  Mn133  1  0.49976677  0.66683028  0.25082254  1
  Mn  Mn134  1  0.49967499  0.50026010  0.00092617  1
  Mn  Mn135  1  0.00033019  0.66670128  -0.00013739  1
  Mn  Mn136  1  0.75063364  0.66716579  0.37544075  1
  Mn  Mn137  1  0.00045460  0.00094699  0.75036394  1
  Mn  Mn138  1  0.24929416  0.83514484  0.87565705  1
  Mn  Mn139  1  0.25038207  0.33303797  0.37561328  1
  Mn  Mn140  1  0.49951069  0.66644567  0.50000996  1
  Mn  Mn141  1  0.50056272  0.16621152  0.74958557  1
  Mn  Mn142  1  0.25016436  0.50038925  0.12591403  1
  Mn  Mn143  1  0.75024227  0.33351796  0.37507713  1
  Fe  Fe144  1  0.49969162  0.49936427  0.25185405  1
  Fe  Fe145  1  0.25040355  0.50044923  0.62539430  1
  Fe  Fe146  1  0.75039083  0.33311130  0.62594747  1
  Fe  Fe147  1  0.25015926  0.50008723  0.37606675  1
  Fe  Fe148  1  0.00046927  0.50003008  0.75078503  1
  Fe  Fe149  1  -0.00007256  0.00014458  0.49883415  1
  Fe  Fe150  1  0.00036156  -0.00030872  -0.00005211  1
  Fe  Fe151  1  0.24996405  0.16633656  0.37468185  1
  Fe  Fe152  1  0.25091113  0.16679463  0.87453660  1
  Fe  Fe153  1  0.74928137  0.83299671  0.37507194  1
  Fe  Fe154  1  -0.00042814  0.33343713  0.50053945  1
  Fe  Fe155  1  0.24988426  0.66773571  0.62473286  1
  Fe  Fe156  1  0.74994712  0.50013802  0.87483541  1
  Fe  Fe157  1  0.50031173  0.83377679  -0.00092873  1
  Fe  Fe158  1  0.00077736  0.49978699  0.00058283  1
  Fe  Fe159  1  0.75069938  0.49972858  0.62596925  1
  Fe  Fe160  1  0.74990534  0.66679130  0.12415516  1
  Fe  Fe161  1  0.00039103  0.16605202  0.00024313  1
  Fe  Fe162  1  0.00021892  0.83351430  -0.00010412  1
  Fe  Fe163  1  0.49937062  -0.00088398  0.49914367  1
  Fe  Fe164  1  0.74962806  0.83260763  0.62489558  1
  Fe  Fe165  1  0.49972319  -0.00068875  0.74886115  1
  Fe  Fe166  1  0.74980326  0.66649397  0.87390973  1
  Fe  Fe167  1  -0.00049057  -0.00068871  0.24855275  1
  Fe  Fe168  1  0.74974734  0.16644019  0.12495550  1
  Fe  Fe169  1  0.50006321  0.49941601  0.50047356  1
  Fe  Fe170  1  0.49987661  0.83377811  0.74906029  1
  Fe  Fe171  1  0.74991674  0.66627141  0.62566712  1
  Fe  Fe172  1  0.75007795  0.16604268  0.87447227  1
  Fe  Fe173  1  0.25020763  0.66695509  0.12586190  1
  Fe  Fe174  1  0.25022849  0.33331208  0.62482629  1
  Fe  Fe175  1  0.49975339  0.16623663  0.25060916  1
  Fe  Fe176  1  0.49967439  0.83313483  0.25018282  1
  Fe  Fe177  1  0.49972588  0.33306121  0.25105384  1
  Fe  Fe178  1  0.49994899  0.33302527  0.50009524  1
  Fe  Fe179  1  0.24971793  0.16680833  0.62473819  1
  Fe  Fe180  1  0.25072847  0.16560871  0.12454979  1
  Fe  Fe181  1  0.49977230  0.50038547  0.74988423  1
  Fe  Fe182  1  0.75025167  0.83247049  0.87378436  1
  Fe  Fe183  1  -0.00069887  0.83392346  0.24912996  1
  Fe  Fe184  1  0.24899674  0.83322666  0.37474012  1
  Fe  Fe185  1  0.00021322  0.33317471  0.00024176  1
  Fe  Fe186  1  0.49929141  0.83332122  0.49977904  1
  Fe  Fe187  1  0.24975049  0.83448021  0.62457855  1
  Fe  Fe188  1  0.25044715  0.00128003  0.87427533  1
  Fe  Fe189  1  0.24971048  0.00028693  0.37463103  1
  Fe  Fe190  1  0.25024404  0.00045950  0.12495882  1
  Fe  Fe191  1  0.74911008  -0.00112401  0.62529102  1
  P  P192  1  0.04187944  0.24944097  0.10141920  1
  P  P193  1  0.04284779  0.24966438  0.35336690  1
  P  P194  1  0.04243170  0.25173782  0.60251859  1
  P  P195  1  0.04280744  0.24998701  0.85453726  1
  P  P196  1  0.04265656  0.58248116  0.10253928  1
  P  P197  1  0.04296971  0.58329544  0.35328190  1
  P  P198  1  0.04256156  0.58330582  0.60393509  1
  P  P199  1  0.04261457  0.58192688  0.85322900  1
  P  P200  1  0.04147020  0.91660754  0.10185999  1
  P  P201  1  0.04105391  0.91725479  0.35078426  1
  P  P202  1  0.04268022  0.91889594  0.60152227  1
  P  P203  1  0.04310960  0.91713576  0.85404564  1
  P  P204  1  0.54226039  0.24996193  0.10455528  1
  P  P205  1  0.54104263  0.24961235  0.35245156  1
  P  P206  1  0.54227520  0.25114867  0.60237387  1
  P  P207  1  0.54343337  0.25012563  0.85298728  1
  P  P208  1  0.54276531  0.58358917  0.10421922  1
  P  P209  1  0.54180939  0.58162398  0.35372723  1
  P  P210  1  0.54165981  0.58227235  0.60284273  1
  P  P211  1  0.54235553  0.58278508  0.85214145  1
  P  P212  1  0.54244425  0.91479951  0.10235915  1
  P  P213  1  0.54179381  0.91480770  0.35302260  1
  P  P214  1  0.54061657  0.91658005  0.60166380  1
  P  P215  1  0.54163061  0.91636785  0.85086086  1
  P  P216  1  0.45791623  0.08404360  0.14790252  1
  P  P217  1  0.45769352  0.08194195  0.39701666  1
  P  P218  1  0.45787440  0.08166570  0.64656948  1
  P  P219  1  0.45786738  0.08256502  0.89596189  1
  P  P220  1  0.45800905  0.41686243  0.14987565  1
  P  P221  1  0.45829938  0.41594584  0.39852506  1
  P  P222  1  0.45836128  0.41818174  0.64691547  1
  P  P223  1  0.45703227  0.41733089  0.89696883  1
  P  P224  1  0.45753960  0.75158526  0.14760220  1
  P  P225  1  0.45736177  0.75106882  0.39744623  1
  P  P226  1  0.45784669  0.75178825  0.64671522  1
  P  P227  1  0.45784469  0.75184608  0.89684687  1
  P  P228  1  0.95830731  0.08161906  0.14604567  1
  P  P229  1  0.95743171  0.08146230  0.39655612  1
  P  P230  1  0.95703232  0.08366254  0.64632694  1
  P  P231  1  0.95882333  0.08301290  0.89869333  1
  P  P232  1  0.95732719  0.41628548  0.14574777  1
  P  P233  1  0.95709982  0.41504148  0.39798678  1
  P  P234  1  0.95794557  0.41770194  0.64830372  1
  P  P235  1  0.95898085  0.41711642  0.89891319  1
  P  P236  1  0.95813629  0.75161519  0.14650669  1
  P  P237  1  0.95682390  0.75061432  0.39604255  1
  P  P238  1  0.95720377  0.75061236  0.64687944  1
  P  P239  1  0.95815298  0.75125733  0.89749275  1
  P  P240  1  0.20837946  0.08303717  0.22675340  1
  P  P241  1  0.20850674  0.08399942  0.47630332  1
  P  P242  1  0.20780117  0.08498807  0.72755719  1
  P  P243  1  0.20936773  0.08381512  0.97682269  1
  P  P244  1  0.20751784  0.41625663  0.22932841  1
  P  P245  1  0.20867956  0.41799923  0.47892780  1
  P  P246  1  0.20922228  0.41674390  0.72663390  1
  P  P247  1  0.20781836  0.41652694  0.97846985  1
  P  P248  1  0.20772762  0.74914460  0.22811769  1
  P  P249  1  0.20751206  0.75164771  0.47829061  1
  P  P250  1  0.20858241  0.75141326  0.72627503  1
  P  P251  1  0.20750753  0.75056904  0.97880141  1
  P  P252  1  0.70747976  0.08378788  0.22722498  1
  P  P253  1  0.70672290  0.08243389  0.47893008  1
  P  P254  1  0.70743804  0.08150009  0.72752538  1
  P  P255  1  0.70763660  0.08470539  0.97735276  1
  P  P256  1  0.70695313  0.41678864  0.22820615  1
  P  P257  1  0.70778942  0.41682095  0.47979531  1
  P  P258  1  0.70900796  0.41660128  0.72749230  1
  P  P259  1  0.70790905  0.41811079  0.97728011  1
  P  P260  1  0.70746417  0.74848553  0.22725885  1
  P  P261  1  0.70751456  0.75123879  0.47840717  1
  P  P262  1  0.70861512  0.74938120  0.72703230  1
  P  P263  1  0.70829979  0.74948693  0.97571107  1
  P  P264  1  0.29277319  0.24821483  0.02258391  1
  P  P265  1  0.29236666  0.24775404  0.27254485  1
  P  P266  1  0.29138398  0.24962109  0.52312074  1
  P  P267  1  0.29241541  0.24902727  0.77132589  1
  P  P268  1  0.29295639  0.58523535  0.02324748  1
  P  P269  1  0.29246048  0.58239121  0.27350369  1
  P  P270  1  0.29129559  0.58363246  0.52372074  1
  P  P271  1  0.29257588  0.58402853  0.77074998  1
  P  P272  1  0.29216927  0.91899786  0.02232198  1
  P  P273  1  0.29048570  0.91681916  0.27316408  1
  P  P274  1  0.29128506  0.91611097  0.52122324  1
  P  P275  1  0.29184179  0.91851282  0.77187610  1
  P  P276  1  0.79190125  0.24830338  0.02201132  1
  P  P277  1  0.79269076  0.24918517  0.27149020  1
  P  P278  1  0.79240266  0.25106790  0.52316975  1
  P  P279  1  0.79270236  0.24858234  0.77251346  1
  P  P280  1  0.79193866  0.58511417  0.02109712  1
  P  P281  1  0.79301943  0.58387014  0.27167328  1
  P  P282  1  0.79175780  0.58342095  0.52433262  1
  P  P283  1  0.79143867  0.58287781  0.77269105  1
  P  P284  1  0.79244338  0.91610537  0.02056216  1
  P  P285  1  0.79163968  0.91476262  0.27218179  1
  P  P286  1  0.79051199  0.91594631  0.52311697  1
  P  P287  1  0.79176101  0.91477231  0.77128449  1
  O  O288  1  0.03725073  0.24883878  0.18147151  1
  O  O289  1  0.03740430  0.25004830  0.43331726  1
  O  O290  1  0.03763188  0.25151518  0.68257165  1
  O  O291  1  0.03737379  0.24981926  0.93444025  1
  O  O292  1  0.03751479  0.58278435  0.18252242  1
  O  O293  1  0.03770147  0.58345750  0.43329790  1
  O  O294  1  0.03752434  0.58279803  0.68396478  1
  O  O295  1  0.03730650  0.58190794  0.93323294  1
  O  O296  1  0.03589512  0.91651591  0.18178877  1
  O  O297  1  0.03620845  0.91795892  0.43080808  1
  O  O298  1  0.03818557  0.91862887  0.68156423  1
  O  O299  1  0.03772631  0.91668972  0.93397911  1
  O  O300  1  0.53658067  0.24963493  0.18450738  1
  O  O301  1  0.53594829  0.25008568  0.43248419  1
  O  O302  1  0.53728612  0.25094968  0.68233572  1
  O  O303  1  0.53836607  0.25009000  0.93301623  1
  O  O304  1  0.53765489  0.58337754  0.18421083  1
  O  O305  1  0.53619887  0.58162684  0.43367646  1
  O  O306  1  0.53646082  0.58249137  0.68282409  1
  O  O307  1  0.53730750  0.58338746  0.93214523  1
  O  O308  1  0.53732098  0.91462840  0.18233905  1
  O  O309  1  0.53607288  0.91531297  0.43290179  1
  O  O310  1  0.53549867  0.91670748  0.68161664  1
  O  O311  1  0.53682484  0.91590973  0.93092152  1
  O  O312  1  0.46298257  0.08367115  0.06789860  1
  O  O313  1  0.46330286  0.08271204  0.31707908  1
  O  O314  1  0.46318804  0.08156509  0.56658097  1
  O  O315  1  0.46320451  0.08199876  0.81599145  1
  O  O316  1  0.46277730  0.41681427  0.06981618  1
  O  O317  1  0.46351594  0.41591892  0.31857032  1
  O  O318  1  0.46376834  0.41783880  0.56699261  1
  O  O319  1  0.46217578  0.41780931  0.81697089  1
  O  O320  1  0.46284442  0.75161679  0.06759096  1
  O  O321  1  0.46260420  0.75097806  0.31747685  1
  O  O322  1  0.46292701  0.75170338  0.56673849  1
  O  O323  1  0.46313563  0.75168529  0.81684669  1
  O  O324  1  0.96374645  0.08202209  0.06613287  1
  O  O325  1  0.96264219  0.08117374  0.31654041  1
  O  O326  1  0.96191860  0.08336427  0.56630453  1
  O  O327  1  0.96343299  0.08369292  0.81865308  1
  O  O328  1  0.96299718  0.41651068  0.06582656  1
  O  O329  1  0.96199885  0.41518400  0.31796755  1
  O  O330  1  0.96272289  0.41676838  0.56831434  1
  O  O331  1  0.96416593  0.41781491  0.81890311  1
  O  O332  1  0.96381666  0.75183124  0.06655804  1
  O  O333  1  0.96217249  0.75094560  0.31604110  1
  O  O334  1  0.96185829  0.75057347  0.56683012  1
  O  O335  1  0.96326765  0.75094018  0.81752289  1
  O  O336  1  0.21469239  0.08349591  0.05672606  1
  O  O337  1  0.21332046  0.08309395  0.30667047  1
  O  O338  1  0.21316656  0.08413293  0.55627465  1
  O  O339  1  0.21348389  0.08460358  0.80739745  1
  O  O340  1  0.21267307  0.41646923  0.05846155  1
  O  O341  1  0.21285381  0.41658790  0.30931702  1
  O  O342  1  0.21438987  0.41795509  0.55881887  1
  O  O343  1  0.21419398  0.41635975  0.80664257  1
  O  O344  1  0.21277938  0.74997294  0.05875261  1
  O  O345  1  0.21293193  0.74966146  0.30810254  1
  O  O346  1  0.21295594  0.75190823  0.55819217  1
  O  O347  1  0.21321518  0.75136988  0.80633874  1
  O  O348  1  0.71296180  0.08496248  0.05735142  1
  O  O349  1  0.71226152  0.08311358  0.30727503  1
  O  O350  1  0.71189803  0.08184826  0.55889910  1
  O  O351  1  0.71259023  0.08205005  0.80749817  1
  O  O352  1  0.71301783  0.41797969  0.05723869  1
  O  O353  1  0.71202461  0.41672245  0.30822217  1
  O  O354  1  0.71342264  0.41668171  0.55974925  1
  O  O355  1  0.71412525  0.41693145  0.80749323  1
  O  O356  1  0.71342323  0.74902335  0.05570705  1
  O  O357  1  0.71256672  0.74934964  0.30722013  1
  O  O358  1  0.71270759  0.75125402  0.55827408  1
  O  O359  1  0.71379498  0.74928278  0.80693356  1
  O  O360  1  0.28716943  0.24762890  0.19259028  1
  O  O361  1  0.28655381  0.24971704  0.44313666  1
  O  O362  1  0.28672431  0.24949094  0.69146542  1
  O  O363  1  0.28778662  0.24844597  0.94254801  1
  O  O364  1  0.28737765  0.58304281  0.19356397  1
  O  O365  1  0.28642184  0.58315573  0.44371529  1
  O  O366  1  0.28697019  0.58391288  0.69084726  1
  O  O367  1  0.28801396  0.58496070  0.94318685  1
  O  O368  1  0.28586058  0.91762311  0.19313891  1
  O  O369  1  0.28586867  0.91580543  0.44136618  1
  O  O370  1  0.28643230  0.91777238  0.69191866  1
  O  O371  1  0.28700195  0.91923730  0.94234193  1
  O  O372  1  0.78736614  0.24869168  0.19148532  1
  O  O373  1  0.78732705  0.25088240  0.44316475  1
  O  O374  1  0.78719507  0.24961378  0.69256203  1
  O  O375  1  0.78672493  0.24813114  0.94203037  1
  O  O376  1  0.78795239  0.58427826  0.19167629  1
  O  O377  1  0.78708530  0.58374938  0.44430368  1
  O  O378  1  0.78640362  0.58213719  0.69274786  1
  O  O379  1  0.78635820  0.58478848  0.94119352  1
  O  O380  1  0.78658259  0.91516254  0.19220103  1
  O  O381  1  0.78536717  0.91580266  0.44312258  1
  O  O382  1  0.78604675  0.91506278  0.69139159  1
  O  O383  1  0.78729187  0.91575658  0.94060018  1
  O  O384  1  0.22845291  0.24792039  0.05821122  1
  O  O385  1  0.22811989  0.24828559  0.30832186  1
  O  O386  1  0.22724752  0.24918612  0.55906339  1
  O  O387  1  0.22845448  0.24839250  0.80794670  1
  O  O388  1  0.22852526  0.58529161  0.05859730  1
  O  O389  1  0.22817456  0.58188853  0.30921905  1
  O  O390  1  0.22725881  0.58307654  0.55975936  1
  O  O391  1  0.22846101  0.58380445  0.80680023  1
  O  O392  1  0.22791594  0.91883509  0.05809090  1
  O  O393  1  0.22633878  0.91653104  0.30899762  1
  O  O394  1  0.22720942  0.91609990  0.55748756  1
  O  O395  1  0.22772260  0.91933275  0.80796047  1
  O  O396  1  0.72771288  0.24840698  0.05791111  1
  O  O397  1  0.72832814  0.24962181  0.30686835  1
  O  O398  1  0.72810202  0.25112048  0.55870050  1
  O  O399  1  0.72843822  0.24833978  0.80829126  1
  O  O400  1  0.72786453  0.58530024  0.05751273  1
  O  O401  1  0.72866878  0.58375028  0.30703298  1
  O  O402  1  0.72756986  0.58256270  0.56005587  1
  O  O403  1  0.72735257  0.58308520  0.80891884  1
  O  O404  1  0.72816473  0.91624437  0.05595664  1
  O  O405  1  0.72730272  0.91433851  0.30775862  1
  O  O406  1  0.72644184  0.91535252  0.55929716  1
  O  O407  1  0.72769341  0.91452671  0.80762136  1
  O  O408  1  0.27263230  0.08299796  0.19069084  1
  O  O409  1  0.27268726  0.08407381  0.44045042  1
  O  O410  1  0.27182761  0.08506443  0.69108758  1
  O  O411  1  0.27328502  0.08381754  0.94002018  1
  O  O412  1  0.27182774  0.41616666  0.19392779  1
  O  O413  1  0.27267666  0.41811785  0.44240049  1
  O  O414  1  0.27326628  0.41723498  0.69058602  1
  O  O415  1  0.27225525  0.41640617  0.94344001  1
  O  O416  1  0.27196077  0.74923241  0.19226905  1
  O  O417  1  0.27158569  0.75190838  0.44201201  1
  O  O418  1  0.27277070  0.75174716  0.69056846  1
  O  O419  1  0.27176427  0.75128148  0.94327767  1
  O  O420  1  0.77186951  0.08404319  0.19187926  1
  O  O421  1  0.77103344  0.08242059  0.44353532  1
  O  O422  1  0.77166084  0.08142957  0.69188677  1
  O  O423  1  0.77185440  0.08422605  0.94143811  1
  O  O424  1  0.77133685  0.41680660  0.19304647  1
  O  O425  1  0.77195858  0.41692364  0.44385032  1
  O  O426  1  0.77316915  0.41642942  0.69149825  1
  O  O427  1  0.77222701  0.41807168  0.94178661  1
  O  O428  1  0.77174659  0.74794118  0.19142743  1
  O  O429  1  0.77168769  0.75193926  0.44224999  1
  O  O430  1  0.77259219  0.75001498  0.69063429  1
  O  O431  1  0.77243957  0.74972703  0.93955272  1
  O  O432  1  0.02242818  0.08101448  0.18216469  1
  O  O433  1  0.02173853  0.08184020  0.43215837  1
  O  O434  1  0.02155044  0.08409817  0.68119849  1
  O  O435  1  0.02307990  0.08229745  0.93414826  1
  O  O436  1  0.02150016  0.41631868  0.18157687  1
  O  O437  1  0.02156159  0.41489077  0.43317955  1
  O  O438  1  0.02239505  0.41876267  0.68358725  1
  O  O439  1  0.02309758  0.41633726  0.93488893  1
  O  O440  1  0.02221198  0.75213073  0.18265088  1
  O  O441  1  0.02114848  0.75071188  0.43137841  1
  O  O442  1  0.02176291  0.75023112  0.68149747  1
  O  O443  1  0.02241429  0.75120142  0.93294377  1
  O  O444  1  0.52223039  0.08412265  0.18328808  1
  O  O445  1  0.52176306  0.08155748  0.43312699  1
  O  O446  1  0.52205643  0.08132799  0.68240884  1
  O  O447  1  0.52205501  0.08263816  0.93157452  1
  O  O448  1  0.52221109  0.41701051  0.18556296  1
  O  O449  1  0.52234707  0.41567561  0.43484213  1
  O  O450  1  0.52245513  0.41868621  0.68309970  1
  O  O451  1  0.52146041  0.41708197  0.93205652  1
  O  O452  1  0.52178288  0.75148351  0.18335050  1
  O  O453  1  0.52156708  0.75083470  0.43311417  1
  O  O454  1  0.52208001  0.75172755  0.68241305  1
  O  O455  1  0.52212982  0.75194317  0.93259261  1
  O  O456  1  0.47813197  0.24990335  0.06858566  1
  O  O457  1  0.47698922  0.24937449  0.31642031  1
  O  O458  1  0.47794998  0.25107758  0.56695120  1
  O  O459  1  0.47900526  0.25008306  0.81808107  1
  O  O460  1  0.47840407  0.58412651  0.06898856  1
  O  O461  1  0.47768851  0.58183727  0.31768745  1
  O  O462  1  0.47748143  0.58227773  0.56711192  1
  O  O463  1  0.47803771  0.58261842  0.81667082  1
  O  O464  1  0.47810287  0.91463427  0.06681013  1
  O  O465  1  0.47772576  0.91486158  0.31673964  1
  O  O466  1  0.47660738  0.91681395  0.56529421  1
  O  O467  1  0.47737908  0.91647565  0.81513193  1
  O  O468  1  0.97769522  0.25021969  0.06581251  1
  O  O469  1  0.97858730  0.24890585  0.31791483  1
  O  O470  1  0.97800244  0.25143509  0.56733683  1
  O  O471  1  0.97857754  0.25057226  0.81889657  1
  O  O472  1  0.97840132  0.58235593  0.06703518  1
  O  O473  1  0.97859414  0.58365976  0.31821903  1
  O  O474  1  0.97816876  0.58310558  0.56882668  1
  O  O475  1  0.97832158  0.58172914  0.81754959  1
  O  O476  1  0.97755089  0.91696481  0.06526405  1
  O  O477  1  0.97684397  0.91699270  0.31494228  1
  O  O478  1  0.97807251  0.91922143  0.56669789  1
  O  O479  1  0.97885180  0.91712973  0.81842135  1
  O  O480  1  0.07330944  0.31288602  0.07376785  1
  O  O481  1  0.07390752  0.31297917  0.32484202  1
  O  O482  1  0.07271237  0.31557059  0.57411647  1
  O  O483  1  0.07443174  0.31327873  0.82630568  1
  O  O484  1  0.07375276  0.64612399  0.07472739  1
  O  O485  1  0.07436617  0.64657828  0.32509380  1
  O  O486  1  0.07326662  0.64712694  0.57594602  1
  O  O487  1  0.07342880  0.64589896  0.82554662  1
  O  O488  1  0.07284995  0.98004703  0.07365594  1
  O  O489  1  0.07205747  0.98057395  0.32193647  1
  O  O490  1  0.07339294  0.98231735  0.57269496  1
  O  O491  1  0.07414698  0.98069865  0.82580687  1
  O  O492  1  0.57330019  0.31365739  0.07648053  1
  O  O493  1  0.57198468  0.31316461  0.32397709  1
  O  O494  1  0.57291010  0.31474123  0.57394178  1
  O  O495  1  0.57450064  0.31365083  0.82496155  1
  O  O496  1  0.57396001  0.64695121  0.07570178  1
  O  O497  1  0.57300634  0.64539478  0.32625319  1
  O  O498  1  0.57269685  0.64607403  0.57510069  1
  O  O499  1  0.57335511  0.64640573  0.82406080  1
  O  O500  1  0.57310705  0.97887412  0.07473535  1
  O  O501  1  0.57321099  0.97825194  0.32482161  1
  O  O502  1  0.57175613  0.97996837  0.57302389  1
  O  O503  1  0.57234213  0.98017192  0.82272724  1
  O  O504  1  0.42692369  0.02024243  0.17561038  1
  O  O505  1  0.42679918  0.01820542  0.42486444  1
  O  O506  1  0.42654673  0.01855159  0.67520057  1
  O  O507  1  0.42657128  0.01940141  0.92467433  1
  O  O508  1  0.42738240  0.35299409  0.17799403  1
  O  O509  1  0.42713026  0.35240568  0.42689561  1
  O  O510  1  0.42731580  0.35446242  0.67487568  1
  O  O511  1  0.42609543  0.35363626  0.92509855  1
  O  O512  1  0.42648292  0.68792228  0.17560560  1
  O  O513  1  0.42614615  0.68736612  0.42518397  1
  O  O514  1  0.42687436  0.68802982  0.67450914  1
  O  O515  1  0.42690275  0.68811779  0.92485381  1
  O  O516  1  0.92688080  0.01832902  0.17443007  1
  O  O517  1  0.92664426  0.01808137  0.42543389  1
  O  O518  1  0.92609909  0.02035635  0.67516098  1
  O  O519  1  0.92740897  0.01952777  0.92629997  1
  O  O520  1  0.92620248  0.35268819  0.17383516  1
  O  O521  1  0.92652009  0.35151413  0.42674760  1
  O  O522  1  0.92730689  0.35411882  0.67700425  1
  O  O523  1  0.92771157  0.35337768  0.92643550  1
  O  O524  1  0.92744957  0.68752667  0.17388209  1
  O  O525  1  0.92585364  0.68701789  0.42421653  1
  O  O526  1  0.92600425  0.68736301  0.67541873  1
  O  O527  1  0.92698274  0.68756400  0.92512281  1
  O  O528  1  0.17751208  0.01944517  0.19813210  1
  O  O529  1  0.17821934  0.01998581  0.44780552  1
  O  O530  1  0.17641265  0.02160187  0.69929187  1
  O  O531  1  0.17829003  0.02031811  0.94835404  1
  O  O532  1  0.17656655  0.35251190  0.20144234  1
  O  O533  1  0.17744968  0.35432352  0.45122191  1
  O  O534  1  0.17892801  0.35270438  0.69830591  1
  O  O535  1  0.17675960  0.35309694  0.95024955  1
  O  O536  1  0.17734447  0.68529110  0.19978458  1
  O  O537  1  0.17651562  0.68772145  0.45082520  1
  O  O538  1  0.17830127  0.68734460  0.69801134  1
  O  O539  1  0.17646742  0.68735170  0.94994983  1
  O  O540  1  0.67651916  0.02016923  0.19902101  1
  O  O541  1  0.67527311  0.01946238  0.45011540  1
  O  O542  1  0.67690762  0.01768569  0.69921649  1
  O  O543  1  0.67633011  0.02090426  0.95002060  1
  O  O544  1  0.67595792  0.35331951  0.19999130  1
  O  O545  1  0.67650811  0.35354296  0.45123290  1
  O  O546  1  0.67822989  0.35267363  0.69967084  1
  O  O547  1  0.67677841  0.35438366  0.94976329  1
  O  O548  1  0.67669065  0.68486716  0.19896633  1
  O  O549  1  0.67690062  0.68720050  0.45057410  1
  O  O550  1  0.67835667  0.68527655  0.69857456  1
  O  O551  1  0.67722809  0.68610498  0.94725266  1
  O  O552  1  0.32353752  0.31200506  0.05077092  1
  O  O553  1  0.32366924  0.31131720  0.30032315  1
  O  O554  1  0.32159129  0.31371401  0.55159321  1
  O  O555  1  0.32348015  0.31264697  0.79955663  1
  O  O556  1  0.32350137  0.64886193  0.05178382  1
  O  O557  1  0.32356203  0.64589651  0.30170149  1
  O  O558  1  0.32110511  0.64828199  0.55138164  1
  O  O559  1  0.32364281  0.64769393  0.79876781  1
  O  O560  1  0.32324481  0.98215211  0.05123063  1
  O  O561  1  0.32123674  0.98038177  0.30202928  1
  O  O562  1  0.32242624  0.97985049  0.54897429  1
  O  O563  1  0.32296932  0.98204853  0.79981707  1
  O  O564  1  0.82286305  0.31229512  0.04927579  1
  O  O565  1  0.82392853  0.31276850  0.29931012  1
  O  O566  1  0.82313797  0.31448553  0.55192184  1
  O  O567  1  0.82408569  0.31181598  0.80096715  1
  O  O568  1  0.82284575  0.64861580  0.04967389  1
  O  O569  1  0.82423342  0.64706160  0.30034599  1
  O  O570  1  0.82166598  0.64767192  0.55260445  1
  O  O571  1  0.82247782  0.64668031  0.80040137  1
  O  O572  1  0.82338746  0.97974827  0.04863876  1
  O  O573  1  0.82241335  0.97857856  0.30005897  1
  O  O574  1  0.82069252  0.98012733  0.55133764  1
  O  O575  1  0.82304820  0.97830838  0.79928628  1
  O  O576  1  0.42716718  0.14740408  0.17651974  1
  O  O577  1  0.42648384  0.14526517  0.42529131  1
  O  O578  1  0.42731718  0.14574966  0.67408010  1
  O  O579  1  0.42693220  0.14625364  0.92371847  1
  O  O580  1  0.42714671  0.48047082  0.17801662  1
  O  O581  1  0.42772071  0.47969701  0.42696334  1
  O  O582  1  0.42731315  0.48148355  0.67558975  1
  O  O583  1  0.42593023  0.48051306  0.92573975  1
  O  O584  1  0.42662160  0.81489975  0.17629709  1
  O  O585  1  0.42655339  0.81440160  0.42612977  1
  O  O586  1  0.42697519  0.81508952  0.67541398  1
  O  O587  1  0.42697102  0.81522258  0.92542844  1
  O  O588  1  0.92753651  0.14523115  0.17446314  1
  O  O589  1  0.92628130  0.14507849  0.42428289  1
  O  O590  1  0.92610216  0.14720118  0.67463140  1
  O  O591  1  0.92874493  0.14694131  0.92742717  1
  O  O592  1  0.92603731  0.47951025  0.17436550  1
  O  O593  1  0.92627078  0.47878698  0.42583800  1
  O  O594  1  0.92699427  0.48112363  0.67670722  1
  O  O595  1  0.92842467  0.48076257  0.92744219  1
  O  O596  1  0.92674115  0.81468097  0.17508664  1
  O  O597  1  0.92564194  0.81387974  0.42450514  1
  O  O598  1  0.92670801  0.81438952  0.67487759  1
  O  O599  1  0.92749994  0.81480662  0.92583388  1
  O  O600  1  0.07188648  0.18534065  0.07297414  1
  O  O601  1  0.07407599  0.18615204  0.32534295  1
  O  O602  1  0.07359749  0.18833399  0.57447258  1
  O  O603  1  0.07357979  0.18660702  0.82568015  1
  O  O604  1  0.07339861  0.51888951  0.07430142  1
  O  O605  1  0.07360037  0.51949393  0.32552111  1
  O  O606  1  0.07400854  0.52031036  0.57526898  1
  O  O607  1  0.07369051  0.51874904  0.82456275  1
  O  O608  1  0.07223016  0.85289494  0.07359389  1
  O  O609  1  0.07169984  0.85330818  0.32305676  1
  O  O610  1  0.07317596  0.85510791  0.57334078  1
  O  O611  1  0.07435305  0.85398662  0.82518054  1
  O  O612  1  0.57367701  0.18688589  0.07584651  1
  O  O613  1  0.57186509  0.18573912  0.32470303  1
  O  O614  1  0.57334911  0.18749798  0.57472567  1
  O  O615  1  0.57434859  0.18673107  0.82459665  1
  O  O616  1  0.57360286  0.52014551  0.07574283  1
  O  O617  1  0.57265344  0.51817293  0.32536555  1
  O  O618  1  0.57264291  0.51901950  0.57426927  1
  O  O619  1  0.57297345  0.51919582  0.82378120  1
  O  O620  1  0.57352960  0.85182532  0.07320102  1
  O  O621  1  0.57267120  0.85137161  0.32456877  1
  O  O622  1  0.57130577  0.85276514  0.57348182  1
  O  O623  1  0.57248370  0.85290584  0.82218562  1
  O  O624  1  0.32375816  0.18489052  0.05102308  1
  O  O625  1  0.32291029  0.18429722  0.30129040  1
  O  O626  1  0.32271788  0.18632694  0.55124045  1
  O  O627  1  0.32367679  0.18574664  0.79969173  1
  O  O628  1  0.32390120  0.52156365  0.05110362  1
  O  O629  1  0.32310847  0.51881277  0.30199673  1
  O  O630  1  0.32315206  0.52082203  0.55212360  1
  O  O631  1  0.32396584  0.52086421  0.79928420  1
  O  O632  1  0.32305458  0.85524433  0.05011899  1
  O  O633  1  0.32135152  0.85303177  0.30085548  1
  O  O634  1  0.32230660  0.85301642  0.55044790  1
  O  O635  1  0.32265196  0.85499819  0.80023174  1
  O  O636  1  0.82273261  0.18504034  0.05086828  1
  O  O637  1  0.82365266  0.18588638  0.30018896  1
  O  O638  1  0.82339588  0.18726757  0.55050345  1
  O  O639  1  0.82319407  0.18464306  0.80027490  1
  O  O640  1  0.82315515  0.52165559  0.04918692  1
  O  O641  1  0.82389255  0.52024873  0.29982059  1
  O  O642  1  0.82328401  0.52021176  0.55227041  1
  O  O643  1  0.82223896  0.51949498  0.80182192  1
  O  O644  1  0.82368840  0.85294419  0.04897585  1
  O  O645  1  0.82240844  0.85136318  0.30064556  1
  O  O646  1  0.82221572  0.85291339  0.55128404  1
  O  O647  1  0.82279117  0.85140240  0.79978491  1
  O  O648  1  0.17763907  0.14652935  0.19792512  1
  O  O649  1  0.17736519  0.14730937  0.44798722  1
  O  O650  1  0.17691401  0.14840827  0.69896339  1
  O  O651  1  0.17854718  0.14747943  0.94860907  1
  O  O652  1  0.17618529  0.47935570  0.20084745  1
  O  O653  1  0.17766256  0.48134023  0.45032052  1
  O  O654  1  0.17788231  0.48020152  0.69905194  1
  O  O655  1  0.17710762  0.48012773  0.95024940  1
  O  O656  1  0.17634931  0.81244187  0.20007448  1
  O  O657  1  0.17630138  0.81462297  0.44903712  1
  O  O658  1  0.17740342  0.81488710  0.69835903  1
  O  O659  1  0.17630165  0.81416746  0.95112918  1
  O  O660  1  0.67690119  0.14746086  0.19911855  1
  O  O661  1  0.67603231  0.14632873  0.45121904  1
  O  O662  1  0.67603929  0.14479604  0.69948460  1
  O  O663  1  0.67698442  0.14799130  0.94837058  1
  O  O664  1  0.67603167  0.48028456  0.20020714  1
  O  O665  1  0.67663782  0.48028434  0.45164701  1
  O  O666  1  0.67808925  0.48002365  0.69907984  1
  O  O667  1  0.67724386  0.48159879  0.94872689  1
  O  O668  1  0.67651534  0.81191261  0.19877500  1
  O  O669  1  0.67632480  0.81420150  0.44916794  1
  O  O670  1  0.67697994  0.81243464  0.69868179  1
  O  O671  1  0.67768442  0.81339118  0.94781991  1
