# generated using pymatgen
data_Na2MnFe(PO4)2
_symmetry_space_group_name_H-M   'P 1'
_cell_length_a   22.34211297
_cell_length_b   20.09397068
_cell_length_c   19.44951788
_cell_angle_alpha   89.95689091
_cell_angle_beta   89.96052939
_cell_angle_gamma   90.05511260
_symmetry_Int_Tables_number   1
_chemical_formula_structural   Na2MnFe(PO4)2
_chemical_formula_sum   'Na96 Mn48 Fe48 P96 O384'
_cell_volume   8731.69225805
_cell_formula_units_Z   48
loop_
 _symmetry_equiv_pos_site_id
 _symmetry_equiv_pos_as_xyz
  1  'x, y, z'
loop_
 _atom_site_type_symbol
 _atom_site_label
 _atom_site_symmetry_multiplicity
 _atom_site_fract_x
 _atom_site_fract_y
 _atom_site_fract_z
 _atom_site_occupancy
  Na  Na0  1  0.14074688  0.24974610  0.24493360  1
  Na  Na1  1  0.14059184  0.24904483  0.49469961  1
  Na  Na2  1  0.14080944  0.24879118  0.74365736  1
  Na  Na3  1  0.14105440  0.25050866  0.99365001  1
  Na  Na4  1  0.14043738  0.58404174  0.24378958  1
  Na  Na5  1  0.14024405  0.58357591  0.49247235  1
  Na  Na6  1  0.14102757  0.58217101  0.74361267  1
  Na  Na7  1  0.14087378  0.58351522  0.99539475  1
  Na  Na8  1  0.14013738  0.91703747  0.24413195  1
  Na  Na9  1  0.14088711  0.91687765  0.49261789  1
  Na  Na10  1  0.14065688  0.91764362  0.74410227  1
  Na  Na11  1  0.14069159  0.91749205  0.99429343  1
  Na  Na12  1  0.63930767  0.24957093  0.24383492  1
  Na  Na13  1  0.63986151  0.25109555  0.49269797  1
  Na  Na14  1  0.64080303  0.24959979  0.74244212  1
  Na  Na15  1  0.64013563  0.24959884  0.99397805  1
  Na  Na16  1  0.64014568  0.58375480  0.24369988  1
  Na  Na17  1  0.64053171  0.58363013  0.49362969  1
  Na  Na18  1  0.64050862  0.58366776  0.74340856  1
  Na  Na19  1  0.64055482  0.58361652  0.99222029  1
  Na  Na20  1  0.64028190  0.91676343  0.24401826  1
  Na  Na21  1  0.63991625  0.91768020  0.49387456  1
  Na  Na22  1  0.64021185  0.91636214  0.74257909  1
  Na  Na23  1  0.64050691  0.91564850  0.99308466  1
  Na  Na24  1  0.35962461  0.08428185  0.00628112  1
  Na  Na25  1  0.35962058  0.08440739  0.25816143  1
  Na  Na26  1  0.35948995  0.08466297  0.50643501  1
  Na  Na27  1  0.35976713  0.08401571  0.75492583  1
  Na  Na28  1  0.35993243  0.41760828  0.00661427  1
  Na  Na29  1  0.35997123  0.41602512  0.25762991  1
  Na  Na30  1  0.35985514  0.41603842  0.50635420  1
  Na  Na31  1  0.35969183  0.41585125  0.75547652  1
  Na  Na32  1  0.36031996  0.75091642  0.00621451  1
  Na  Na33  1  0.35987658  0.75124919  0.25743635  1
  Na  Na34  1  0.35965904  0.75196461  0.50640055  1
  Na  Na35  1  0.36015316  0.75066910  0.75714255  1
  Na  Na36  1  0.85959883  0.08160940  0.00608643  1
  Na  Na37  1  0.85936910  0.08203641  0.25576574  1
  Na  Na38  1  0.85832405  0.08332618  0.50619576  1
  Na  Na39  1  0.85865684  0.08170479  0.75571536  1
  Na  Na40  1  0.85910000  0.41594647  0.00533367  1
  Na  Na41  1  0.85913667  0.41586916  0.25632844  1
  Na  Na42  1  0.85876356  0.41603974  0.50666673  1
  Na  Na43  1  0.85914253  0.41572555  0.75601784  1
  Na  Na44  1  0.85946272  0.74958875  0.00535598  1
  Na  Na45  1  0.85966378  0.74926911  0.25723219  1
  Na  Na46  1  0.85976994  0.74989483  0.50628543  1
  Na  Na47  1  0.85928551  0.74974116  0.75632162  1
  Na  Na48  1  0.10989766  0.08249634  0.11936046  1
  Na  Na49  1  0.10997388  0.08203092  0.36859140  1
  Na  Na50  1  0.11026047  0.08294055  0.61859026  1
  Na  Na51  1  0.11045415  0.08251623  0.86806488  1
  Na  Na52  1  0.11006271  0.41673877  0.11997333  1
  Na  Na53  1  0.10968191  0.41650967  0.36870313  1
  Na  Na54  1  0.10960745  0.41589524  0.61923599  1
  Na  Na55  1  0.11020225  0.41645843  0.86899190  1
  Na  Na56  1  0.11008979  0.75102939  0.12081725  1
  Na  Na57  1  0.10980129  0.74921341  0.36721282  1
  Na  Na58  1  0.10987014  0.75017598  0.61873107  1
  Na  Na59  1  0.10992972  0.74990558  0.86981189  1
  Na  Na60  1  0.60952908  0.08341971  0.11896842  1
  Na  Na61  1  0.60943055  0.08480972  0.36901425  1
  Na  Na62  1  0.60970464  0.08400749  0.61620051  1
  Na  Na63  1  0.60984972  0.08400906  0.86850838  1
  Na  Na64  1  0.60919521  0.41557109  0.11899356  1
  Na  Na65  1  0.60959058  0.41728905  0.36874193  1
  Na  Na66  1  0.60997563  0.41688697  0.61692469  1
  Na  Na67  1  0.60983933  0.41868033  0.86772194  1
  Na  Na68  1  0.61002336  0.74916995  0.11823677  1
  Na  Na69  1  0.60973906  0.75130976  0.36906876  1
  Na  Na70  1  0.60946040  0.75105418  0.61908768  1
  Na  Na71  1  0.60997315  0.75111525  0.86772410  1
  Na  Na72  1  0.39034325  0.25008427  0.13220970  1
  Na  Na73  1  0.39037019  0.25061937  0.38291221  1
  Na  Na74  1  0.38974320  0.25054439  0.63057487  1
  Na  Na75  1  0.39043950  0.25110443  0.88139692  1
  Na  Na76  1  0.39112923  0.58249718  0.13148658  1
  Na  Na77  1  0.39067510  0.58463230  0.38196564  1
  Na  Na78  1  0.39060455  0.58413693  0.63064020  1
  Na  Na79  1  0.39061579  0.58487124  0.88130040  1
  Na  Na80  1  0.39065448  0.91624593  0.13196347  1
  Na  Na81  1  0.39015389  0.91817039  0.38283803  1
  Na  Na82  1  0.39019875  0.91748038  0.63092414  1
  Na  Na83  1  0.39035712  0.91805939  0.88145853  1
  Na  Na84  1  0.89016963  0.24839694  0.13116918  1
  Na  Na85  1  0.88962098  0.24886027  0.38117158  1
  Na  Na86  1  0.88922603  0.24946546  0.63198166  1
  Na  Na87  1  0.89001774  0.24829316  0.88058069  1
  Na  Na88  1  0.89025609  0.58363843  0.13127164  1
  Na  Na89  1  0.89011115  0.58236676  0.38074967  1
  Na  Na90  1  0.89023100  0.58321828  0.63131513  1
  Na  Na91  1  0.88997363  0.58281910  0.88081942  1
  Na  Na92  1  0.89026758  0.91516725  0.13145845  1
  Na  Na93  1  0.88973023  0.91465243  0.38102851  1
  Na  Na94  1  0.88957670  0.91578914  0.63145219  1
  Na  Na95  1  0.88992723  0.91529540  0.88051481  1
  Mn  Mn96  1  0.00068736  0.66704029  0.75046843  1
  Mn  Mn97  1  0.25116151  0.66813532  0.12486521  1
  Mn  Mn98  1  0.74969611  -0.00069384  0.12504104  1
  Mn  Mn99  1  -0.00038709  0.33285918  0.49984823  1
  Mn  Mn100  1  0.00019795  0.49978836  0.00026813  1
  Mn  Mn101  1  0.50009931  0.00097579  0.25063667  1
  Mn  Mn102  1  -0.00036800  0.33294692  0.00052531  1
  Mn  Mn103  1  0.50028069  0.00036872  0.00015184  1
  Mn  Mn104  1  0.24983560  0.66625388  0.87582029  1
  Mn  Mn105  1  0.00080554  0.16513735  0.00021798  1
  Mn  Mn106  1  0.24996306  0.83471926  0.87519460  1
  Mn  Mn107  1  0.74976919  0.33301921  0.37509241  1
  Mn  Mn108  1  0.74934805  0.33190879  0.12518241  1
  Mn  Mn109  1  0.25026663  0.00001163  0.12615927  1
  Mn  Mn110  1  0.49925626  0.50168932  0.74921580  1
  Mn  Mn111  1  0.50059153  0.83327120  0.25059293  1
  Mn  Mn112  1  0.74960055  0.66675420  0.37528577  1
  Mn  Mn113  1  0.24968416  0.83480932  0.62532366  1
  Mn  Mn114  1  0.00037556  0.66676627  0.00072610  1
  Mn  Mn115  1  0.49989939  0.66800424  0.50048837  1
  Mn  Mn116  1  -0.00058491  0.16615602  0.74995075  1
  Mn  Mn117  1  0.24987725  0.16737730  0.12584245  1
  Mn  Mn118  1  0.00051524  0.49930973  0.75017401  1
  Mn  Mn119  1  0.75006099  0.66655285  0.62492568  1
  Mn  Mn120  1  0.49980060  0.00026073  0.74957966  1
  Mn  Mn121  1  0.25033461  0.49900142  0.62377500  1
  Mn  Mn122  1  0.50065793  0.33454155  0.74965409  1
  Mn  Mn123  1  0.74975855  0.33239675  0.87434246  1
  Mn  Mn124  1  0.25021788  0.33310243  0.87482734  1
  Mn  Mn125  1  -0.00041251  -0.00135308  0.49974653  1
  Mn  Mn126  1  0.25013729  0.49968434  0.37505137  1
  Mn  Mn127  1  -0.00033527  0.83362988  0.00043752  1
  Mn  Mn128  1  0.75053452  0.66707805  0.12427609  1
  Mn  Mn129  1  0.74976942  0.49968317  0.12429983  1
  Mn  Mn130  1  0.00014461  0.16516743  0.24999513  1
  Mn  Mn131  1  0.50010803  0.50000930  0.25033365  1
  Mn  Mn132  1  0.00010767  0.33332544  0.25031500  1
  Mn  Mn133  1  0.00054228  0.83179891  0.49970365  1
  Mn  Mn134  1  -0.00061236  0.50031255  0.49982578  1
  Mn  Mn135  1  0.50034927  0.16753463  0.74915471  1
  Mn  Mn136  1  0.50023012  0.66715603  -0.00026972  1
  Mn  Mn137  1  0.74936442  -0.00068884  0.87471750  1
  Mn  Mn138  1  0.74953590  0.00007572  0.37498153  1
  Mn  Mn139  1  -0.00059419  0.16575855  0.49979052  1
  Mn  Mn140  1  0.50019871  0.33344217  0.00009685  1
  Mn  Mn141  1  0.25086278  0.49989456  0.12579609  1
  Mn  Mn142  1  -0.00023562  -0.00139157  0.74936773  1
  Mn  Mn143  1  0.25025171  0.66690867  0.62496494  1
  Fe  Fe144  1  0.50038023  0.66793707  0.74985350  1
  Fe  Fe145  1  -0.00054867  0.49997509  0.25014441  1
  Fe  Fe146  1  0.00030471  0.83290857  0.74992771  1
  Fe  Fe147  1  0.74935231  0.16654308  0.62490541  1
  Fe  Fe148  1  0.24998230  0.16627906  0.62463733  1
  Fe  Fe149  1  0.74976278  0.16561262  0.87421245  1
  Fe  Fe150  1  0.50044782  0.50101825  0.49964128  1
  Fe  Fe151  1  0.49966280  0.83383541  0.50043082  1
  Fe  Fe152  1  0.25001648  0.00061470  0.37531307  1
  Fe  Fe153  1  0.50057487  0.50028953  0.00017803  1
  Fe  Fe154  1  0.49979446  0.33398192  0.49923632  1
  Fe  Fe155  1  0.49996151  0.16775921  0.49927578  1
  Fe  Fe156  1  0.25070446  0.49948642  0.87501549  1
  Fe  Fe157  1  0.24999770  0.16715678  0.37617495  1
  Fe  Fe158  1  0.49933152  0.16723201  0.25044390  1
  Fe  Fe159  1  0.25044911  0.33350239  0.12525478  1
  Fe  Fe160  1  0.25026237  0.00107409  0.62439716  1
  Fe  Fe161  1  0.75010311  0.83296344  0.87436050  1
  Fe  Fe162  1  0.74936639  -0.00017126  0.62480103  1
  Fe  Fe163  1  0.75012863  0.49997248  0.62494366  1
  Fe  Fe164  1  0.74939994  0.16678128  0.37549514  1
  Fe  Fe165  1  0.74986716  0.49932450  0.87423407  1
  Fe  Fe166  1  0.50007657  0.16693418  0.00049192  1
  Fe  Fe167  1  0.74976208  0.83362045  0.37556073  1
  Fe  Fe168  1  0.74984848  0.66639007  0.87422543  1
  Fe  Fe169  1  0.00027035  -0.00097517  -0.00026745  1
  Fe  Fe170  1  0.49982270  0.00069213  0.50006386  1
  Fe  Fe171  1  -0.00009743  0.66603964  0.25022416  1
  Fe  Fe172  1  0.74988314  0.16592494  0.12474493  1
  Fe  Fe173  1  0.74952143  0.33321211  0.62460969  1
  Fe  Fe174  1  0.25070030  0.16653475  0.87435661  1
  Fe  Fe175  1  0.49993811  0.83427207  0.74996788  1
  Fe  Fe176  1  0.25062337  0.83439645  0.12585266  1
  Fe  Fe177  1  0.00013207  0.33282596  0.75017998  1
  Fe  Fe178  1  0.74963315  0.83331202  0.62515355  1
  Fe  Fe179  1  0.25039413  0.66756110  0.37456956  1
  Fe  Fe180  1  0.49936702  0.33344386  0.25049083  1
  Fe  Fe181  1  0.00007585  0.66609374  0.49955563  1
  Fe  Fe182  1  0.74966099  0.83276373  0.12456891  1
  Fe  Fe183  1  0.24978572  0.33273415  0.37604737  1
  Fe  Fe184  1  -0.00007895  0.83273111  0.24996505  1
  Fe  Fe185  1  0.24972897  0.33236201  0.62563994  1
  Fe  Fe186  1  0.25068054  0.00115167  0.87477328  1
  Fe  Fe187  1  0.50006874  0.83349923  -0.00006602  1
  Fe  Fe188  1  -0.00066635  -0.00114595  0.24963915  1
  Fe  Fe189  1  0.25047904  0.83417569  0.37559763  1
  Fe  Fe190  1  0.50011739  0.66675216  0.24990166  1
  Fe  Fe191  1  0.74953801  0.49961587  0.37500280  1
  P  P192  1  0.04331195  0.24933265  0.10338283  1
  P  P193  1  0.04262739  0.24915721  0.35325947  1
  P  P194  1  0.04221764  0.24967983  0.60368061  1
  P  P195  1  0.04235676  0.25039155  0.85243311  1
  P  P196  1  0.04290089  0.58329684  0.10469470  1
  P  P197  1  0.04153744  0.58302604  0.35174938  1
  P  P198  1  0.04259960  0.58441560  0.60219976  1
  P  P199  1  0.04353076  0.58304673  0.85337006  1
  P  P200  1  0.04219346  0.91776897  0.10340228  1
  P  P201  1  0.04098683  0.91578868  0.35134987  1
  P  P202  1  0.04319762  0.91551440  0.60307676  1
  P  P203  1  0.04246319  0.91517949  0.85264248  1
  P  P204  1  0.54187501  0.24863950  0.10345772  1
  P  P205  1  0.54066939  0.25061568  0.35240095  1
  P  P206  1  0.54113515  0.25089398  0.60057467  1
  P  P207  1  0.54317766  0.25073500  0.85305800  1
  P  P208  1  0.54276072  0.58227462  0.10247614  1
  P  P209  1  0.54208991  0.58500354  0.35277601  1
  P  P210  1  0.54236967  0.58348300  0.60240703  1
  P  P211  1  0.54230543  0.58561087  0.85224006  1
  P  P212  1  0.54246618  0.91543782  0.10242168  1
  P  P213  1  0.54239052  0.91764337  0.35436153  1
  P  P214  1  0.54106336  0.91690068  0.60180964  1
  P  P215  1  0.54221151  0.91620909  0.85258279  1
  P  P216  1  0.45761460  0.08489861  0.14784590  1
  P  P217  1  0.45874615  0.08438027  0.39840093  1
  P  P218  1  0.45798607  0.08388805  0.64533825  1
  P  P219  1  0.45793370  0.08512386  0.89770605  1
  P  P220  1  0.45779999  0.41539547  0.14774982  1
  P  P221  1  0.45883491  0.41750296  0.39814405  1
  P  P222  1  0.45768493  0.41743518  0.64542554  1
  P  P223  1  0.45800139  0.41884579  0.89769411  1
  P  P224  1  0.45807386  0.74884062  0.14753082  1
  P  P225  1  0.45771624  0.75179632  0.39768346  1
  P  P226  1  0.45833745  0.75113830  0.64829719  1
  P  P227  1  0.45820621  0.75216305  0.89673147  1
  P  P228  1  0.95779030  0.08083239  0.14693797  1
  P  P229  1  0.95661984  0.08163463  0.39611678  1
  P  P230  1  0.95656087  0.08246528  0.64662435  1
  P  P231  1  0.95784963  0.08102459  0.89744084  1
  P  P232  1  0.95728409  0.41763187  0.14785124  1
  P  P233  1  0.95662590  0.41681815  0.39645073  1
  P  P234  1  0.95759297  0.41524932  0.64767272  1
  P  P235  1  0.95718818  0.41579887  0.89645565  1
  P  P236  1  0.95837908  0.74953512  0.14896124  1
  P  P237  1  0.95798558  0.74762715  0.39662768  1
  P  P238  1  0.95761111  0.75066354  0.64739369  1
  P  P239  1  0.95733467  0.75009162  0.89678323  1
  P  P240  1  0.20758957  0.08345848  0.22961190  1
  P  P241  1  0.20879999  0.08337499  0.47738425  1
  P  P242  1  0.20878059  0.08343208  0.72688936  1
  P  P243  1  0.20887052  0.08394489  0.97657849  1
  P  P244  1  0.20846155  0.41492065  0.22840296  1
  P  P245  1  0.20766201  0.41473796  0.47797687  1
  P  P246  1  0.20813324  0.41522985  0.72762215  1
  P  P247  1  0.20817522  0.41760190  0.97791443  1
  P  P248  1  0.20884429  0.75203259  0.22872533  1
  P  P249  1  0.20863215  0.75053672  0.47627792  1
  P  P250  1  0.20748636  0.75043939  0.72827227  1
  P  P251  1  0.20762518  0.75112796  0.97894505  1
  P  P252  1  0.70745892  0.08440543  0.22767309  1
  P  P253  1  0.70738031  0.08475538  0.47816586  1
  P  P254  1  0.70785670  0.08304101  0.72628865  1
  P  P255  1  0.70775527  0.08409611  0.97744077  1
  P  P256  1  0.70693048  0.41637860  0.22839734  1
  P  P257  1  0.70774978  0.41778207  0.47803858  1
  P  P258  1  0.70848040  0.41679926  0.72635691  1
  P  P259  1  0.70739537  0.41702071  0.97667122  1
  P  P260  1  0.70780412  0.75119528  0.22759203  1
  P  P261  1  0.70782922  0.75170268  0.47809759  1
  P  P262  1  0.70799838  0.75076797  0.72783246  1
  P  P263  1  0.70882234  0.75005551  0.97603607  1
  P  P264  1  0.29258453  0.25125969  0.02266080  1
  P  P265  1  0.29162669  0.25030671  0.27431017  1
  P  P266  1  0.29118723  0.25004572  0.52309285  1
  P  P267  1  0.29247304  0.24846573  0.77169053  1
  P  P268  1  0.29354789  0.58331288  0.02189564  1
  P  P269  1  0.29253672  0.58485217  0.27293814  1
  P  P270  1  0.29278931  0.58398748  0.52093514  1
  P  P271  1  0.29249747  0.58190821  0.77256128  1
  P  P272  1  0.29272451  0.91666797  0.02288319  1
  P  P273  1  0.29172324  0.91729292  0.27403042  1
  P  P274  1  0.29185994  0.91883636  0.52181444  1
  P  P275  1  0.29244405  0.91938024  0.77220172  1
  P  P276  1  0.79205600  0.24776909  0.02194967  1
  P  P277  1  0.79175660  0.24783079  0.27240574  1
  P  P278  1  0.79068423  0.24957607  0.52318375  1
  P  P279  1  0.79156764  0.24780540  0.77139607  1
  P  P280  1  0.79259295  0.58324954  0.02038999  1
  P  P281  1  0.79169107  0.58215916  0.27272865  1
  P  P282  1  0.79202901  0.58193554  0.52218558  1
  P  P283  1  0.79116156  0.58252625  0.77267636  1
  P  P284  1  0.79194037  0.91477267  0.02212607  1
  P  P285  1  0.79158539  0.91499711  0.27234804  1
  P  P286  1  0.79076607  0.91642919  0.52314565  1
  P  P287  1  0.79151585  0.91512801  0.77160610  1
  O  O288  1  0.03821546  0.24922442  0.18335842  1
  O  O289  1  0.03737413  0.24903129  0.43321070  1
  O  O290  1  0.03700167  0.25026266  0.68366826  1
  O  O291  1  0.03745890  0.24990861  0.93243820  1
  O  O292  1  0.03729892  0.58322366  0.18462970  1
  O  O293  1  0.03649692  0.58353464  0.43175059  1
  O  O294  1  0.03783925  0.58415602  0.68218178  1
  O  O295  1  0.03845567  0.58294659  0.93335673  1
  O  O296  1  0.03676466  0.91785733  0.18327990  1
  O  O297  1  0.03669074  0.91528746  0.43135727  1
  O  O298  1  0.03838002  0.91505275  0.68304321  1
  O  O299  1  0.03718243  0.91608863  0.93259279  1
  O  O300  1  0.53610904  0.24880103  0.18331333  1
  O  O301  1  0.53539624  0.25072441  0.43230062  1
  O  O302  1  0.53729883  0.25093018  0.68060633  1
  O  O303  1  0.53815027  0.25039036  0.93301644  1
  O  O304  1  0.53759789  0.58269140  0.18240761  1
  O  O305  1  0.53671433  0.58453867  0.43268382  1
  O  O306  1  0.53694774  0.58427274  0.68228582  1
  O  O307  1  0.53750041  0.58496208  0.93217208  1
  O  O308  1  0.53743890  0.91581148  0.18239445  1
  O  O309  1  0.53679044  0.91777305  0.43423883  1
  O  O310  1  0.53589481  0.91647426  0.68181656  1
  O  O311  1  0.53724525  0.91600718  0.93255258  1
  O  O312  1  0.46271419  0.08484883  0.06789100  1
  O  O313  1  0.46347670  0.08506376  0.31840870  1
  O  O314  1  0.46337709  0.08367455  0.56545506  1
  O  O315  1  0.46308247  0.08466578  0.81772581  1
  O  O316  1  0.46314446  0.41591724  0.06787973  1
  O  O317  1  0.46358088  0.41661614  0.31816175  1
  O  O318  1  0.46306607  0.41752266  0.56553033  1
  O  O319  1  0.46297345  0.41874070  0.81770858  1
  O  O320  1  0.46321238  0.74937706  0.06758324  1
  O  O321  1  0.46276052  0.75103645  0.31781399  1
  O  O322  1  0.46351643  0.75153487  0.56831663  1
  O  O323  1  0.46348805  0.75215362  0.81682857  1
  O  O324  1  0.96326940  0.08080649  0.06699291  1
  O  O325  1  0.96189379  0.08105692  0.31612857  1
  O  O326  1  0.96133128  0.08256630  0.56664225  1
  O  O327  1  0.96262780  0.08146608  0.81743743  1
  O  O328  1  0.96239228  0.41736426  0.06785063  1
  O  O329  1  0.96171584  0.41729867  0.31649157  1
  O  O330  1  0.96242689  0.41573027  0.56765664  1
  O  O331  1  0.96259819  0.41514436  0.81646989  1
  O  O332  1  0.96308001  0.74994034  0.06899487  1
  O  O333  1  0.96304405  0.74774713  0.31675632  1
  O  O334  1  0.96271522  0.74976673  0.56742617  1
  O  O335  1  0.96252065  0.75067156  0.81686401  1
  O  O336  1  0.21382234  0.08394219  0.05656303  1
  O  O337  1  0.21257859  0.08325204  0.30947508  1
  O  O338  1  0.21388409  0.08342733  0.55728865  1
  O  O339  1  0.21404950  0.08345774  0.80676408  1
  O  O340  1  0.21350511  0.41687063  0.05785117  1
  O  O341  1  0.21362452  0.41476149  0.30835725  1
  O  O342  1  0.21282998  0.41456503  0.55790956  1
  O  O343  1  0.21372264  0.41622686  0.80752198  1
  O  O344  1  0.21306396  0.75174101  0.05888336  1
  O  O345  1  0.21434736  0.75147249  0.30860635  1
  O  O346  1  0.21307728  0.75056265  0.55630716  1
  O  O347  1  0.21254221  0.75041236  0.80820546  1
  O  O348  1  0.71300910  0.08395181  0.05736160  1
  O  O349  1  0.71257944  0.08432663  0.30762819  1
  O  O350  1  0.71272837  0.08443751  0.55801556  1
  O  O351  1  0.71280000  0.08293379  0.80628053  1
  O  O352  1  0.71252891  0.41645001  0.05662163  1
  O  O353  1  0.71224710  0.41682075  0.30837030  1
  O  O354  1  0.71303675  0.41759996  0.55791582  1
  O  O355  1  0.71348658  0.41665220  0.80632258  1
  O  O356  1  0.71361116  0.74996484  0.05604588  1
  O  O357  1  0.71288405  0.75126350  0.30756680  1
  O  O358  1  0.71318779  0.75143736  0.55799217  1
  O  O359  1  0.71347360  0.75051518  0.80766166  1
  O  O360  1  0.28713023  0.25027273  0.19433356  1
  O  O361  1  0.28599885  0.25030721  0.44322345  1
  O  O362  1  0.28696791  0.24861809  0.69184640  1
  O  O363  1  0.28758002  0.25068119  0.94274359  1
  O  O364  1  0.28783401  0.58470809  0.19294898  1
  O  O365  1  0.28750647  0.58462741  0.44101137  1
  O  O366  1  0.28723354  0.58221589  0.69256214  1
  O  O367  1  0.28820865  0.58261951  0.94195970  1
  O  O368  1  0.28713310  0.91656607  0.19403328  1
  O  O369  1  0.28653519  0.91841094  0.44194310  1
  O  O370  1  0.28702542  0.91945786  0.69227166  1
  O  O371  1  0.28768015  0.91746110  0.94296625  1
  O  O372  1  0.78663334  0.24782214  0.19245340  1
  O  O373  1  0.78601593  0.24966855  0.44319177  1
  O  O374  1  0.78582827  0.24819135  0.69155584  1
  O  O375  1  0.78686663  0.24799566  0.94198298  1
  O  O376  1  0.78683569  0.58272182  0.19275194  1
  O  O377  1  0.78654687  0.58190034  0.44228145  1
  O  O378  1  0.78630596  0.58254440  0.69266789  1
  O  O379  1  0.78731378  0.58328055  0.94049270  1
  O  O380  1  0.78625976  0.91480842  0.19243328  1
  O  O381  1  0.78583553  0.91655061  0.44313891  1
  O  O382  1  0.78610226  0.91561543  0.69176476  1
  O  O383  1  0.78672375  0.91495722  0.94218967  1
  O  O384  1  0.22828543  0.25182710  0.05850498  1
  O  O385  1  0.22731573  0.25039909  0.30990446  1
  O  O386  1  0.22726986  0.24978003  0.55981384  1
  O  O387  1  0.22837932  0.24820916  0.80800654  1
  O  O388  1  0.22930945  0.58371763  0.05749954  1
  O  O389  1  0.22814530  0.58431946  0.30816348  1
  O  O390  1  0.22846082  0.58348838  0.55632609  1
  O  O391  1  0.22824910  0.58133432  0.80836324  1
  O  O392  1  0.22839815  0.91591029  0.05863316  1
  O  O393  1  0.22746088  0.91788438  0.30975758  1
  O  O394  1  0.22773514  0.91911793  0.55797146  1
  O  O395  1  0.22825023  0.91950156  0.80817912  1
  O  O396  1  0.72773289  0.24757929  0.05773505  1
  O  O397  1  0.72746688  0.24815539  0.30820814  1
  O  O398  1  0.72646102  0.24940021  0.55893798  1
  O  O399  1  0.72753249  0.24764070  0.80787401  1
  O  O400  1  0.72834186  0.58360400  0.05615764  1
  O  O401  1  0.72737672  0.58221513  0.30826028  1
  O  O402  1  0.72785354  0.58212859  0.55821311  1
  O  O403  1  0.72706867  0.58206759  0.80874510  1
  O  O404  1  0.72766592  0.91454979  0.05798120  1
  O  O405  1  0.72740605  0.91514175  0.30836278  1
  O  O406  1  0.72666210  0.91604387  0.55919643  1
  O  O407  1  0.72739930  0.91490571  0.80784773  1
  O  O408  1  0.27188548  0.08371385  0.19402431  1
  O  O409  1  0.27283295  0.08299744  0.44101365  1
  O  O410  1  0.27280972  0.08354570  0.69033095  1
  O  O411  1  0.27308094  0.08409544  0.94056288  1
  O  O412  1  0.27274059  0.41490119  0.19260892  1
  O  O413  1  0.27199194  0.41512230  0.44236461  1
  O  O414  1  0.27225757  0.41477172  0.69145108  1
  O  O415  1  0.27240900  0.41792330  0.94193352  1
  O  O416  1  0.27291808  0.75273659  0.19228617  1
  O  O417  1  0.27301736  0.75070336  0.44106797  1
  O  O418  1  0.27190960  0.75074148  0.69314059  1
  O  O419  1  0.27184570  0.75082879  0.94331305  1
  O  O420  1  0.77169554  0.08411613  0.19178428  1
  O  O421  1  0.77145022  0.08487840  0.44177824  1
  O  O422  1  0.77201354  0.08352703  0.69035466  1
  O  O423  1  0.77193005  0.08375743  0.94137910  1
  O  O424  1  0.77120582  0.41592204  0.19288411  1
  O  O425  1  0.77185929  0.41779938  0.44179967  1
  O  O426  1  0.77262014  0.41674581  0.69034646  1
  O  O427  1  0.77167410  0.41732944  0.94094363  1
  O  O428  1  0.77213542  0.75163381  0.19183719  1
  O  O429  1  0.77200161  0.75138688  0.44207696  1
  O  O430  1  0.77209363  0.75108237  0.69153656  1
  O  O431  1  0.77290079  0.75022425  0.93996921  1
  O  O432  1  0.02199020  0.08081023  0.18275499  1
  O  O433  1  0.02106286  0.08206999  0.43120528  1
  O  O434  1  0.02109296  0.08255519  0.68127720  1
  O  O435  1  0.02232789  0.08068601  0.93259145  1
  O  O436  1  0.02165881  0.41819913  0.18319636  1
  O  O437  1  0.02103396  0.41674511  0.43155129  1
  O  O438  1  0.02203416  0.41494190  0.68283992  1
  O  O439  1  0.02154473  0.41611588  0.93176085  1
  O  O440  1  0.02260598  0.74902744  0.18455270  1
  O  O441  1  0.02229931  0.74744628  0.43237989  1
  O  O442  1  0.02201070  0.75146240  0.68286657  1
  O  O443  1  0.02164460  0.75029644  0.93214884  1
  O  O444  1  0.52192775  0.08531968  0.18338652  1
  O  O445  1  0.52285001  0.08367825  0.43422477  1
  O  O446  1  0.52214950  0.08369141  0.68116871  1
  O  O447  1  0.52222991  0.08530366  0.93328377  1
  O  O448  1  0.52197245  0.41513204  0.18366624  1
  O  O449  1  0.52297876  0.41804899  0.43394891  1
  O  O450  1  0.52191751  0.41801112  0.68114407  1
  O  O451  1  0.52236820  0.41842696  0.93309359  1
  O  O452  1  0.52240191  0.74856077  0.18314024  1
  O  O453  1  0.52201464  0.75229540  0.43327867  1
  O  O454  1  0.52247640  0.75083000  0.68434036  1
  O  O455  1  0.52235991  0.75220362  0.93282270  1
  O  O456  1  0.47785823  0.24872220  0.06697843  1
  O  O457  1  0.47663850  0.25061785  0.31605010  1
  O  O458  1  0.47674304  0.25072292  0.56567642  1
  O  O459  1  0.47875099  0.25096548  0.81790479  1
  O  O460  1  0.47848289  0.58212940  0.06678963  1
  O  O461  1  0.47790222  0.58505348  0.31684152  1
  O  O462  1  0.47817350  0.58295807  0.56656182  1
  O  O463  1  0.47796178  0.58634761  0.81672580  1
  O  O464  1  0.47814428  0.91554854  0.06695540  1
  O  O465  1  0.47825537  0.91733244  0.31848145  1
  O  O466  1  0.47700683  0.91729537  0.56564556  1
  O  O467  1  0.47786348  0.91617381  0.81711822  1
  O  O468  1  0.97881383  0.24868869  0.06855151  1
  O  O469  1  0.97827830  0.24910838  0.31813005  1
  O  O470  1  0.97781943  0.24936654  0.56850234  1
  O  O471  1  0.97793676  0.25072406  0.81719242  1
  O  O472  1  0.97867810  0.58322409  0.06893259  1
  O  O473  1  0.97733153  0.58297932  0.31583253  1
  O  O474  1  0.97808269  0.58480722  0.56713756  1
  O  O475  1  0.97906984  0.58307889  0.81843962  1
  O  O476  1  0.97799786  0.91826577  0.06730258  1
  O  O477  1  0.97667931  0.91586115  0.31608836  1
  O  O478  1  0.97863077  0.91502896  0.56834838  1
  O  O479  1  0.97815974  0.91419193  0.81691965  1
  O  O480  1  0.07385087  0.31317228  0.07533189  1
  O  O481  1  0.07364867  0.31283608  0.32547175  1
  O  O482  1  0.07348576  0.31288181  0.57504399  1
  O  O483  1  0.07317053  0.31397682  0.82406636  1
  O  O484  1  0.07401352  0.64691725  0.07647957  1
  O  O485  1  0.07272102  0.64638874  0.32321655  1
  O  O486  1  0.07340214  0.64785773  0.57344307  1
  O  O487  1  0.07463408  0.64658568  0.82539547  1
  O  O488  1  0.07359817  0.98072429  0.07410910  1
  O  O489  1  0.07193238  0.97947603  0.32346077  1
  O  O490  1  0.07357342  0.97950536  0.57485092  1
  O  O491  1  0.07324822  0.97886912  0.82425903  1
  O  O492  1  0.57341397  0.31214018  0.07557189  1
  O  O493  1  0.57160552  0.31431935  0.32401463  1
  O  O494  1  0.57163815  0.31468151  0.57195652  1
  O  O495  1  0.57411469  0.31443514  0.82483198  1
  O  O496  1  0.57410214  0.64565662  0.07424750  1
  O  O497  1  0.57262643  0.64881904  0.32433223  1
  O  O498  1  0.57356074  0.64706549  0.57438273  1
  O  O499  1  0.57309890  0.64922029  0.82372539  1
  O  O500  1  0.57361584  0.97914063  0.07465251  1
  O  O501  1  0.57345401  0.98113945  0.32575971  1
  O  O502  1  0.57213096  0.98062261  0.57393054  1
  O  O503  1  0.57300924  0.98022129  0.82483926  1
  O  O504  1  0.42703616  0.02081377  0.17578594  1
  O  O505  1  0.42742167  0.02082536  0.42619976  1
  O  O506  1  0.42656553  0.02069459  0.67405985  1
  O  O507  1  0.42700778  0.02138772  0.92569981  1
  O  O508  1  0.42698042  0.35181468  0.17627047  1
  O  O509  1  0.42822361  0.35377238  0.42696996  1
  O  O510  1  0.42694490  0.35380097  0.67416119  1
  O  O511  1  0.42655558  0.35533022  0.92538730  1
  O  O512  1  0.42756425  0.68500418  0.17598605  1
  O  O513  1  0.42658167  0.68839020  0.42615141  1
  O  O514  1  0.42762071  0.68715761  0.67614086  1
  O  O515  1  0.42694597  0.68856886  0.92475431  1
  O  O516  1  0.92662725  0.01759588  0.17571470  1
  O  O517  1  0.92550404  0.01832842  0.42481230  1
  O  O518  1  0.92570644  0.01880266  0.67472141  1
  O  O519  1  0.92699432  0.01744019  0.92571419  1
  O  O520  1  0.92658066  0.35359511  0.17544030  1
  O  O521  1  0.92560304  0.35309005  0.42439188  1
  O  O522  1  0.92684272  0.35168983  0.67612614  1
  O  O523  1  0.92588354  0.35254083  0.92510839  1
  O  O524  1  0.92693809  0.68616107  0.17688147  1
  O  O525  1  0.92711688  0.68432110  0.42586858  1
  O  O526  1  0.92665263  0.68708500  0.67581423  1
  O  O527  1  0.92665812  0.68620365  0.92474441  1
  O  O528  1  0.17658724  0.02008130  0.20078547  1
  O  O529  1  0.17721468  0.02021044  0.44898213  1
  O  O530  1  0.17774685  0.01990369  0.69844547  1
  O  O531  1  0.17827069  0.02007629  0.94854337  1
  O  O532  1  0.17753661  0.35171602  0.19940459  1
  O  O533  1  0.17674984  0.35141606  0.44933580  1
  O  O534  1  0.17736369  0.35130917  0.70004444  1
  O  O535  1  0.17697751  0.35415723  0.94963955  1
  O  O536  1  0.17787031  0.68836831  0.20062942  1
  O  O537  1  0.17809213  0.68678213  0.44779165  1
  O  O538  1  0.17657128  0.68686513  0.70014794  1
  O  O539  1  0.17647541  0.68735134  0.95142056  1
  O  O540  1  0.67641886  0.02055406  0.19996092  1
  O  O541  1  0.67624995  0.02118277  0.45005908  1
  O  O542  1  0.67779084  0.01882247  0.69796215  1
  O  O543  1  0.67649668  0.02034931  0.94982949  1
  O  O544  1  0.67583833  0.35268900  0.20059458  1
  O  O545  1  0.67654964  0.35416441  0.45003808  1
  O  O546  1  0.67792836  0.35285529  0.69799415  1
  O  O547  1  0.67645352  0.35332269  0.94882189  1
  O  O548  1  0.67732641  0.68713721  0.19970306  1
  O  O549  1  0.67654346  0.68805646  0.45034980  1
  O  O550  1  0.67693681  0.68711544  0.69975647  1
  O  O551  1  0.67842866  0.68610452  0.94755596  1
  O  O552  1  0.32334296  0.31489271  0.05102985  1
  O  O553  1  0.32283619  0.31361156  0.30279488  1
  O  O554  1  0.32210165  0.31362009  0.55157192  1
  O  O555  1  0.32367856  0.31205538  0.79971684  1
  O  O556  1  0.32477826  0.64700897  0.04941313  1
  O  O557  1  0.32277716  0.64870383  0.30136064  1
  O  O558  1  0.32398692  0.64718213  0.54972564  1
  O  O559  1  0.32323793  0.64581053  0.80027786  1
  O  O560  1  0.32358464  0.98027328  0.05128769  1
  O  O561  1  0.32283570  0.98099569  0.30176381  1
  O  O562  1  0.32302017  0.98214923  0.55030770  1
  O  O563  1  0.32356226  0.98260469  0.80094440  1
  O  O564  1  0.82281491  0.31165901  0.04993904  1
  O  O565  1  0.82289834  0.31154825  0.30019662  1
  O  O566  1  0.82093792  0.31368210  0.55159358  1
  O  O567  1  0.82280862  0.31139432  0.79932168  1
  O  O568  1  0.82400887  0.64649982  0.04904056  1
  O  O569  1  0.82281950  0.64569980  0.30076725  1
  O  O570  1  0.82314304  0.64573906  0.54976588  1
  O  O571  1  0.82128584  0.64677168  0.80078964  1
  O  O572  1  0.82262312  0.97866365  0.05006117  1
  O  O573  1  0.82253487  0.97890703  0.29979872  1
  O  O574  1  0.82092305  0.98060664  0.55141507  1
  O  O575  1  0.82262487  0.97867743  0.79994999  1
  O  O576  1  0.42631562  0.14784883  0.17685216  1
  O  O577  1  0.42838842  0.14819461  0.42709749  1
  O  O578  1  0.42702864  0.14745371  0.67351784  1
  O  O579  1  0.42720189  0.14863224  0.92598269  1
  O  O580  1  0.42663399  0.47883827  0.17587849  1
  O  O581  1  0.42786542  0.48124265  0.42575756  1
  O  O582  1  0.42600286  0.48050404  0.67379780  1
  O  O583  1  0.42787904  0.48262615  0.92632614  1
  O  O584  1  0.42689469  0.81222724  0.17569358  1
  O  O585  1  0.42702494  0.81540311  0.42613819  1
  O  O586  1  0.42738636  0.81464647  0.67654361  1
  O  O587  1  0.42736229  0.81548112  0.92577099  1
  O  O588  1  0.92682081  0.14466222  0.17452116  1
  O  O589  1  0.92558519  0.14525425  0.42395070  1
  O  O590  1  0.92551941  0.14574190  0.67504009  1
  O  O591  1  0.92713277  0.14473943  0.92547298  1
  O  O592  1  0.92625146  0.48096590  0.17620431  1
  O  O593  1  0.92550502  0.47997723  0.42520464  1
  O  O594  1  0.92685231  0.47908772  0.67539980  1
  O  O595  1  0.92619787  0.47944282  0.92422216  1
  O  O596  1  0.92834327  0.81362627  0.17733627  1
  O  O597  1  0.92697829  0.81125688  0.42475281  1
  O  O598  1  0.92684742  0.81422398  0.67567988  1
  O  O599  1  0.92588246  0.81306353  0.92550511  1
  O  O600  1  0.07469248  0.18608159  0.07519890  1
  O  O601  1  0.07375428  0.18575623  0.32528756  1
  O  O602  1  0.07314089  0.18597335  0.57579431  1
  O  O603  1  0.07312340  0.18660480  0.82455787  1
  O  O604  1  0.07423676  0.52005923  0.07629439  1
  O  O605  1  0.07208538  0.51903920  0.32394772  1
  O  O606  1  0.07326564  0.52059564  0.57428360  1
  O  O607  1  0.07443803  0.51964743  0.82494611  1
  O  O608  1  0.07287987  0.85379838  0.07573153  1
  O  O609  1  0.07135644  0.85195984  0.32276940  1
  O  O610  1  0.07476146  0.85270984  0.57413693  1
  O  O611  1  0.07348770  0.85171445  0.82455389  1
  O  O612  1  0.57263355  0.18521212  0.07464219  1
  O  O613  1  0.57168517  0.18704360  0.32421856  1
  O  O614  1  0.57181894  0.18727027  0.57208706  1
  O  O615  1  0.57420186  0.18751803  0.82430408  1
  O  O616  1  0.57314669  0.51845896  0.07402413  1
  O  O617  1  0.57343722  0.52165870  0.32481528  1
  O  O618  1  0.57321870  0.51998614  0.57404549  1
  O  O619  1  0.57310454  0.52207779  0.82386364  1
  O  O620  1  0.57294659  0.85181798  0.07400946  1
  O  O621  1  0.57391338  0.85447646  0.32606297  1
  O  O622  1  0.57180178  0.85322607  0.57359244  1
  O  O623  1  0.57316532  0.85315791  0.82338752  1
  O  O624  1  0.32339490  0.18769221  0.05104705  1
  O  O625  1  0.32175637  0.18632823  0.30311624  1
  O  O626  1  0.32221844  0.18633471  0.55101547  1
  O  O627  1  0.32350318  0.18518065  0.80050777  1
  O  O628  1  0.32465785  0.52018143  0.05080095  1
  O  O629  1  0.32394270  0.52136787  0.30058747  1
  O  O630  1  0.32384318  0.52027115  0.54855407  1
  O  O631  1  0.32350098  0.51839848  0.80063166  1
  O  O632  1  0.32361220  0.85316938  0.05126123  1
  O  O633  1  0.32225045  0.85369884  0.30299070  1
  O  O634  1  0.32280028  0.85518964  0.55012818  1
  O  O635  1  0.32329340  0.85549941  0.79981141  1
  O  O636  1  0.82307075  0.18449508  0.05060243  1
  O  O637  1  0.82251720  0.18449906  0.30121820  1
  O  O638  1  0.82207939  0.18635040  0.55136366  1
  O  O639  1  0.82255475  0.18437902  0.79994653  1
  O  O640  1  0.82351013  0.51975352  0.04888567  1
  O  O641  1  0.82216120  0.51840798  0.30092349  1
  O  O642  1  0.82293686  0.51868186  0.55101186  1
  O  O643  1  0.82257398  0.51924782  0.80083163  1
  O  O644  1  0.82305050  0.85157098  0.05078420  1
  O  O645  1  0.82252675  0.85181276  0.30136581  1
  O  O646  1  0.82220964  0.85315319  0.55126895  1
  O  O647  1  0.82261365  0.85180033  0.80012352  1
  O  O648  1  0.17640885  0.14675742  0.20105924  1
  O  O649  1  0.17849190  0.14742253  0.44905422  1
  O  O650  1  0.17773146  0.14692122  0.69834372  1
  O  O651  1  0.17813544  0.14759876  0.94836452  1
  O  O652  1  0.17767143  0.47894948  0.20102956  1
  O  O653  1  0.17667028  0.47851455  0.45014864  1
  O  O654  1  0.17681698  0.47845590  0.69912561  1
  O  O655  1  0.17749958  0.48128131  0.94968883  1
  O  O656  1  0.17773576  0.81546279  0.20038165  1
  O  O657  1  0.17790110  0.81427353  0.44804553  1
  O  O658  1  0.17648885  0.81393161  0.70011943  1
  O  O659  1  0.17631109  0.81424976  0.95034316  1
  O  O660  1  0.67663673  0.14767277  0.19888984  1
  O  O661  1  0.67651072  0.14821678  0.44954742  1
  O  O662  1  0.67628931  0.14616121  0.69802356  1
  O  O663  1  0.67703942  0.14742314  0.94857607  1
  O  O664  1  0.67575712  0.47960051  0.19990390  1
  O  O665  1  0.67688678  0.48117796  0.44922342  1
  O  O666  1  0.67739633  0.48030263  0.69825480  1
  O  O667  1  0.67663829  0.48058972  0.94843594  1
  O  O668  1  0.67651590  0.81421264  0.19871404  1
  O  O669  1  0.67709824  0.81515782  0.44956452  1
  O  O670  1  0.67683901  0.81400472  0.69909062  1
  O  O671  1  0.67760750  0.81347125  0.94792140  1
