# generated using pymatgen
data_Na2MnFe(PO4)2
_symmetry_space_group_name_H-M   'P 1'
_cell_length_a   22.34409378
_cell_length_b   20.09237018
_cell_length_c   19.45013199
_cell_angle_alpha   90.03062247
_cell_angle_beta   89.99718757
_cell_angle_gamma   89.99671608
_symmetry_Int_Tables_number   1
_chemical_formula_structural   Na2MnFe(PO4)2
_chemical_formula_sum   'Na96 Mn48 Fe48 P96 O384'
_cell_volume   8732.05386710
_cell_formula_units_Z   48
loop_
 _symmetry_equiv_pos_site_id
 _symmetry_equiv_pos_as_xyz
  1  'x, y, z'
loop_
 _atom_site_type_symbol
 _atom_site_label
 _atom_site_symmetry_multiplicity
 _atom_site_fract_x
 _atom_site_fract_y
 _atom_site_fract_z
 _atom_site_occupancy
  Na  Na0  1  0.14044515  0.25003887  0.24448090  1
  Na  Na1  1  0.14090579  0.25073075  0.49255669  1
  Na  Na2  1  0.14096746  0.25063781  0.74299674  1
  Na  Na3  1  0.14061578  0.25029707  0.99420055  1
  Na  Na4  1  0.14010294  0.58302291  0.24379146  1
  Na  Na5  1  0.14060884  0.58191803  0.49302612  1
  Na  Na6  1  0.14054406  0.58324157  0.74372656  1
  Na  Na7  1  0.13983499  0.58357075  0.99207780  1
  Na  Na8  1  0.14090052  0.91755663  0.24446177  1
  Na  Na9  1  0.14071930  0.91661823  0.49358742  1
  Na  Na10  1  0.14010775  0.91615280  0.74281713  1
  Na  Na11  1  0.14062515  0.91700152  0.99310597  1
  Na  Na12  1  0.64054104  0.25006277  0.24376924  1
  Na  Na13  1  0.64048579  0.24856773  0.49387277  1
  Na  Na14  1  0.64036361  0.24802283  0.74385175  1
  Na  Na15  1  0.64002409  0.24938865  0.99414294  1
  Na  Na16  1  0.64005305  0.58407380  0.24262445  1
  Na  Na17  1  0.64050988  0.58192147  0.49426010  1
  Na  Na18  1  0.64011732  0.58391783  0.74436714  1
  Na  Na19  1  0.63963498  0.58429513  0.99312772  1
  Na  Na20  1  0.64028468  0.91769913  0.24411110  1
  Na  Na21  1  0.63970752  0.91733440  0.49531327  1
  Na  Na22  1  0.63984303  0.91606721  0.74409946  1
  Na  Na23  1  0.64079141  0.91724432  0.99353216  1
  Na  Na24  1  0.36000977  0.08495519  0.00672883  1
  Na  Na25  1  0.35952825  0.08547180  0.25726510  1
  Na  Na26  1  0.36005886  0.08461253  0.50750150  1
  Na  Na27  1  0.35986034  0.08334595  0.75757467  1
  Na  Na28  1  0.35910795  0.41582450  0.00643219  1
  Na  Na29  1  0.35916337  0.41652091  0.25652895  1
  Na  Na30  1  0.35929029  0.41639312  0.50531893  1
  Na  Na31  1  0.35909641  0.41643312  0.75624987  1
  Na  Na32  1  0.35977320  0.74969284  0.00487165  1
  Na  Na33  1  0.35937013  0.75010955  0.25643974  1
  Na  Na34  1  0.35916733  0.74948992  0.50663616  1
  Na  Na35  1  0.35966952  0.74992636  0.75783285  1
  Na  Na36  1  0.85979071  0.08271746  0.00560076  1
  Na  Na37  1  0.85957435  0.08385341  0.25601643  1
  Na  Na38  1  0.86001138  0.08241927  0.50539636  1
  Na  Na39  1  0.86007924  0.08125618  0.75628855  1
  Na  Na40  1  0.85942248  0.41735081  0.00515319  1
  Na  Na41  1  0.85933109  0.41776466  0.25573122  1
  Na  Na42  1  0.86025038  0.41590447  0.50603481  1
  Na  Na43  1  0.85985276  0.41667528  0.75568071  1
  Na  Na44  1  0.85982205  0.74987496  0.00656096  1
  Na  Na45  1  0.86001986  0.75142392  0.25604688  1
  Na  Na46  1  0.85978633  0.75020910  0.50658011  1
  Na  Na47  1  0.86006271  0.74937537  0.75742791  1
  Na  Na48  1  0.10999784  0.08441489  0.11973410  1
  Na  Na49  1  0.11044158  0.08296645  0.36801264  1
  Na  Na50  1  0.11008595  0.08209162  0.61813999  1
  Na  Na51  1  0.10998785  0.08352720  0.86754771  1
  Na  Na52  1  0.10971678  0.41707447  0.11855630  1
  Na  Na53  1  0.10998096  0.41660028  0.36835188  1
  Na  Na54  1  0.11026490  0.41612333  0.61763963  1
  Na  Na55  1  0.10968064  0.41774178  0.86780462  1
  Na  Na56  1  0.10972472  0.74936843  0.11908937  1
  Na  Na57  1  0.10941038  0.74971379  0.36901106  1
  Na  Na58  1  0.10960509  0.74865703  0.61958846  1
  Na  Na59  1  0.10965686  0.75019335  0.86782493  1
  Na  Na60  1  0.60955189  0.08386109  0.11902217  1
  Na  Na61  1  0.60966817  0.08271690  0.36980411  1
  Na  Na62  1  0.60962917  0.08225948  0.61984308  1
  Na  Na63  1  0.60952617  0.08288969  0.86889913  1
  Na  Na64  1  0.60902439  0.41790023  0.11841085  1
  Na  Na65  1  0.60992222  0.41554928  0.36799410  1
  Na  Na66  1  0.60978122  0.41594483  0.61868862  1
  Na  Na67  1  0.60874286  0.41726295  0.86866863  1
  Na  Na68  1  0.60935257  0.75097712  0.11744297  1
  Na  Na69  1  0.60900242  0.74977704  0.36891592  1
  Na  Na70  1  0.60923106  0.75071784  0.62079140  1
  Na  Na71  1  0.60968983  0.75053811  0.86844292  1
  Na  Na72  1  0.38956151  0.25062752  0.13215406  1
  Na  Na73  1  0.39008900  0.24901785  0.38177022  1
  Na  Na74  1  0.39028069  0.24895341  0.63202536  1
  Na  Na75  1  0.38988874  0.24975525  0.88248166  1
  Na  Na76  1  0.39000953  0.58342877  0.13052507  1
  Na  Na77  1  0.38975463  0.58220062  0.38120859  1
  Na  Na78  1  0.38997901  0.58341793  0.63135059  1
  Na  Na79  1  0.39054354  0.58416860  0.88124677  1
  Na  Na80  1  0.39042721  0.91845640  0.13090032  1
  Na  Na81  1  0.39015615  0.91843673  0.38241412  1
  Na  Na82  1  0.39031365  0.91764525  0.63289119  1
  Na  Na83  1  0.39055527  0.91715406  0.88094283  1
  Na  Na84  1  0.89039740  0.25043929  0.13056217  1
  Na  Na85  1  0.89058406  0.25039764  0.38129009  1
  Na  Na86  1  0.89090425  0.24931161  0.63076053  1
  Na  Na87  1  0.89073650  0.25043670  0.88003614  1
  Na  Na88  1  0.89049879  0.58423354  0.13033758  1
  Na  Na89  1  0.89066462  0.58409052  0.38112872  1
  Na  Na90  1  0.89055722  0.58195548  0.63178449  1
  Na  Na91  1  0.89033672  0.58427540  0.88134139  1
  Na  Na92  1  0.89030254  0.91648493  0.13233338  1
  Na  Na93  1  0.89028044  0.91642350  0.38042234  1
  Na  Na94  1  0.89084998  0.91522357  0.63179925  1
  Na  Na95  1  0.89044751  0.91500527  0.88160658  1
  Mn  Mn96  1  0.24975696  0.00048212  0.87542085  1
  Mn  Mn97  1  0.00105083  0.83240031  0.00021771  1
  Mn  Mn98  1  0.50002696  0.33166044  0.49960713  1
  Mn  Mn99  1  -0.00042613  0.66673324  0.50048583  1
  Mn  Mn100  1  0.24983392  0.49928172  0.87465321  1
  Mn  Mn101  1  0.74909072  0.33249061  0.87502766  1
  Mn  Mn102  1  -0.00003100  0.16714035  -0.00136442  1
  Mn  Mn103  1  0.75018792  0.33418223  0.12386814  1
  Mn  Mn104  1  0.25045179  0.00171941  0.12425824  1
  Mn  Mn105  1  0.00057837  0.33463706  0.00000538  1
  Mn  Mn106  1  0.74970527  0.66751289  0.12495302  1
  Mn  Mn107  1  0.24986327  0.49890838  0.12435785  1
  Mn  Mn108  1  0.00009996  -0.00183886  0.49905474  1
  Mn  Mn109  1  0.49981577  0.83426026  -0.00037648  1
  Mn  Mn110  1  0.00029356  0.49991636  0.74964471  1
  Mn  Mn111  1  -0.00032444  0.50098001  0.24951188  1
  Mn  Mn112  1  0.75092747  0.16654684  0.12524993  1
  Mn  Mn113  1  0.49968653  0.33225514  0.75026504  1
  Mn  Mn114  1  0.00029445  -0.00014112  0.25026499  1
  Mn  Mn115  1  0.75021848  -0.00082565  0.87562688  1
  Mn  Mn116  1  0.25048481  0.83386204  0.37528510  1
  Mn  Mn117  1  0.50015466  0.49953387  0.50018987  1
  Mn  Mn118  1  0.25008899  0.83373058  0.12529535  1
  Mn  Mn119  1  0.75000846  0.16618011  0.37452322  1
  Mn  Mn120  1  0.00005535  0.16633708  0.50008798  1
  Mn  Mn121  1  0.75077796  0.16492721  0.62371440  1
  Mn  Mn122  1  -0.00083498  0.33336726  0.24938844  1
  Mn  Mn123  1  0.49897870  0.66582798  0.24909672  1
  Mn  Mn124  1  0.74972470  0.66597967  0.62561093  1
  Mn  Mn125  1  0.74969596  0.83347577  0.62545621  1
  Mn  Mn126  1  0.24986036  0.16685847  0.62494167  1
  Mn  Mn127  1  0.00052009  0.16668555  0.74898165  1
  Mn  Mn128  1  0.49953383  0.83392727  0.24970562  1
  Mn  Mn129  1  0.75048271  0.33290974  0.62488852  1
  Mn  Mn130  1  0.49885077  0.83405232  0.50067301  1
  Mn  Mn131  1  0.49965232  0.00132863  0.25091130  1
  Mn  Mn132  1  0.74936840  0.83466878  0.37587116  1
  Mn  Mn133  1  0.74911871  0.50028506  0.87505010  1
  Mn  Mn134  1  0.24984108  0.83362513  0.62480231  1
  Mn  Mn135  1  0.49990112  0.33287055  0.24970993  1
  Mn  Mn136  1  0.49997453  0.66674807  0.49988980  1
  Mn  Mn137  1  0.24998551  0.66569345  0.62516271  1
  Mn  Mn138  1  0.49948056  0.50057943  0.74977152  1
  Mn  Mn139  1  0.49974617  0.33347900  0.00036891  1
  Mn  Mn140  1  0.00030912  -0.00013297  0.00026847  1
  Mn  Mn141  1  0.74962258  0.66707333  0.37483694  1
  Mn  Mn142  1  0.75049391  0.49944769  0.37458739  1
  Mn  Mn143  1  0.24947052  0.66647935  0.12486573  1
  Fe  Fe144  1  -0.00003222  0.16683908  0.24986804  1
  Fe  Fe145  1  0.24968131  0.49935400  0.37457193  1
  Fe  Fe146  1  0.75005284  0.66665856  0.87541109  1
  Fe  Fe147  1  0.49989908  0.00069190  0.75071653  1
  Fe  Fe148  1  0.25008481  0.16742463  0.37562336  1
  Fe  Fe149  1  0.49987172  0.16643536  0.25053180  1
  Fe  Fe150  1  0.49952300  0.83379362  0.75059628  1
  Fe  Fe151  1  0.25022315  0.49942790  0.62421643  1
  Fe  Fe152  1  0.25060884  0.00118479  0.37491267  1
  Fe  Fe153  1  0.75038068  -0.00017174  0.37463774  1
  Fe  Fe154  1  0.74997268  0.49954928  0.62510751  1
  Fe  Fe155  1  0.49957383  0.66728351  -0.00052505  1
  Fe  Fe156  1  0.00011073  0.83235494  0.50059275  1
  Fe  Fe157  1  0.25024022  0.33348778  0.62450616  1
  Fe  Fe158  1  0.50006313  0.00063387  -0.00025821  1
  Fe  Fe159  1  0.00061779  0.83283918  0.25009011  1
  Fe  Fe160  1  0.24991936  0.16745102  0.87575758  1
  Fe  Fe161  1  0.74946604  0.50063756  0.12483646  1
  Fe  Fe162  1  0.24964694  0.16773435  0.12605790  1
  Fe  Fe163  1  0.74967896  0.83374703  0.12520915  1
  Fe  Fe164  1  0.00021577  0.33376501  0.74951559  1
  Fe  Fe165  1  0.24966693  0.33285398  0.87509329  1
  Fe  Fe166  1  0.75046941  0.83329803  0.87542455  1
  Fe  Fe167  1  0.75053831  -0.00080353  0.62567789  1
  Fe  Fe168  1  0.50051548  0.16577816  0.50120782  1
  Fe  Fe169  1  0.25018545  0.66656917  0.87440718  1
  Fe  Fe170  1  0.75031293  0.16566459  0.87461932  1
  Fe  Fe171  1  0.00035949  0.66687130  0.25024373  1
  Fe  Fe172  1  0.25008018  0.33349976  0.37510153  1
  Fe  Fe173  1  0.50017185  0.16599702  0.75099720  1
  Fe  Fe174  1  0.00020278  -0.00109300  0.74918852  1
  Fe  Fe175  1  0.49935412  0.50067639  -0.00067266  1
  Fe  Fe176  1  0.25007434  0.83349590  0.87449481  1
  Fe  Fe177  1  0.00047865  0.49970160  0.50017080  1
  Fe  Fe178  1  0.74982810  -0.00007764  0.12469090  1
  Fe  Fe179  1  -0.00022910  0.83243447  0.75039564  1
  Fe  Fe180  1  0.24987582  0.66604111  0.37539115  1
  Fe  Fe181  1  0.49992308  0.16664334  0.00059104  1
  Fe  Fe182  1  0.00012598  0.66694436  -0.00001167  1
  Fe  Fe183  1  0.00026686  0.66620667  0.75001018  1
  Fe  Fe184  1  0.49998810  0.00059828  0.50163557  1
  Fe  Fe185  1  0.24933501  0.33273922  0.12569409  1
  Fe  Fe186  1  0.50014027  0.66709234  0.75045184  1
  Fe  Fe187  1  0.25038386  0.00039756  0.62537178  1
  Fe  Fe188  1  0.00102912  0.33309768  0.49939976  1
  Fe  Fe189  1  0.50000836  0.49998163  0.24924101  1
  Fe  Fe190  1  -0.00022254  0.50113880  -0.00082951  1
  Fe  Fe191  1  0.74999482  0.33348045  0.37465935  1
  P  P192  1  0.04258674  0.24993418  0.10314614  1
  P  P193  1  0.04197866  0.24934121  0.35248422  1
  P  P194  1  0.04270653  0.25109094  0.60229892  1
  P  P195  1  0.04257684  0.25169497  0.85159815  1
  P  P196  1  0.04184089  0.58396749  0.10136028  1
  P  P197  1  0.04217223  0.58449944  0.35275839  1
  P  P198  1  0.04249190  0.58206295  0.60250701  1
  P  P199  1  0.04227704  0.58463449  0.85282456  1
  P  P200  1  0.04321205  0.91611032  0.10366409  1
  P  P201  1  0.04253819  0.91449912  0.35270832  1
  P  P202  1  0.04220664  0.91451487  0.60326848  1
  P  P203  1  0.04153069  0.91623058  0.85126840  1
  P  P204  1  0.54188380  0.24887718  0.10299815  1
  P  P205  1  0.54231534  0.24792360  0.35285556  1
  P  P206  1  0.54248940  0.24771333  0.60336421  1
  P  P207  1  0.54197571  0.24832421  0.85338528  1
  P  P208  1  0.54091064  0.58360904  0.10106108  1
  P  P209  1  0.54227763  0.58183010  0.35181083  1
  P  P210  1  0.54266585  0.58393977  0.60373694  1
  P  P211  1  0.54179206  0.58493864  0.85318727  1
  P  P212  1  0.54215056  0.91885391  0.10221827  1
  P  P213  1  0.54237173  0.91731172  0.35384328  1
  P  P214  1  0.54133304  0.91810844  0.60424681  1
  P  P215  1  0.54109793  0.91754711  0.85206462  1
  P  P216  1  0.45746326  0.08534223  0.14732427  1
  P  P217  1  0.45845224  0.08360418  0.39938650  1
  P  P218  1  0.45829527  0.08350318  0.64881971  1
  P  P219  1  0.45863776  0.08366894  0.89817117  1
  P  P220  1  0.45752129  0.41813999  0.14701178  1
  P  P221  1  0.45763150  0.41603353  0.39625162  1
  P  P222  1  0.45710387  0.41580210  0.64694676  1
  P  P223  1  0.45725078  0.41779804  0.89771126  1
  P  P224  1  0.45681472  0.75019623  0.14592137  1
  P  P225  1  0.45635283  0.75007172  0.39693889  1
  P  P226  1  0.45811869  0.75021222  0.64905411  1
  P  P227  1  0.45817068  0.74964693  0.89656842  1
  P  P228  1  0.95776721  0.08457099  0.14754576  1
  P  P229  1  0.95776312  0.08310514  0.39619183  1
  P  P230  1  0.95815322  0.08141916  0.64707271  1
  P  P231  1  0.95773221  0.08238055  0.89561197  1
  P  P232  1  0.95698680  0.41795981  0.14600065  1
  P  P233  1  0.95888621  0.41688485  0.39832662  1
  P  P234  1  0.95851101  0.41517104  0.64644004  1
  P  P235  1  0.95786890  0.41841317  0.89692594  1
  P  P236  1  0.95882406  0.74946469  0.14831740  1
  P  P237  1  0.95765746  0.75113696  0.39712204  1
  P  P238  1  0.95864625  0.74927148  0.64851818  1
  P  P239  1  0.95816052  0.74862334  0.89700090  1
  P  P240  1  0.20821073  0.08513290  0.22853793  1
  P  P241  1  0.20902160  0.08351190  0.47699630  1
  P  P242  1  0.20783484  0.08261944  0.72774443  1
  P  P243  1  0.20763072  0.08563346  0.97784900  1
  P  P244  1  0.20769088  0.41520481  0.22808419  1
  P  P245  1  0.20872742  0.41647123  0.47681669  1
  P  P246  1  0.20880792  0.41648308  0.72627457  1
  P  P247  1  0.20740955  0.41464979  0.97742230  1
  P  P248  1  0.20747975  0.74987319  0.22891615  1
  P  P249  1  0.20788035  0.74866798  0.47739634  1
  P  P250  1  0.20790852  0.74991621  0.72881703  1
  P  P251  1  0.20855247  0.75018131  0.97601882  1
  P  P252  1  0.70807555  0.08199149  0.22754265  1
  P  P253  1  0.70815626  0.08114809  0.47757746  1
  P  P254  1  0.70824035  0.08162953  0.72781373  1
  P  P255  1  0.70797432  0.08393424  0.97771520  1
  P  P256  1  0.70753458  0.41782920  0.22724177  1
  P  P257  1  0.70766637  0.41524034  0.47757128  1
  P  P258  1  0.70746219  0.41734297  0.72734154  1
  P  P259  1  0.70640609  0.41695354  0.97831060  1
  P  P260  1  0.70702250  0.75199048  0.22739967  1
  P  P261  1  0.70666454  0.75013034  0.47853250  1
  P  P262  1  0.70762746  0.74989059  0.72955862  1
  P  P263  1  0.70870075  0.75072640  0.97700067  1
  P  P264  1  0.29124908  0.25013129  0.02348099  1
  P  P265  1  0.29118883  0.25059924  0.27341191  1
  P  P266  1  0.29200962  0.25151232  0.52219069  1
  P  P267  1  0.29148290  0.25010058  0.77342684  1
  P  P268  1  0.29193030  0.58325574  0.02107375  1
  P  P269  1  0.29096477  0.58296857  0.27338266  1
  P  P270  1  0.29203609  0.58156595  0.52152653  1
  P  P271  1  0.29222192  0.58357455  0.77225862  1
  P  P272  1  0.29263928  0.91674166  0.02125623  1
  P  P273  1  0.29280147  0.91879042  0.27276713  1
  P  P274  1  0.29229169  0.91881631  0.52239700  1
  P  P275  1  0.29193573  0.91624978  0.77244596  1
  P  P276  1  0.79295842  0.24944145  0.02095363  1
  P  P277  1  0.79248955  0.25158179  0.27236546  1
  P  P278  1  0.79324229  0.24971281  0.52088581  1
  P  P279  1  0.79228210  0.24803333  0.77226614  1
  P  P280  1  0.79156399  0.58294676  0.02224727  1
  P  P281  1  0.79266839  0.58385802  0.27124259  1
  P  P282  1  0.79251310  0.58169774  0.52278795  1
  P  P283  1  0.79223148  0.58410867  0.77267064  1
  P  P284  1  0.79180521  0.91616140  0.02342719  1
  P  P285  1  0.79202452  0.91793996  0.27166406  1
  P  P286  1  0.79257647  0.91796671  0.52258131  1
  P  P287  1  0.79233238  0.91525866  0.77279545  1
  O  O288  1  0.03708361  0.24933473  0.18306752  1
  O  O289  1  0.03673596  0.25010566  0.43244566  1
  O  O290  1  0.03753650  0.25139040  0.68223700  1
  O  O291  1  0.03738555  0.25146390  0.93153681  1
  O  O292  1  0.03679723  0.58436197  0.18134190  1
  O  O293  1  0.03689802  0.58379033  0.43264560  1
  O  O294  1  0.03740834  0.58247731  0.68242432  1
  O  O295  1  0.03684918  0.58447643  0.93268266  1
  O  O296  1  0.03794456  0.91564782  0.18358217  1
  O  O297  1  0.03721154  0.91410129  0.43265768  1
  O  O298  1  0.03648898  0.91545073  0.68314919  1
  O  O299  1  0.03734065  0.91606578  0.93133838  1
  O  O300  1  0.53670472  0.24882920  0.18293968  1
  O  O301  1  0.53723279  0.24773600  0.43283485  1
  O  O302  1  0.53724808  0.24785004  0.68331595  1
  O  O303  1  0.53671747  0.24854867  0.93332626  1
  O  O304  1  0.53606332  0.58286479  0.18106838  1
  O  O305  1  0.53749443  0.58216834  0.43180993  1
  O  O306  1  0.53733606  0.58459329  0.68367842  1
  O  O307  1  0.53596343  0.58468076  0.93303946  1
  O  O308  1  0.53695078  0.91862224  0.18213976  1
  O  O309  1  0.53730620  0.91739561  0.43381629  1
  O  O310  1  0.53585610  0.91803050  0.68412312  1
  O  O311  1  0.53616164  0.91777094  0.93200488  1
  O  O312  1  0.46276209  0.08518975  0.06748035  1
  O  O313  1  0.46327937  0.08400985  0.31943120  1
  O  O314  1  0.46361329  0.08354185  0.56894594  1
  O  O315  1  0.46393474  0.08343077  0.81827902  1
  O  O316  1  0.46285709  0.41826439  0.06705837  1
  O  O317  1  0.46284205  0.41653637  0.31628426  1
  O  O318  1  0.46233278  0.41555490  0.56700242  1
  O  O319  1  0.46226448  0.41741982  0.81777211  1
  O  O320  1  0.46219105  0.74993274  0.06595318  1
  O  O321  1  0.46121279  0.75001007  0.31693023  1
  O  O322  1  0.46278232  0.75053110  0.56902278  1
  O  O323  1  0.46369220  0.74965279  0.81670555  1
  O  O324  1  0.96293875  0.08421177  0.06754334  1
  O  O325  1  0.96304173  0.08375146  0.31626490  1
  O  O326  1  0.96312719  0.08147661  0.56708825  1
  O  O327  1  0.96312623  0.08153003  0.81566780  1
  O  O328  1  0.96236289  0.41854526  0.06611314  1
  O  O329  1  0.96371057  0.41705470  0.31831196  1
  O  O330  1  0.96410725  0.41533441  0.56658850  1
  O  O331  1  0.96302193  0.41778288  0.81697281  1
  O  O332  1  0.96393797  0.74909102  0.06834375  1
  O  O333  1  0.96334520  0.75085558  0.31728637  1
  O  O334  1  0.96337862  0.75008631  0.56854359  1
  O  O335  1  0.96320054  0.74867979  0.81713101  1
  O  O336  1  0.21278326  0.08594444  0.05780068  1
  O  O337  1  0.21363784  0.08448954  0.30841622  1
  O  O338  1  0.21370502  0.08331912  0.55700240  1
  O  O339  1  0.21252472  0.08308212  0.80766114  1
  O  O340  1  0.21255174  0.41458247  0.05735845  1
  O  O341  1  0.21308892  0.41551906  0.30792342  1
  O  O342  1  0.21379325  0.41689642  0.55667109  1
  O  O343  1  0.21356352  0.41594156  0.80623280  1
  O  O344  1  0.21318243  0.75020171  0.05608481  1
  O  O345  1  0.21299110  0.74945576  0.30881154  1
  O  O346  1  0.21312313  0.74888055  0.55735802  1
  O  O347  1  0.21344115  0.75005544  0.80871088  1
  O  O348  1  0.71326548  0.08337810  0.05761686  1
  O  O349  1  0.71349613  0.08191908  0.30746816  1
  O  O350  1  0.71369689  0.08093816  0.55748793  1
  O  O351  1  0.71330885  0.08256747  0.80775679  1
  O  O352  1  0.71160701  0.41761870  0.05823384  1
  O  O353  1  0.71300109  0.41696056  0.30719785  1
  O  O354  1  0.71282367  0.41590552  0.55752685  1
  O  O355  1  0.71227330  0.41705505  0.80732746  1
  O  O356  1  0.71354000  0.75126785  0.05701668  1
  O  O357  1  0.71188664  0.75164737  0.30737912  1
  O  O358  1  0.71185736  0.74990718  0.55849136  1
  O  O359  1  0.71314356  0.74994089  0.80945725  1
  O  O360  1  0.28595775  0.25011810  0.19355286  1
  O  O361  1  0.28696470  0.25142633  0.44236326  1
  O  O362  1  0.28669516  0.24989580  0.69348679  1
  O  O363  1  0.28605622  0.25007153  0.94358971  1
  O  O364  1  0.28617431  0.58262049  0.19337034  1
  O  O365  1  0.28644545  0.58210317  0.44166828  1
  O  O366  1  0.28727773  0.58298480  0.69231844  1
  O  O367  1  0.28671052  0.58372256  0.94116088  1
  O  O368  1  0.28754573  0.91862215  0.19279111  1
  O  O369  1  0.28700969  0.91902435  0.44244212  1
  O  O370  1  0.28693216  0.91686665  0.69248337  1
  O  O371  1  0.28710527  0.91620324  0.94132796  1
  O  O372  1  0.78740630  0.25133358  0.19239617  1
  O  O373  1  0.78786441  0.25042231  0.44095927  1
  O  O374  1  0.78713863  0.24827289  0.69227294  1
  O  O375  1  0.78744538  0.24865385  0.94104009  1
  O  O376  1  0.78723132  0.58352138  0.19131683  1
  O  O377  1  0.78756538  0.58208053  0.44280395  1
  O  O378  1  0.78719648  0.58328128  0.69273545  1
  O  O379  1  0.78616067  0.58378103  0.94235063  1
  O  O380  1  0.78656100  0.91746950  0.19179825  1
  O  O381  1  0.78741646  0.91811853  0.44261796  1
  O  O382  1  0.78739586  0.91596572  0.69288955  1
  O  O383  1  0.78671011  0.91542826  0.94343890  1
  O  O384  1  0.22718520  0.25019051  0.05996898  1
  O  O385  1  0.22725791  0.25114978  0.30998494  1
  O  O386  1  0.22781050  0.25130110  0.55811107  1
  O  O387  1  0.22723869  0.25034385  0.80924971  1
  O  O388  1  0.22764315  0.58270831  0.05653374  1
  O  O389  1  0.22682201  0.58356654  0.30916584  1
  O  O390  1  0.22794061  0.58110525  0.55784422  1
  O  O391  1  0.22793407  0.58377814  0.80780496  1
  O  O392  1  0.22841282  0.91734347  0.05689873  1
  O  O393  1  0.22853538  0.91870322  0.30841729  1
  O  O394  1  0.22803081  0.91864838  0.55815264  1
  O  O395  1  0.22766895  0.91589065  0.80806691  1
  O  O396  1  0.72872327  0.24961098  0.05652364  1
  O  O397  1  0.72817426  0.25146536  0.30793788  1
  O  O398  1  0.72896372  0.24922655  0.55635524  1
  O  O399  1  0.72795320  0.24747352  0.80784620  1
  O  O400  1  0.72737775  0.58277024  0.05819493  1
  O  O401  1  0.72833835  0.58337365  0.30662746  1
  O  O402  1  0.72809412  0.58145997  0.55811023  1
  O  O403  1  0.72789455  0.58491677  0.80817999  1
  O  O404  1  0.72756399  0.91644428  0.05931254  1
  O  O405  1  0.72787742  0.91869605  0.30791659  1
  O  O406  1  0.72822258  0.91819563  0.55817644  1
  O  O407  1  0.72802062  0.91485719  0.80835918  1
  O  O408  1  0.27227774  0.08565432  0.19220502  1
  O  O409  1  0.27322853  0.08352581  0.44126247  1
  O  O410  1  0.27220676  0.08269207  0.69227798  1
  O  O411  1  0.27193967  0.08519826  0.94228928  1
  O  O412  1  0.27179094  0.41477197  0.19182949  1
  O  O413  1  0.27271891  0.41594507  0.44040625  1
  O  O414  1  0.27295518  0.41718923  0.69030183  1
  O  O415  1  0.27170226  0.41466148  0.94173923  1
  O  O416  1  0.27173441  0.74987472  0.19330345  1
  O  O417  1  0.27213738  0.74865255  0.44179705  1
  O  O418  1  0.27202058  0.74985014  0.69287023  1
  O  O419  1  0.27277442  0.75020676  0.94033106  1
  O  O420  1  0.77231064  0.08155251  0.19171740  1
  O  O421  1  0.77230086  0.08146211  0.44150224  1
  O  O422  1  0.77255743  0.08103767  0.69213197  1
  O  O423  1  0.77220614  0.08418174  0.94182964  1
  O  O424  1  0.77174375  0.41877534  0.19132681  1
  O  O425  1  0.77203342  0.41462401  0.44195353  1
  O  O426  1  0.77190801  0.41768150  0.69210417  1
  O  O427  1  0.77076519  0.41656260  0.94311131  1
  O  O428  1  0.77147150  0.75192465  0.19217784  1
  O  O429  1  0.77111446  0.75045576  0.44350305  1
  O  O430  1  0.77176573  0.74990930  0.69360583  1
  O  O431  1  0.77289148  0.75048828  0.94109405  1
  O  O432  1  0.02205364  0.08485877  0.18317763  1
  O  O433  1  0.02204160  0.08270622  0.43162710  1
  O  O434  1  0.02250143  0.08176635  0.68237121  1
  O  O435  1  0.02205544  0.08274731  0.93104378  1
  O  O436  1  0.02125618  0.41725594  0.18148309  1
  O  O437  1  0.02315489  0.41710125  0.43401118  1
  O  O438  1  0.02264365  0.41514755  0.68265271  1
  O  O439  1  0.02213987  0.41922404  0.93262148  1
  O  O440  1  0.02295277  0.74922321  0.18444096  1
  O  O441  1  0.02176544  0.75111888  0.43347306  1
  O  O442  1  0.02279500  0.74868167  0.68437147  1
  O  O443  1  0.02245305  0.74817454  0.93280232  1
  O  O444  1  0.52171410  0.08540063  0.18331955  1
  O  O445  1  0.52265884  0.08302298  0.43539504  1
  O  O446  1  0.52241265  0.08333353  0.68516768  1
  O  O447  1  0.52265269  0.08356205  0.93460594  1
  O  O448  1  0.52176720  0.41798296  0.18281865  1
  O  O449  1  0.52190599  0.41571340  0.43176016  1
  O  O450  1  0.52144082  0.41608331  0.68217634  1
  O  O451  1  0.52155494  0.41778079  0.93315833  1
  O  O452  1  0.52110811  0.74991413  0.18134632  1
  O  O453  1  0.52085458  0.75063249  0.43181605  1
  O  O454  1  0.52232577  0.74985928  0.68474680  1
  O  O455  1  0.52216237  0.74960267  0.93300015  1
  O  O456  1  0.47762696  0.24900177  0.06728504  1
  O  O457  1  0.47801273  0.24809758  0.31716759  1
  O  O458  1  0.47821249  0.24758468  0.56762651  1
  O  O459  1  0.47768993  0.24811531  0.81770022  1
  O  O460  1  0.47673878  0.58419374  0.06521769  1
  O  O461  1  0.47775596  0.58131648  0.31667035  1
  O  O462  1  0.47830269  0.58356575  0.56840721  1
  O  O463  1  0.47775900  0.58539514  0.81675527  1
  O  O464  1  0.47786243  0.91885537  0.06661202  1
  O  O465  1  0.47796636  0.91733449  0.31861148  1
  O  O466  1  0.47728425  0.91875876  0.56786844  1
  O  O467  1  0.47700934  0.91813307  0.81607219  1
  O  O468  1  0.97837725  0.25055027  0.06751242  1
  O  O469  1  0.97775055  0.24854798  0.31659275  1
  O  O470  1  0.97844246  0.25110780  0.56667054  1
  O  O471  1  0.97829373  0.25149334  0.81596669  1
  O  O472  1  0.97763707  0.58385319  0.06528488  1
  O  O473  1  0.97794702  0.58523816  0.31685812  1
  O  O474  1  0.97819071  0.58172761  0.56688470  1
  O  O475  1  0.97815412  0.58461974  0.81667326  1
  O  O476  1  0.97886986  0.91592670  0.06832141  1
  O  O477  1  0.97836360  0.91486499  0.31682020  1
  O  O478  1  0.97810318  0.91404621  0.56691783  1
  O  O479  1  0.97721054  0.91666683  0.81601100  1
  O  O480  1  0.07383877  0.31360110  0.07559698  1
  O  O481  1  0.07277996  0.31299561  0.32432518  1
  O  O482  1  0.07372355  0.31418191  0.57312042  1
  O  O483  1  0.07303240  0.31547076  0.82342267  1
  O  O484  1  0.07284155  0.64745678  0.07297752  1
  O  O485  1  0.07304539  0.64802884  0.32448449  1
  O  O486  1  0.07358036  0.64558153  0.57449682  1
  O  O487  1  0.07318418  0.64794112  0.82393578  1
  O  O488  1  0.07396102  0.97993167  0.07571946  1
  O  O489  1  0.07369825  0.97837655  0.32545121  1
  O  O490  1  0.07336085  0.97791567  0.57467177  1
  O  O491  1  0.07276930  0.97959727  0.82303838  1
  O  O492  1  0.57292907  0.31267734  0.07535203  1
  O  O493  1  0.57330070  0.31161536  0.32496120  1
  O  O494  1  0.57344702  0.31139245  0.57532809  1
  O  O495  1  0.57283367  0.31217297  0.82557663  1
  O  O496  1  0.57194880  0.64744482  0.07339907  1
  O  O497  1  0.57286217  0.64570704  0.32379362  1
  O  O498  1  0.57376521  0.64718607  0.57507917  1
  O  O499  1  0.57308049  0.64819779  0.82479118  1
  O  O500  1  0.57279337  0.98237456  0.07369504  1
  O  O501  1  0.57350438  0.98065130  0.32547831  1
  O  O502  1  0.57262427  0.98130473  0.57554075  1
  O  O503  1  0.57286585  0.98057818  0.82388331  1
  O  O504  1  0.42632390  0.02178652  0.17550157  1
  O  O505  1  0.42762262  0.01996944  0.42763907  1
  O  O506  1  0.42714184  0.02011835  0.67730847  1
  O  O507  1  0.42768527  0.02004366  0.92655855  1
  O  O508  1  0.42651298  0.35433976  0.17461869  1
  O  O509  1  0.42662669  0.35232897  0.42406033  1
  O  O510  1  0.42628005  0.35224136  0.67519607  1
  O  O511  1  0.42613030  0.35424347  0.92566546  1
  O  O512  1  0.42521969  0.68708629  0.17426904  1
  O  O513  1  0.42592766  0.68626909  0.42521341  1
  O  O514  1  0.42702772  0.68664775  0.67689476  1
  O  O515  1  0.42715084  0.68631588  0.92531022  1
  O  O516  1  0.92690604  0.02078170  0.17523970  1
  O  O517  1  0.92670791  0.01934237  0.42376546  1
  O  O518  1  0.92768735  0.01776871  0.67553961  1
  O  O519  1  0.92647677  0.01939416  0.92478788  1
  O  O520  1  0.92563720  0.35444918  0.17380749  1
  O  O521  1  0.92839194  0.35290445  0.42608873  1
  O  O522  1  0.92755201  0.35183623  0.67533936  1
  O  O523  1  0.92698217  0.35475807  0.92493862  1
  O  O524  1  0.92758856  0.68615164  0.17669318  1
  O  O525  1  0.92641363  0.68761403  0.42535025  1
  O  O526  1  0.92764748  0.68543790  0.67602340  1
  O  O527  1  0.92696398  0.68556677  0.92605770  1
  O  O528  1  0.17710434  0.02166466  0.20000840  1
  O  O529  1  0.17775084  0.02025002  0.44849415  1
  O  O530  1  0.17757946  0.01881397  0.69895778  1
  O  O531  1  0.17636358  0.02190867  0.95028431  1
  O  O532  1  0.17651432  0.35191188  0.19948480  1
  O  O533  1  0.17735856  0.35308416  0.44861301  1
  O  O534  1  0.17857028  0.35261984  0.69746540  1
  O  O535  1  0.17650677  0.35143616  0.94846458  1
  O  O536  1  0.17611483  0.68671187  0.20030016  1
  O  O537  1  0.17717119  0.68501458  0.44916955  1
  O  O538  1  0.17658244  0.68649905  0.70063974  1
  O  O539  1  0.17798754  0.68633508  0.94780128  1
  O  O540  1  0.67679435  0.01897880  0.19860606  1
  O  O541  1  0.67717866  0.01794656  0.44881125  1
  O  O542  1  0.67758590  0.01776074  0.69988028  1
  O  O543  1  0.67693084  0.02029327  0.94967653  1
  O  O544  1  0.67659964  0.35419467  0.19916552  1
  O  O545  1  0.67684365  0.35161684  0.44918965  1
  O  O546  1  0.67657896  0.35353316  0.69966002  1
  O  O547  1  0.67544689  0.35320821  0.95042984  1
  O  O548  1  0.67590247  0.68844484  0.19932763  1
  O  O549  1  0.67587879  0.68656568  0.45012938  1
  O  O550  1  0.67631498  0.68659984  0.70114027  1
  O  O551  1  0.67814036  0.68668591  0.94917894  1
  O  O552  1  0.32210785  0.31378227  0.05195124  1
  O  O553  1  0.32275402  0.31396033  0.30131203  1
  O  O554  1  0.32265675  0.31500774  0.55121759  1
  O  O555  1  0.32251025  0.31361901  0.80172282  1
  O  O556  1  0.32295838  0.64655873  0.04969880  1
  O  O557  1  0.32226665  0.64642752  0.30134302  1
  O  O558  1  0.32316775  0.64511341  0.54985195  1
  O  O559  1  0.32268856  0.64737206  0.80073682  1
  O  O560  1  0.32386230  0.98043447  0.04885390  1
  O  O561  1  0.32346469  0.98244533  0.30109586  1
  O  O562  1  0.32307376  0.98207244  0.55154937  1
  O  O563  1  0.32306980  0.97969631  0.80072578  1
  O  O564  1  0.82388972  0.31332572  0.04848505  1
  O  O565  1  0.82303295  0.31530834  0.30064118  1
  O  O566  1  0.82440386  0.31278851  0.54987877  1
  O  O567  1  0.82286090  0.31207030  0.79989276  1
  O  O568  1  0.82298505  0.64630761  0.05037261  1
  O  O569  1  0.82316008  0.64780252  0.29930320  1
  O  O570  1  0.82353525  0.64535558  0.55067703  1
  O  O571  1  0.82303826  0.64767481  0.80117260  1
  O  O572  1  0.82241617  0.98026688  0.05096194  1
  O  O573  1  0.82342227  0.98116546  0.30012386  1
  O  O574  1  0.82370426  0.98106421  0.55149691  1
  O  O575  1  0.82340165  0.97864225  0.80128220  1
  O  O576  1  0.42663287  0.14865583  0.17653412  1
  O  O577  1  0.42781394  0.14729269  0.42785334  1
  O  O578  1  0.42747486  0.14715886  0.67738038  1
  O  O579  1  0.42766191  0.14728996  0.92647381  1
  O  O580  1  0.42665521  0.48149467  0.17579629  1
  O  O581  1  0.42644225  0.47928490  0.42479006  1
  O  O582  1  0.42586424  0.47928411  0.67475914  1
  O  O583  1  0.42661971  0.48152603  0.92588460  1
  O  O584  1  0.42611021  0.81405569  0.17386101  1
  O  O585  1  0.42500585  0.81329219  0.42531431  1
  O  O586  1  0.42788527  0.81428460  0.67741578  1
  O  O587  1  0.42686452  0.81330826  0.92423057  1
  O  O588  1  0.92687438  0.14810121  0.17578867  1
  O  O589  1  0.92649506  0.14623849  0.42486286  1
  O  O590  1  0.92688970  0.14510940  0.67454833  1
  O  O591  1  0.92679296  0.14632449  0.92299876  1
  O  O592  1  0.92604236  0.48126218  0.17478586  1
  O  O593  1  0.92798534  0.48054433  0.42648129  1
  O  O594  1  0.92725253  0.47869736  0.67455983  1
  O  O595  1  0.92688705  0.48198370  0.92516840  1
  O  O596  1  0.92836640  0.81354127  0.17623703  1
  O  O597  1  0.92669029  0.81446771  0.42592019  1
  O  O598  1  0.92814633  0.81288691  0.67761052  1
  O  O599  1  0.92749431  0.81241646  0.92542710  1
  O  O600  1  0.07363134  0.18669002  0.07437758  1
  O  O601  1  0.07294387  0.18570608  0.32451364  1
  O  O602  1  0.07363927  0.18707244  0.57493323  1
  O  O603  1  0.07377363  0.18812047  0.82378731  1
  O  O604  1  0.07245017  0.52007422  0.07324645  1
  O  O605  1  0.07311065  0.52095400  0.32438195  1
  O  O606  1  0.07321482  0.51847600  0.57392695  1
  O  O607  1  0.07360767  0.52113501  0.82466889  1
  O  O608  1  0.07468421  0.85303321  0.07498388  1
  O  O609  1  0.07344146  0.85127368  0.32377904  1
  O  O610  1  0.07322508  0.85089779  0.57525737  1
  O  O611  1  0.07153857  0.85206699  0.82286614  1
  O  O612  1  0.57289045  0.18563642  0.07417055  1
  O  O613  1  0.57315030  0.18451738  0.32416769  1
  O  O614  1  0.57352861  0.18433570  0.57484762  1
  O  O615  1  0.57303730  0.18504426  0.82469674  1
  O  O616  1  0.57149460  0.51998756  0.07223606  1
  O  O617  1  0.57315225  0.51843228  0.32319178  1
  O  O618  1  0.57366086  0.52016170  0.57602055  1
  O  O619  1  0.57277511  0.52115110  0.82524508  1
  O  O620  1  0.57324625  0.85520753  0.07439691  1
  O  O621  1  0.57322748  0.85377035  0.32527223  1
  O  O622  1  0.57220657  0.85429994  0.57630214  1
  O  O623  1  0.57106661  0.85323942  0.82384350  1
  O  O624  1  0.32219233  0.18664562  0.05209500  1
  O  O625  1  0.32158659  0.18681567  0.30239341  1
  O  O626  1  0.32329242  0.18807659  0.55044373  1
  O  O627  1  0.32186333  0.18625668  0.80212093  1
  O  O628  1  0.32307887  0.51965053  0.04893052  1
  O  O629  1  0.32113041  0.51883900  0.30156425  1
  O  O630  1  0.32312524  0.51819307  0.55002767  1
  O  O631  1  0.32352995  0.52023405  0.80045626  1
  O  O632  1  0.32371667  0.85346267  0.04979776  1
  O  O633  1  0.32397492  0.85518914  0.30047676  1
  O  O634  1  0.32329153  0.85486133  0.54975436  1
  O  O635  1  0.32274007  0.85259883  0.80064838  1
  O  O636  1  0.82449963  0.18650275  0.04972984  1
  O  O637  1  0.82359897  0.18791658  0.29995875  1
  O  O638  1  0.82443225  0.18598932  0.54840698  1
  O  O639  1  0.82335770  0.18460355  0.80036650  1
  O  O640  1  0.82214770  0.51912712  0.05022883  1
  O  O641  1  0.82449916  0.52092732  0.29957355  1
  O  O642  1  0.82302770  0.51802544  0.55126508  1
  O  O643  1  0.82322050  0.52054988  0.80081641  1
  O  O644  1  0.82283032  0.85283066  0.05214756  1
  O  O645  1  0.82272861  0.85423115  0.30012496  1
  O  O646  1  0.82325743  0.85398174  0.55033367  1
  O  O647  1  0.82311455  0.85166492  0.80115891  1
  O  O648  1  0.17710413  0.14862113  0.20032589  1
  O  O649  1  0.17867550  0.14763302  0.44884229  1
  O  O650  1  0.17646235  0.14589191  0.69943392  1
  O  O651  1  0.17695940  0.14892446  0.94869900  1
  O  O652  1  0.17672534  0.47888526  0.19985124  1
  O  O653  1  0.17824095  0.48017582  0.44779088  1
  O  O654  1  0.17765787  0.48006752  0.69832825  1
  O  O655  1  0.17652474  0.47846310  0.94960771  1
  O  O656  1  0.17667919  0.81363888  0.20097949  1
  O  O657  1  0.17680470  0.81242860  0.44999689  1
  O  O658  1  0.17665507  0.81321111  0.70030720  1
  O  O659  1  0.17776290  0.81396261  0.94798098  1
  O  O660  1  0.67742420  0.14610961  0.20018263  1
  O  O661  1  0.67706228  0.14501915  0.45015541  1
  O  O662  1  0.67717158  0.14488742  0.69911132  1
  O  O663  1  0.67720264  0.14740919  0.94921971  1
  O  O664  1  0.67655504  0.48144774  0.19918107  1
  O  O665  1  0.67669608  0.47875261  0.44926002  1
  O  O666  1  0.67689068  0.48100782  0.69896968  1
  O  O667  1  0.67515090  0.48008492  0.94970104  1
  O  O668  1  0.67642933  0.81555501  0.19890487  1
  O  O669  1  0.67549347  0.81367927  0.45080497  1
  O  O670  1  0.67633223  0.81325899  0.70118578  1
  O  O671  1  0.67764075  0.81414773  0.94850371  1
