# generated using pymatgen
data_Na2MnFe(PO4)2
_symmetry_space_group_name_H-M   'P 1'
_cell_length_a   22.34276344
_cell_length_b   20.09296443
_cell_length_c   19.45028830
_cell_angle_alpha   90.01708557
_cell_angle_beta   90.02653996
_cell_angle_gamma   89.98759778
_symmetry_Int_Tables_number   1
_chemical_formula_structural   Na2MnFe(PO4)2
_chemical_formula_sum   'Na96 Mn48 Fe48 P96 O384'
_cell_volume   8731.86212891
_cell_formula_units_Z   48
loop_
 _symmetry_equiv_pos_site_id
 _symmetry_equiv_pos_as_xyz
  1  'x, y, z'
loop_
 _atom_site_type_symbol
 _atom_site_label
 _atom_site_symmetry_multiplicity
 _atom_site_fract_x
 _atom_site_fract_y
 _atom_site_fract_z
 _atom_site_occupancy
  Na  Na0  1  0.14030092  0.24937936  0.24243456  1
  Na  Na1  1  0.13995604  0.24939132  0.49279078  1
  Na  Na2  1  0.13960812  0.24989906  0.74442193  1
  Na  Na3  1  0.14006958  0.25033411  0.99281974  1
  Na  Na4  1  0.14114711  0.58213777  0.24397717  1
  Na  Na5  1  0.14004398  0.58374938  0.49308691  1
  Na  Na6  1  0.14064291  0.58323776  0.74350097  1
  Na  Na7  1  0.14144468  0.58309548  0.99408011  1
  Na  Na8  1  0.14068161  0.91521301  0.24359653  1
  Na  Na9  1  0.14021297  0.91606302  0.49346396  1
  Na  Na10  1  0.13999645  0.91488566  0.74407691  1
  Na  Na11  1  0.14002473  0.91640040  0.99298053  1
  Na  Na12  1  0.63997348  0.25046384  0.24506047  1
  Na  Na13  1  0.63965950  0.25133064  0.49317442  1
  Na  Na14  1  0.63986996  0.25053150  0.74396023  1
  Na  Na15  1  0.64004199  0.25211396  0.99331347  1
  Na  Na16  1  0.64102775  0.58194373  0.24514576  1
  Na  Na17  1  0.63962682  0.58376295  0.49376121  1
  Na  Na18  1  0.63995574  0.58324219  0.74466906  1
  Na  Na19  1  0.64109486  0.58322436  0.99374502  1
  Na  Na20  1  0.63987633  0.91602219  0.24323869  1
  Na  Na21  1  0.64011168  0.91898869  0.49331759  1
  Na  Na22  1  0.63987948  0.91760292  0.74367809  1
  Na  Na23  1  0.63995343  0.91639341  0.99364159  1
  Na  Na24  1  0.35912897  0.08349829  0.00628109  1
  Na  Na25  1  0.35915161  0.08190159  0.25732270  1
  Na  Na26  1  0.35982337  0.08286201  0.50633529  1
  Na  Na27  1  0.35937270  0.08248379  0.75651034  1
  Na  Na28  1  0.35955986  0.41658387  0.00629002  1
  Na  Na29  1  0.35996589  0.41489092  0.25670192  1
  Na  Na30  1  0.35999041  0.41631570  0.50712505  1
  Na  Na31  1  0.36001154  0.41644321  0.75719076  1
  Na  Na32  1  0.35960149  0.75097175  0.00657558  1
  Na  Na33  1  0.35993466  0.74928029  0.25575690  1
  Na  Na34  1  0.35974580  0.74966084  0.50638086  1
  Na  Na35  1  0.35906895  0.74968823  0.75634414  1
  Na  Na36  1  0.85979806  0.08541331  0.00612069  1
  Na  Na37  1  0.86004975  0.08425087  0.25534899  1
  Na  Na38  1  0.85984942  0.08507438  0.50578748  1
  Na  Na39  1  0.85943023  0.08445846  0.75656572  1
  Na  Na40  1  0.85981894  0.41730952  0.00555614  1
  Na  Na41  1  0.86033179  0.41525175  0.25588922  1
  Na  Na42  1  0.86034926  0.41752799  0.50555560  1
  Na  Na43  1  0.85962264  0.41626567  0.75763995  1
  Na  Na44  1  0.85983506  0.75013281  0.00545881  1
  Na  Na45  1  0.85990666  0.74902456  0.25595914  1
  Na  Na46  1  0.86007861  0.75125636  0.50719058  1
  Na  Na47  1  0.85985235  0.75026968  0.75597401  1
  Na  Na48  1  0.10927448  0.08343210  0.11753074  1
  Na  Na49  1  0.10975082  0.08480784  0.36818113  1
  Na  Na50  1  0.10925654  0.08276774  0.61933047  1
  Na  Na51  1  0.10924330  0.08254483  0.86903176  1
  Na  Na52  1  0.11075253  0.41518784  0.11786790  1
  Na  Na53  1  0.10979643  0.41606905  0.36782569  1
  Na  Na54  1  0.10917288  0.41557929  0.61911843  1
  Na  Na55  1  0.11033357  0.41508281  0.86873397  1
  Na  Na56  1  0.10997066  0.75042536  0.11800101  1
  Na  Na57  1  0.11016062  0.75015318  0.36984258  1
  Na  Na58  1  0.10989360  0.74956701  0.61777395  1
  Na  Na59  1  0.10998849  0.75060663  0.86821596  1
  Na  Na60  1  0.60878000  0.08314970  0.11898792  1
  Na  Na61  1  0.60917826  0.08382686  0.36902144  1
  Na  Na62  1  0.60892258  0.08399663  0.61823204  1
  Na  Na63  1  0.60903204  0.08472922  0.86832172  1
  Na  Na64  1  0.61014591  0.41585751  0.11907882  1
  Na  Na65  1  0.60948314  0.41709667  0.36968966  1
  Na  Na66  1  0.60897361  0.41705517  0.61948409  1
  Na  Na67  1  0.60972944  0.41650262  0.86828263  1
  Na  Na68  1  0.60998759  0.74991767  0.11890228  1
  Na  Na69  1  0.60931836  0.75027553  0.36866885  1
  Na  Na70  1  0.60901729  0.75021942  0.61879748  1
  Na  Na71  1  0.60918609  0.75046479  0.86902686  1
  Na  Na72  1  0.38994972  0.24982376  0.13195147  1
  Na  Na73  1  0.38996047  0.25006562  0.38248161  1
  Na  Na74  1  0.39036238  0.25016128  0.63043663  1
  Na  Na75  1  0.38998549  0.25068928  0.88142162  1
  Na  Na76  1  0.39034393  0.58290765  0.13175882  1
  Na  Na77  1  0.39086166  0.58268167  0.38190175  1
  Na  Na78  1  0.39024914  0.58262431  0.63121662  1
  Na  Na79  1  0.39003219  0.58210027  0.88203900  1
  Na  Na80  1  0.39028484  0.91637019  0.13140669  1
  Na  Na81  1  0.39046915  0.91587885  0.38138272  1
  Na  Na82  1  0.38977159  0.91657597  0.63123773  1
  Na  Na83  1  0.38948954  0.91720149  0.88144633  1
  Na  Na84  1  0.89031533  0.25053349  0.13017309  1
  Na  Na85  1  0.89095956  0.25077718  0.38054425  1
  Na  Na86  1  0.89055726  0.24969732  0.63123773  1
  Na  Na87  1  0.89018641  0.24932476  0.88181757  1
  Na  Na88  1  0.89076027  0.58307128  0.13082792  1
  Na  Na89  1  0.89140136  0.58382460  0.38191327  1
  Na  Na90  1  0.89089858  0.58327167  0.63100589  1
  Na  Na91  1  0.89045886  0.58333093  0.88205934  1
  Na  Na92  1  0.89064219  0.91806999  0.13006306  1
  Na  Na93  1  0.89091103  0.91760714  0.38169550  1
  Na  Na94  1  0.89052560  0.91751212  0.63093857  1
  Na  Na95  1  0.89089550  0.91725968  0.88109212  1
  Mn  Mn96  1  0.74903119  0.16804429  0.12490911  1
  Mn  Mn97  1  0.50097889  0.66689453  0.25034333  1
  Mn  Mn98  1  0.49975045  0.16690226  0.25041416  1
  Mn  Mn99  1  0.24992853  -0.00118526  0.37554989  1
  Mn  Mn100  1  0.25076893  0.66660233  0.37428866  1
  Mn  Mn101  1  0.74997050  0.33419044  0.62525532  1
  Mn  Mn102  1  0.25101409  0.49870951  0.37427828  1
  Mn  Mn103  1  0.75023505  0.83315701  0.87439928  1
  Mn  Mn104  1  0.49940461  -0.00050027  -0.00016633  1
  Mn  Mn105  1  0.24988237  0.16603068  0.12470693  1
  Mn  Mn106  1  0.24979728  0.33316843  0.62485931  1
  Mn  Mn107  1  0.75024883  0.83376384  0.37488995  1
  Mn  Mn108  1  0.74915308  0.83477736  0.62564016  1
  Mn  Mn109  1  0.00064742  0.66696299  0.25026895  1
  Mn  Mn110  1  0.00102184  0.49860489  0.00024060  1
  Mn  Mn111  1  0.24996630  0.16654067  0.62557838  1
  Mn  Mn112  1  0.74997070  0.66693519  0.62501885  1
  Mn  Mn113  1  0.75049813  0.49968623  0.12425917  1
  Mn  Mn114  1  0.49922123  0.83453280  0.74893911  1
  Mn  Mn115  1  0.49902421  0.16726354  0.74937391  1
  Mn  Mn116  1  0.25013777  0.66624895  0.87508962  1
  Mn  Mn117  1  0.25001571  0.83315561  0.12471690  1
  Mn  Mn118  1  0.74994386  0.16704983  0.62499042  1
  Mn  Mn119  1  -0.00018234  0.00080036  0.50027093  1
  Mn  Mn120  1  -0.00006908  0.00001752  0.74987498  1
  Mn  Mn121  1  0.50036221  0.49897259  0.25126760  1
  Mn  Mn122  1  0.00070296  0.66714803  0.00008201  1
  Mn  Mn123  1  0.75023688  0.66601589  0.37543472  1
  Mn  Mn124  1  0.75008200  0.00128557  0.87465690  1
  Mn  Mn125  1  0.75004996  0.50078566  0.62598800  1
  Mn  Mn126  1  0.00109373  0.49931157  0.25016070  1
  Mn  Mn127  1  0.24970242  0.16658230  0.87560544  1
  Mn  Mn128  1  0.50016835  0.83382561  0.49969331  1
  Mn  Mn129  1  0.50020530  0.66715072  0.00051889  1
  Mn  Mn130  1  0.00038022  0.49895361  0.75027706  1
  Mn  Mn131  1  0.74943237  0.00064313  0.12469883  1
  Mn  Mn132  1  0.75042754  0.00131760  0.37415345  1
  Mn  Mn133  1  0.00035957  0.66724229  0.75012293  1
  Mn  Mn134  1  0.24898365  -0.00118476  0.62520275  1
  Mn  Mn135  1  0.50026530  0.49866368  0.00107323  1
  Mn  Mn136  1  -0.00016884  0.83389089  0.25034401  1
  Mn  Mn137  1  0.75063395  0.83226804  0.12407099  1
  Mn  Mn138  1  0.00054671  0.33280747  0.49977263  1
  Mn  Mn139  1  0.49902882  0.66620840  0.74994432  1
  Mn  Mn140  1  0.49933155  0.16743988  -0.00000673  1
  Mn  Mn141  1  0.00110844  0.00154047  0.25003263  1
  Mn  Mn142  1  0.75027612  0.33362894  0.37513115  1
  Mn  Mn143  1  0.24908965  0.50005505  0.62509301  1
  Fe  Fe144  1  0.25063959  0.33300593  0.12492160  1
  Fe  Fe145  1  0.49981343  0.33346939  0.74970390  1
  Fe  Fe146  1  -0.00041841  0.33215060  0.74956357  1
  Fe  Fe147  1  -0.00057661  0.16642854  0.75039789  1
  Fe  Fe148  1  0.00044197  0.33298055  0.24923636  1
  Fe  Fe149  1  0.49975935  0.83349018  0.25030645  1
  Fe  Fe150  1  0.24989696  -0.00069023  0.12535623  1
  Fe  Fe151  1  0.00062067  0.83359237  0.50013684  1
  Fe  Fe152  1  0.24944838  -0.00059714  0.87517051  1
  Fe  Fe153  1  0.25055820  0.49918008  0.12480813  1
  Fe  Fe154  1  0.75058125  0.66582057  0.12509380  1
  Fe  Fe155  1  0.24995606  0.33373204  0.87530818  1
  Fe  Fe156  1  0.24966944  0.16583085  0.37461051  1
  Fe  Fe157  1  0.74976779  0.33396414  0.87516362  1
  Fe  Fe158  1  0.00036933  0.16708254  0.49986701  1
  Fe  Fe159  1  0.49987512  0.33315672  0.25135319  1
  Fe  Fe160  1  -0.00000461  0.83336445  0.74978290  1
  Fe  Fe161  1  0.25020500  0.66619089  0.12479202  1
  Fe  Fe162  1  0.49968824  0.00004815  0.25007176  1
  Fe  Fe163  1  0.24962822  0.83285726  0.87500338  1
  Fe  Fe164  1  0.49993866  0.33318020  0.00020168  1
  Fe  Fe165  1  0.49992477  0.49963372  0.50065825  1
  Fe  Fe166  1  0.25016495  0.49994298  0.87535854  1
  Fe  Fe167  1  0.75105050  0.49964379  0.37454603  1
  Fe  Fe168  1  0.24954277  0.33254223  0.37460127  1
  Fe  Fe169  1  0.75020435  0.33387182  0.12464209  1
  Fe  Fe170  1  0.50016032  0.83374727  0.00003992  1
  Fe  Fe171  1  0.00011309  0.66688656  0.50057064  1
  Fe  Fe172  1  0.74992383  0.16734368  0.37501295  1
  Fe  Fe173  1  0.74965952  0.66674732  0.87517635  1
  Fe  Fe174  1  0.49969563  0.00011731  0.49965744  1
  Fe  Fe175  1  0.00007663  0.16704856  -0.00047926  1
  Fe  Fe176  1  -0.00015963  0.83372845  -0.00036125  1
  Fe  Fe177  1  -0.00003751  0.00034289  -0.00050792  1
  Fe  Fe178  1  0.49983033  0.49964806  0.75009319  1
  Fe  Fe179  1  0.75011988  0.50064585  0.87563859  1
  Fe  Fe180  1  0.25005697  0.83270057  0.62508675  1
  Fe  Fe181  1  0.25038308  0.66650431  0.62495281  1
  Fe  Fe182  1  0.00021350  0.49941599  0.50006653  1
  Fe  Fe183  1  0.49947079  0.00071281  0.74994611  1
  Fe  Fe184  1  0.49973766  0.16676180  0.50005659  1
  Fe  Fe185  1  0.49962014  0.66634924  0.50008420  1
  Fe  Fe186  1  0.49974074  0.33384036  0.50105283  1
  Fe  Fe187  1  0.25009789  0.83231105  0.37467531  1
  Fe  Fe188  1  -0.00010006  0.16772498  0.24869098  1
  Fe  Fe189  1  0.74905607  0.16758017  0.87526695  1
  Fe  Fe190  1  0.74980792  0.00121743  0.62489995  1
  Fe  Fe191  1  -0.00012908  0.33225634  -0.00053031  1
  P  P192  1  0.04183231  0.24985447  0.10149869  1
  P  P193  1  0.04194000  0.25001671  0.35099460  1
  P  P194  1  0.04233048  0.24834314  0.60308983  1
  P  P195  1  0.04108596  0.24932870  0.85213415  1
  P  P196  1  0.04361317  0.58285129  0.10306738  1
  P  P197  1  0.04331226  0.58340060  0.35417526  1
  P  P198  1  0.04150596  0.58272065  0.60163853  1
  P  P199  1  0.04318783  0.58305302  0.85306477  1
  P  P200  1  0.04141291  0.91726443  0.10109971  1
  P  P201  1  0.04303582  0.91713503  0.35362775  1
  P  P202  1  0.04228292  0.91551571  0.60265872  1
  P  P203  1  0.04179399  0.91556626  0.85290029  1
  P  P204  1  0.54196104  0.25132231  0.10314650  1
  P  P205  1  0.54150638  0.25122391  0.35407961  1
  P  P206  1  0.54105321  0.25043643  0.60191387  1
  P  P207  1  0.54161378  0.25166203  0.85235196  1
  P  P208  1  0.54316033  0.58302500  0.10355537  1
  P  P209  1  0.54285000  0.58317790  0.35458917  1
  P  P210  1  0.54096115  0.58279526  0.60215007  1
  P  P211  1  0.54159356  0.58201649  0.85262501  1
  P  P212  1  0.54212627  0.91548273  0.10326747  1
  P  P213  1  0.54121389  0.91719156  0.35175713  1
  P  P214  1  0.54184452  0.91870321  0.60241530  1
  P  P215  1  0.54186445  0.91805106  0.85231601  1
  P  P216  1  0.45716538  0.08224667  0.14801170  1
  P  P217  1  0.45854268  0.08306666  0.39806736  1
  P  P218  1  0.45720251  0.08221571  0.64660207  1
  P  P219  1  0.45657829  0.08360009  0.89653512  1
  P  P220  1  0.45817719  0.41453280  0.14818113  1
  P  P221  1  0.45832599  0.41619707  0.39906468  1
  P  P222  1  0.45826193  0.41658567  0.64801844  1
  P  P223  1  0.45808357  0.41512398  0.89722797  1
  P  P224  1  0.45821786  0.75151440  0.14746302  1
  P  P225  1  0.45806218  0.74915278  0.39746569  1
  P  P226  1  0.45685999  0.74962266  0.64612343  1
  P  P227  1  0.45744385  0.75155950  0.89771394  1
  P  P228  1  0.95821266  0.08517374  0.14630132  1
  P  P229  1  0.95821025  0.08572621  0.39698338  1
  P  P230  1  0.95766736  0.08483828  0.64741752  1
  P  P231  1  0.95858409  0.08384341  0.89807595  1
  P  P232  1  0.95851240  0.41484357  0.14686137  1
  P  P233  1  0.95839030  0.41735650  0.39715949  1
  P  P234  1  0.95755670  0.41507931  0.64735380  1
  P  P235  1  0.95841962  0.41431911  0.89699555  1
  P  P236  1  0.95772864  0.75079009  0.14644482  1
  P  P237  1  0.95888428  0.75045911  0.39894747  1
  P  P238  1  0.95825851  0.75132948  0.64669564  1
  P  P239  1  0.95811936  0.75154943  0.89708609  1
  P  P240  1  0.20779581  0.08170720  0.22761471  1
  P  P241  1  0.20757643  0.08382182  0.47731861  1
  P  P242  1  0.20706561  0.08248931  0.72901168  1
  P  P243  1  0.20769394  0.08170401  0.97793799  1
  P  P244  1  0.20920512  0.41558177  0.22654163  1
  P  P245  1  0.20761755  0.41529166  0.47687567  1
  P  P246  1  0.20726898  0.41641131  0.72910950  1
  P  P247  1  0.20897712  0.41699681  0.97749321  1
  P  P248  1  0.20783794  0.74836561  0.22711261  1
  P  P249  1  0.20843077  0.75071995  0.47800245  1
  P  P250  1  0.20857364  0.74957527  0.72666435  1
  P  P251  1  0.20791178  0.75065539  0.97752795  1
  P  P252  1  0.70663054  0.08430275  0.22838814  1
  P  P253  1  0.70770528  0.08520262  0.47760862  1
  P  P254  1  0.70714916  0.08316598  0.72766069  1
  P  P255  1  0.70693274  0.08547379  0.97729665  1
  P  P256  1  0.70833243  0.41563192  0.22751088  1
  P  P257  1  0.70786816  0.41855947  0.47741610  1
  P  P258  1  0.70726561  0.41714169  0.72955527  1
  P  P259  1  0.70861387  0.41716669  0.97677008  1
  P  P260  1  0.70810656  0.74799058  0.22726595  1
  P  P261  1  0.70701884  0.75072827  0.47817986  1
  P  P262  1  0.70672354  0.74978940  0.72869715  1
  P  P263  1  0.70783132  0.74860423  0.97761862  1
  P  P264  1  0.29180715  0.25120259  0.02225879  1
  P  P265  1  0.29116536  0.24932086  0.27309871  1
  P  P266  1  0.29213922  0.24943066  0.52082179  1
  P  P267  1  0.29196043  0.25103758  0.77317423  1
  P  P268  1  0.29181921  0.58285267  0.02324626  1
  P  P269  1  0.29352293  0.58238681  0.27083135  1
  P  P270  1  0.29210021  0.58410519  0.52253675  1
  P  P271  1  0.29226726  0.58211012  0.77248710  1
  P  P272  1  0.29176189  0.91809482  0.02187727  1
  P  P273  1  0.29227223  0.91470088  0.27255322  1
  P  P274  1  0.29184448  0.91468218  0.52240119  1
  P  P275  1  0.29084750  0.91565136  0.77326887  1
  P  P276  1  0.79164702  0.25220994  0.02150645  1
  P  P277  1  0.79240616  0.24920299  0.27227479  1
  P  P278  1  0.79257557  0.25062187  0.52167904  1
  P  P279  1  0.79101267  0.25027682  0.77386284  1
  P  P280  1  0.79266522  0.58458303  0.02157741  1
  P  P281  1  0.79328433  0.58177281  0.27218492  1
  P  P282  1  0.79301450  0.58318119  0.52164431  1
  P  P283  1  0.79183375  0.58356092  0.77396776  1
  P  P284  1  0.79273458  0.91721097  0.02138807  1
  P  P285  1  0.79334660  0.91673947  0.27141972  1
  P  P286  1  0.79218223  0.91908466  0.52263549  1
  P  P287  1  0.79286064  0.91776432  0.77125488  1
  O  O288  1  0.03671416  0.24997328  0.18137327  1
  O  O289  1  0.03718700  0.24997376  0.43097138  1
  O  O290  1  0.03665266  0.24857904  0.68290531  1
  O  O291  1  0.03585784  0.24954937  0.93203375  1
  O  O292  1  0.03859531  0.58288886  0.18304009  1
  O  O293  1  0.03779853  0.58324601  0.43407076  1
  O  O294  1  0.03663611  0.58302044  0.68163503  1
  O  O295  1  0.03824140  0.58312019  0.93300386  1
  O  O296  1  0.03706030  0.91788864  0.18112233  1
  O  O297  1  0.03771568  0.91672210  0.43355872  1
  O  O298  1  0.03689390  0.91542710  0.68257052  1
  O  O299  1  0.03615401  0.91580743  0.93273480  1
  O  O300  1  0.53679900  0.25120410  0.18311964  1
  O  O301  1  0.53604386  0.25098131  0.43390594  1
  O  O302  1  0.53596028  0.25039115  0.68186966  1
  O  O303  1  0.53666531  0.25169042  0.93231665  1
  O  O304  1  0.53836915  0.58304553  0.18352461  1
  O  O305  1  0.53734191  0.58333043  0.43448665  1
  O  O306  1  0.53560718  0.58219339  0.68211139  1
  O  O307  1  0.53673197  0.58237756  0.93257378  1
  O  O308  1  0.53663141  0.91577721  0.18312949  1
  O  O309  1  0.53623061  0.91780170  0.43173297  1
  O  O310  1  0.53651864  0.91896382  0.68231715  1
  O  O311  1  0.53678904  0.91697859  0.93227505  1
  O  O312  1  0.46217184  0.08251952  0.06805697  1
  O  O313  1  0.46354734  0.08295816  0.31809752  1
  O  O314  1  0.46286388  0.08234695  0.56674415  1
  O  O315  1  0.46154679  0.08350985  0.81656690  1
  O  O316  1  0.46333871  0.41435202  0.06825035  1
  O  O317  1  0.46338484  0.41589430  0.31911678  1
  O  O318  1  0.46361415  0.41667146  0.56812615  1
  O  O319  1  0.46334954  0.41560448  0.81735674  1
  O  O320  1  0.46355672  0.75171275  0.06751692  1
  O  O321  1  0.46347875  0.74984406  0.31754533  1
  O  O322  1  0.46236704  0.74903921  0.56622974  1
  O  O323  1  0.46237609  0.75125554  0.81772345  1
  O  O324  1  0.96352387  0.08480476  0.06642904  1
  O  O325  1  0.96365176  0.08580407  0.31705840  1
  O  O326  1  0.96296803  0.08497773  0.56749540  1
  O  O327  1  0.96329244  0.08373032  0.81810154  1
  O  O328  1  0.96361144  0.41453957  0.06690457  1
  O  O329  1  0.96370548  0.41679213  0.31727430  1
  O  O330  1  0.96306725  0.41578903  0.56741575  1
  O  O331  1  0.96358927  0.41418625  0.81705666  1
  O  O332  1  0.96294702  0.75120582  0.06649588  1
  O  O333  1  0.96347968  0.75002676  0.31892054  1
  O  O334  1  0.96386796  0.75096507  0.56683321  1
  O  O335  1  0.96339351  0.75149294  0.81712634  1
  O  O336  1  0.21299302  0.08163000  0.05789349  1
  O  O337  1  0.21321021  0.08255736  0.30755392  1
  O  O338  1  0.21244183  0.08365420  0.55731243  1
  O  O339  1  0.21248520  0.08205204  0.80894637  1
  O  O340  1  0.21455505  0.41695383  0.05736856  1
  O  O341  1  0.21405815  0.41484821  0.30651753  1
  O  O342  1  0.21222575  0.41569463  0.55689212  1
  O  O343  1  0.21260828  0.41650035  0.80903924  1
  O  O344  1  0.21309107  0.74999960  0.05739686  1
  O  O345  1  0.21317440  0.74909032  0.30701553  1
  O  O346  1  0.21385471  0.75050228  0.55787467  1
  O  O347  1  0.21350397  0.74990173  0.80664976  1
  O  O348  1  0.71185915  0.08522693  0.05727832  1
  O  O349  1  0.71198384  0.08478047  0.30833061  1
  O  O350  1  0.71293296  0.08420348  0.55756437  1
  O  O351  1  0.71221071  0.08399273  0.80760017  1
  O  O352  1  0.71359472  0.41650353  0.05673609  1
  O  O353  1  0.71371044  0.41646574  0.30739751  1
  O  O354  1  0.71256920  0.41827800  0.55741183  1
  O  O355  1  0.71240992  0.41717398  0.80946498  1
  O  O356  1  0.71329118  0.74819909  0.05756307  1
  O  O357  1  0.71325673  0.74854236  0.30724536  1
  O  O358  1  0.71169061  0.75100757  0.55820798  1
  O  O359  1  0.71207994  0.74923232  0.80866705  1
  O  O360  1  0.28654436  0.24953801  0.19305318  1
  O  O361  1  0.28661878  0.24931843  0.44089501  1
  O  O362  1  0.28701041  0.25063474  0.69318995  1
  O  O363  1  0.28657042  0.25155137  0.94235703  1
  O  O364  1  0.28816801  0.58221489  0.19094238  1
  O  O365  1  0.28753202  0.58378358  0.44254953  1
  O  O366  1  0.28680973  0.58292826  0.69259183  1
  O  O367  1  0.28640515  0.58243934  0.94327248  1
  O  O368  1  0.28710063  0.91552710  0.19263432  1
  O  O369  1  0.28690306  0.91456840  0.44244533  1
  O  O370  1  0.28562183  0.91512114  0.69330831  1
  O  O371  1  0.28628897  0.91807978  0.94201604  1
  O  O372  1  0.78710131  0.24991906  0.19238009  1
  O  O373  1  0.78750483  0.25006631  0.44175514  1
  O  O374  1  0.78644714  0.25047341  0.69387209  1
  O  O375  1  0.78615553  0.25176789  0.94165197  1
  O  O376  1  0.78797936  0.58243141  0.19220693  1
  O  O377  1  0.78823623  0.58242891  0.44166309  1
  O  O378  1  0.78699317  0.58372267  0.69394719  1
  O  O379  1  0.78701668  0.58450466  0.94172262  1
  O  O380  1  0.78836184  0.91648141  0.19144161  1
  O  O381  1  0.78729014  0.91865834  0.44261841  1
  O  O382  1  0.78746675  0.91843799  0.69130869  1
  O  O383  1  0.78758918  0.91728037  0.94141700  1
  O  O384  1  0.22764064  0.25066401  0.05801341  1
  O  O385  1  0.22690063  0.24933574  0.30869151  1
  O  O386  1  0.22793551  0.24950584  0.55658553  1
  O  O387  1  0.22766056  0.25099028  0.80858358  1
  O  O388  1  0.22782666  0.58290124  0.05960529  1
  O  O389  1  0.22928803  0.58238701  0.30647430  1
  O  O390  1  0.22771183  0.58471626  0.55779825  1
  O  O391  1  0.22808897  0.58149353  0.80846017  1
  O  O392  1  0.22763905  0.91801782  0.05811144  1
  O  O393  1  0.22800005  0.91438197  0.30824273  1
  O  O394  1  0.22752494  0.91439939  0.55794075  1
  O  O395  1  0.22678873  0.91543059  0.80949052  1
  O  O396  1  0.72751111  0.25275483  0.05767032  1
  O  O397  1  0.72817665  0.24896215  0.30816673  1
  O  O398  1  0.72817899  0.25075414  0.55681707  1
  O  O399  1  0.72671570  0.24997388  0.80932494  1
  O  O400  1  0.72860573  0.58467213  0.05794348  1
  O  O401  1  0.72898871  0.58124720  0.30792017  1
  O  O402  1  0.72845912  0.58354092  0.55644674  1
  O  O403  1  0.72752586  0.58303012  0.80951865  1
  O  O404  1  0.72834374  0.91662805  0.05649021  1
  O  O405  1  0.72879660  0.91708820  0.30617986  1
  O  O406  1  0.72776525  0.91951630  0.55797799  1
  O  O407  1  0.72852430  0.91747513  0.80650953  1
  O  O408  1  0.27203107  0.08140336  0.19178297  1
  O  O409  1  0.27190703  0.08384943  0.44191730  1
  O  O410  1  0.27128602  0.08227641  0.69341299  1
  O  O411  1  0.27184831  0.08197888  0.94211005  1
  O  O412  1  0.27338654  0.41629177  0.19074191  1
  O  O413  1  0.27212103  0.41426717  0.44189384  1
  O  O414  1  0.27147721  0.41686035  0.69338769  1
  O  O415  1  0.27287153  0.41732841  0.94076641  1
  O  O416  1  0.27207969  0.74822835  0.19133849  1
  O  O417  1  0.27254942  0.75116006  0.44173462  1
  O  O418  1  0.27275594  0.74932163  0.69080460  1
  O  O419  1  0.27213457  0.75112979  0.94174263  1
  O  O420  1  0.77095731  0.08434014  0.19306120  1
  O  O421  1  0.77199276  0.08597406  0.44185490  1
  O  O422  1  0.77155133  0.08254196  0.69220479  1
  O  O423  1  0.77141237  0.08601330  0.94218376  1
  O  O424  1  0.77250869  0.41540131  0.19151467  1
  O  O425  1  0.77231545  0.41832444  0.44218553  1
  O  O426  1  0.77165354  0.41713756  0.69420490  1
  O  O427  1  0.77271401  0.41783668  0.94074363  1
  O  O428  1  0.77244054  0.74771131  0.19171328  1
  O  O429  1  0.77162482  0.75042432  0.44360352  1
  O  O430  1  0.77108615  0.75053473  0.69347930  1
  O  O431  1  0.77205841  0.74871214  0.94180847  1
  O  O432  1  0.02239301  0.08577270  0.18245829  1
  O  O433  1  0.02236991  0.08524374  0.43306179  1
  O  O434  1  0.02185133  0.08497784  0.68336060  1
  O  O435  1  0.02272950  0.08420292  0.93397927  1
  O  O436  1  0.02281653  0.41476380  0.18251440  1
  O  O437  1  0.02257346  0.41764927  0.43314001  1
  O  O438  1  0.02180969  0.41437976  0.68319280  1
  O  O439  1  0.02266004  0.41404102  0.93281341  1
  O  O440  1  0.02210485  0.75070048  0.18179364  1
  O  O441  1  0.02314114  0.75061623  0.43449334  1
  O  O442  1  0.02237039  0.75171164  0.68304578  1
  O  O443  1  0.02238966  0.75175567  0.93281456  1
  O  O444  1  0.52150770  0.08235827  0.18347571  1
  O  O445  1  0.52258337  0.08292384  0.43425157  1
  O  O446  1  0.52128657  0.08215731  0.68303069  1
  O  O447  1  0.52092730  0.08369617  0.93181416  1
  O  O448  1  0.52244084  0.41426533  0.18399809  1
  O  O449  1  0.52248882  0.41639521  0.43513913  1
  O  O450  1  0.52226489  0.41672086  0.68460323  1
  O  O451  1  0.52229168  0.41457856  0.93333905  1
  O  O452  1  0.52242195  0.75189109  0.18339181  1
  O  O453  1  0.52219252  0.74875096  0.43348061  1
  O  O454  1  0.52105315  0.74996473  0.68180365  1
  O  O455  1  0.52184241  0.75174145  0.93314595  1
  O  O456  1  0.47761136  0.25173404  0.06746159  1
  O  O457  1  0.47742569  0.25132439  0.31770491  1
  O  O458  1  0.47699267  0.25072388  0.56581334  1
  O  O459  1  0.47730658  0.25181014  0.81672266  1
  O  O460  1  0.47867201  0.58301180  0.06865967  1
  O  O461  1  0.47872257  0.58324763  0.31863291  1
  O  O462  1  0.47693543  0.58295842  0.56577952  1
  O  O463  1  0.47725813  0.58142566  0.81713364  1
  O  O464  1  0.47792260  0.91489859  0.06707213  1
  O  O465  1  0.47704585  0.91672290  0.31574840  1
  O  O466  1  0.47759762  0.91828297  0.56663185  1
  O  O467  1  0.47752125  0.91880481  0.81659871  1
  O  O468  1  0.97765088  0.24974858  0.06526939  1
  O  O469  1  0.97771718  0.25016460  0.31503860  1
  O  O470  1  0.97824174  0.24843907  0.56669986  1
  O  O471  1  0.97701660  0.24942063  0.81564738  1
  O  O472  1  0.97919592  0.58282730  0.06798692  1
  O  O473  1  0.97911951  0.58311913  0.31827404  1
  O  O474  1  0.97739892  0.58225113  0.56567915  1
  O  O475  1  0.97874116  0.58315491  0.81808845  1
  O  O476  1  0.97716456  0.91672565  0.06556832  1
  O  O477  1  0.97873193  0.91792263  0.31817945  1
  O  O478  1  0.97808473  0.91565067  0.56671575  1
  O  O479  1  0.97781677  0.91518199  0.81628958  1
  O  O480  1  0.07268726  0.31341293  0.07289795  1
  O  O481  1  0.07249724  0.31388420  0.32270548  1
  O  O482  1  0.07369769  0.31178609  0.57492670  1
  O  O483  1  0.07207739  0.31278581  0.82353073  1
  O  O484  1  0.07460476  0.64631321  0.07494351  1
  O  O485  1  0.07430351  0.64695383  0.32585788  1
  O  O486  1  0.07180551  0.64677814  0.57350695  1
  O  O487  1  0.07423232  0.64651392  0.82483494  1
  O  O488  1  0.07155403  0.98118067  0.07230899  1
  O  O489  1  0.07443524  0.98052515  0.32567712  1
  O  O490  1  0.07328178  0.97941890  0.57523419  1
  O  O491  1  0.07266714  0.97939011  0.82500260  1
  O  O492  1  0.57322051  0.31437292  0.07438393  1
  O  O493  1  0.57252568  0.31467324  0.32559208  1
  O  O494  1  0.57254530  0.31382080  0.57409804  1
  O  O495  1  0.57270111  0.31476474  0.82340587  1
  O  O496  1  0.57406327  0.64644345  0.07515969  1
  O  O497  1  0.57437119  0.64627410  0.32605027  1
  O  O498  1  0.57176962  0.64672768  0.57454758  1
  O  O499  1  0.57217306  0.64589372  0.82465507  1
  O  O500  1  0.57296333  0.97924884  0.07510608  1
  O  O501  1  0.57193090  0.98075317  0.32311934  1
  O  O502  1  0.57265256  0.98191240  0.57335692  1
  O  O503  1  0.57261039  0.98184078  0.82444426  1
  O  O504  1  0.42662467  0.01863367  0.17648157  1
  O  O505  1  0.42715183  0.01969313  0.42612392  1
  O  O506  1  0.42615657  0.01896042  0.67545220  1
  O  O507  1  0.42536367  0.02037024  0.92494522  1
  O  O508  1  0.42688910  0.35154616  0.17714788  1
  O  O509  1  0.42723947  0.35283611  0.42744022  1
  O  O510  1  0.42739423  0.35281882  0.67612133  1
  O  O511  1  0.42690461  0.35190853  0.92594955  1
  O  O512  1  0.42753761  0.68745366  0.17489383  1
  O  O513  1  0.42718445  0.68552105  0.42560446  1
  O  O514  1  0.42563279  0.68649755  0.67485803  1
  O  O515  1  0.42656430  0.68776508  0.92551296  1
  O  O516  1  0.92744443  0.02151491  0.17473109  1
  O  O517  1  0.92687958  0.02209482  0.42463350  1
  O  O518  1  0.92698664  0.02085023  0.67502261  1
  O  O519  1  0.92839918  0.01975654  0.92643079  1
  O  O520  1  0.92759376  0.35157008  0.17573219  1
  O  O521  1  0.92718545  0.35384459  0.42511570  1
  O  O522  1  0.92658710  0.35148539  0.67542602  1
  O  O523  1  0.92717574  0.35123344  0.92569738  1
  O  O524  1  0.92696123  0.68701195  0.17443015  1
  O  O525  1  0.92844717  0.68666020  0.42753225  1
  O  O526  1  0.92726823  0.68755777  0.67472938  1
  O  O527  1  0.92733640  0.68761386  0.92475465  1
  O  O528  1  0.17714244  0.01788874  0.19960258  1
  O  O529  1  0.17659039  0.02002241  0.44979325  1
  O  O530  1  0.17553786  0.01938061  0.70053327  1
  O  O531  1  0.17683603  0.01845261  0.94899080  1
  O  O532  1  0.17873399  0.35187585  0.19766477  1
  O  O533  1  0.17633041  0.35209891  0.44832674  1
  O  O534  1  0.17635001  0.35287469  0.70067805  1
  O  O535  1  0.17830009  0.35310230  0.94919926  1
  O  O536  1  0.17735393  0.68457510  0.19880886  1
  O  O537  1  0.17750317  0.68703609  0.44986156  1
  O  O538  1  0.17795473  0.68564320  0.69856872  1
  O  O539  1  0.17688692  0.68715852  0.94921469  1
  O  O540  1  0.67588892  0.02048206  0.20037110  1
  O  O541  1  0.67679224  0.02172004  0.44912949  1
  O  O542  1  0.67638574  0.01964860  0.69916590  1
  O  O543  1  0.67618495  0.02170386  0.94941335  1
  O  O544  1  0.67776420  0.35179704  0.19940092  1
  O  O545  1  0.67679146  0.35491567  0.44956167  1
  O  O546  1  0.67628353  0.35376117  0.70071772  1
  O  O547  1  0.67810446  0.35351955  0.94796777  1
  O  O548  1  0.67741047  0.68426488  0.19924439  1
  O  O549  1  0.67599527  0.68727447  0.45004650  1
  O  O550  1  0.67579380  0.68639978  0.70008329  1
  O  O551  1  0.67680098  0.68536127  0.94876338  1
  O  O552  1  0.32252593  0.31456189  0.05129759  1
  O  O553  1  0.32211605  0.31277448  0.30166006  1
  O  O554  1  0.32338711  0.31281978  0.54922683  1
  O  O555  1  0.32251596  0.31473667  0.80148807  1
  O  O556  1  0.32239855  0.64700553  0.05082317  1
  O  O557  1  0.32469821  0.64579507  0.29921395  1
  O  O558  1  0.32305471  0.64747095  0.55105132  1
  O  O559  1  0.32324992  0.64567564  0.80079452  1
  O  O560  1  0.32260889  0.98139179  0.05102134  1
  O  O561  1  0.32340416  0.97806066  0.30105636  1
  O  O562  1  0.32237246  0.97877044  0.55017883  1
  O  O563  1  0.32127524  0.97977251  0.80105420  1
  O  O564  1  0.82271374  0.31555889  0.05023660  1
  O  O565  1  0.82367980  0.31262719  0.30036930  1
  O  O566  1  0.82344826  0.31436996  0.54962226  1
  O  O567  1  0.82147396  0.31408059  0.80231458  1
  O  O568  1  0.82375838  0.64774789  0.05053182  1
  O  O569  1  0.82428394  0.64528613  0.30052703  1
  O  O570  1  0.82377077  0.64699814  0.54964076  1
  O  O571  1  0.82229780  0.64750408  0.80199177  1
  O  O572  1  0.82322951  0.98106475  0.04942412  1
  O  O573  1  0.82448995  0.98026013  0.29939007  1
  O  O574  1  0.82298851  0.98272979  0.55073641  1
  O  O575  1  0.82419583  0.98091690  0.79989377  1
  O  O576  1  0.42601917  0.14586865  0.17582567  1
  O  O577  1  0.42824309  0.14712837  0.42638301  1
  O  O578  1  0.42595476  0.14591984  0.67439655  1
  O  O579  1  0.42567743  0.14721977  0.92487037  1
  O  O580  1  0.42757361  0.47863722  0.17571455  1
  O  O581  1  0.42758847  0.48009350  0.42708645  1
  O  O582  1  0.42720502  0.48010216  0.67646118  1
  O  O583  1  0.42721412  0.47877104  0.92574477  1
  O  O584  1  0.42684521  0.81452922  0.17634952  1
  O  O585  1  0.42690723  0.81270691  0.42546763  1
  O  O586  1  0.42576241  0.81336030  0.67372217  1
  O  O587  1  0.42677523  0.81511411  0.92612006  1
  O  O588  1  0.92694344  0.14849936  0.17480122  1
  O  O589  1  0.92754244  0.14916050  0.42577248  1
  O  O590  1  0.92640903  0.14788180  0.67635718  1
  O  O591  1  0.92719519  0.14712806  0.92627998  1
  O  O592  1  0.92758374  0.47869269  0.17446475  1
  O  O593  1  0.92760740  0.48089425  0.42568363  1
  O  O594  1  0.92654115  0.47859984  0.67566299  1
  O  O595  1  0.92776602  0.47837815  0.92460008  1
  O  O596  1  0.92647102  0.81402007  0.17499833  1
  O  O597  1  0.92790232  0.81422880  0.42660835  1
  O  O598  1  0.92698407  0.81457837  0.67520931  1
  O  O599  1  0.92698247  0.81477480  0.92571329  1
  O  O600  1  0.07287933  0.18639283  0.07293348  1
  O  O601  1  0.07281286  0.18658311  0.32242407  1
  O  O602  1  0.07319417  0.18491826  0.57429189  1
  O  O603  1  0.07195220  0.18553202  0.82408359  1
  O  O604  1  0.07457067  0.51925399  0.07509144  1
  O  O605  1  0.07481611  0.52019361  0.32563618  1
  O  O606  1  0.07268888  0.51909604  0.57391414  1
  O  O607  1  0.07410761  0.51950389  0.82499071  1
  O  O608  1  0.07257245  0.85366622  0.07328486  1
  O  O609  1  0.07383754  0.85363513  0.32504301  1
  O  O610  1  0.07330104  0.85227928  0.57389087  1
  O  O611  1  0.07308061  0.85236077  0.82426842  1
  O  O612  1  0.57244779  0.18727293  0.07520127  1
  O  O613  1  0.57269685  0.18776053  0.32572870  1
  O  O614  1  0.57130900  0.18640408  0.57348909  1
  O  O615  1  0.57236866  0.18780203  0.82443364  1
  O  O616  1  0.57404924  0.51938281  0.07553329  1
  O  O617  1  0.57386357  0.51956025  0.32635270  1
  O  O618  1  0.57203483  0.51926551  0.57379779  1
  O  O619  1  0.57261261  0.51862023  0.82427597  1
  O  O620  1  0.57339338  0.85231901  0.07441557  1
  O  O621  1  0.57219785  0.85331581  0.32416253  1
  O  O622  1  0.57306275  0.85489134  0.57497288  1
  O  O623  1  0.57287322  0.85461309  0.82381345  1
  O  O624  1  0.32318432  0.18753258  0.04976090  1
  O  O625  1  0.32168924  0.18533135  0.30122092  1
  O  O626  1  0.32333707  0.18611882  0.54946098  1
  O  O627  1  0.32321332  0.18747063  0.80092670  1
  O  O628  1  0.32308428  0.51947377  0.05146994  1
  O  O629  1  0.32471336  0.51907383  0.29961186  1
  O  O630  1  0.32262341  0.52017501  0.55044027  1
  O  O631  1  0.32328485  0.51867331  0.80080876  1
  O  O632  1  0.32303135  0.85445242  0.04965983  1
  O  O633  1  0.32289676  0.85091247  0.30057086  1
  O  O634  1  0.32305566  0.85167969  0.55142067  1
  O  O635  1  0.32215712  0.85232563  0.80169408  1
  O  O636  1  0.82262591  0.18860121  0.04974715  1
  O  O637  1  0.82301704  0.18553715  0.30064788  1
  O  O638  1  0.82386271  0.18754024  0.55049568  1
  O  O639  1  0.82190345  0.18658968  0.80186547  1
  O  O640  1  0.82379714  0.52078903  0.04929531  1
  O  O641  1  0.82403663  0.51801376  0.30021100  1
  O  O642  1  0.82411440  0.52013386  0.55077474  1
  O  O643  1  0.82291309  0.51997929  0.80196270  1
  O  O644  1  0.82418762  0.85387681  0.04919165  1
  O  O645  1  0.82411228  0.85320669  0.29994274  1
  O  O646  1  0.82294296  0.85534787  0.55066450  1
  O  O647  1  0.82387677  0.85402463  0.79892646  1
  O  O648  1  0.17658422  0.14503973  0.19917309  1
  O  O649  1  0.17685488  0.14722544  0.44849213  1
  O  O650  1  0.17635692  0.14636212  0.70126460  1
  O  O651  1  0.17654196  0.14556869  0.95057847  1
  O  O652  1  0.17797212  0.47917433  0.19873352  1
  O  O653  1  0.17745367  0.47934561  0.44880600  1
  O  O654  1  0.17570859  0.47956930  0.70053507  1
  O  O655  1  0.17763046  0.48038440  0.94925411  1
  O  O656  1  0.17640758  0.81171636  0.19898527  1
  O  O657  1  0.17734835  0.81399645  0.44912828  1
  O  O658  1  0.17760903  0.81303201  0.69819555  1
  O  O659  1  0.17706640  0.81423345  0.94918361  1
  O  O660  1  0.67505713  0.14737755  0.20002437  1
  O  O661  1  0.67683840  0.14890250  0.44967031  1
  O  O662  1  0.67619116  0.14676382  0.69939979  1
  O  O663  1  0.67605346  0.14901594  0.94896388  1
  O  O664  1  0.67692427  0.47885947  0.19913814  1
  O  O665  1  0.67749300  0.48210033  0.44864257  1
  O  O666  1  0.67611631  0.48048101  0.70095934  1
  O  O667  1  0.67746024  0.48090230  0.94921539  1
  O  O668  1  0.67715647  0.81167413  0.19933511  1
  O  O669  1  0.67627526  0.81433372  0.44978211  1
  O  O670  1  0.67531623  0.81329831  0.70098065  1
  O  O671  1  0.67682236  0.81248578  0.95011886  1
