# generated using pymatgen
data_Na2MnFe(PO4)2
_symmetry_space_group_name_H-M   'P 1'
_cell_length_a   22.34653313
_cell_length_b   20.09669739
_cell_length_c   19.44714120
_cell_angle_alpha   89.97227049
_cell_angle_beta   90.01635290
_cell_angle_gamma   90.01562268
_symmetry_Int_Tables_number   1
_chemical_formula_structural   Na2MnFe(PO4)2
_chemical_formula_sum   'Na96 Mn48 Fe48 P96 O384'
_cell_volume   8733.54438337
_cell_formula_units_Z   48
loop_
 _symmetry_equiv_pos_site_id
 _symmetry_equiv_pos_as_xyz
  1  'x, y, z'
loop_
 _atom_site_type_symbol
 _atom_site_label
 _atom_site_symmetry_multiplicity
 _atom_site_fract_x
 _atom_site_fract_y
 _atom_site_fract_z
 _atom_site_occupancy
  Na  Na0  1  0.14040040  0.25129087  0.24456903  1
  Na  Na1  1  0.14030621  0.25057994  0.49286853  1
  Na  Na2  1  0.14096256  0.24856495  0.74416496  1
  Na  Na3  1  0.14097437  0.25022040  0.99356124  1
  Na  Na4  1  0.14064468  0.58508931  0.24309501  1
  Na  Na5  1  0.14081279  0.58313600  0.49353408  1
  Na  Na6  1  0.14027231  0.58301927  0.74543671  1
  Na  Na7  1  0.13980811  0.58449069  0.99439066  1
  Na  Na8  1  0.14022623  0.91554891  0.24292322  1
  Na  Na9  1  0.14057161  0.91629262  0.49364325  1
  Na  Na10  1  0.14016813  0.91578803  0.74488900  1
  Na  Na11  1  0.14027954  0.91656883  0.99313529  1
  Na  Na12  1  0.63991087  0.24807790  0.24403355  1
  Na  Na13  1  0.63992470  0.25005954  0.49231261  1
  Na  Na14  1  0.64014607  0.24982454  0.74311260  1
  Na  Na15  1  0.64033787  0.25108850  0.99328525  1
  Na  Na16  1  0.64048825  0.58185763  0.24392511  1
  Na  Na17  1  0.64051203  0.58370745  0.49368134  1
  Na  Na18  1  0.63996460  0.58421672  0.74385566  1
  Na  Na19  1  0.63994600  0.58328557  0.99273156  1
  Na  Na20  1  0.63991461  0.91634870  0.24333383  1
  Na  Na21  1  0.63993560  0.91813128  0.49393375  1
  Na  Na22  1  0.64037013  0.91763777  0.74271418  1
  Na  Na23  1  0.63993835  0.91819701  0.99334872  1
  Na  Na24  1  0.36041793  0.08224275  0.00659939  1
  Na  Na25  1  0.36018202  0.08391901  0.25685162  1
  Na  Na26  1  0.35990429  0.08385147  0.50587544  1
  Na  Na27  1  0.35916645  0.08199085  0.75679758  1
  Na  Na28  1  0.35989759  0.41836682  0.00605037  1
  Na  Na29  1  0.35919054  0.41719431  0.25683467  1
  Na  Na30  1  0.36018193  0.41575182  0.50638154  1
  Na  Na31  1  0.36043335  0.41582230  0.75725810  1
  Na  Na32  1  0.35968457  0.74991819  0.00677720  1
  Na  Na33  1  0.36033803  0.75011694  0.25588199  1
  Na  Na34  1  0.35996407  0.75020399  0.50576942  1
  Na  Na35  1  0.36004753  0.75008552  0.75762745  1
  Na  Na36  1  0.85957255  0.08402232  0.00604019  1
  Na  Na37  1  0.85919714  0.08222893  0.25605751  1
  Na  Na38  1  0.85893351  0.08301414  0.50612628  1
  Na  Na39  1  0.85941987  0.08318620  0.75486963  1
  Na  Na40  1  0.85929368  0.41730961  0.00630140  1
  Na  Na41  1  0.85919759  0.41457150  0.25688044  1
  Na  Na42  1  0.85963835  0.41540475  0.50546264  1
  Na  Na43  1  0.85938925  0.41694254  0.75671236  1
  Na  Na44  1  0.85961571  0.75004112  0.00694632  1
  Na  Na45  1  0.86030323  0.74902959  0.25707343  1
  Na  Na46  1  0.86020317  0.75123823  0.50620219  1
  Na  Na47  1  0.85978273  0.75053830  0.75648760  1
  Na  Na48  1  0.10945652  0.08253310  0.11816722  1
  Na  Na49  1  0.10936589  0.08374378  0.36846287  1
  Na  Na50  1  0.10990526  0.08263386  0.61847240  1
  Na  Na51  1  0.11012236  0.08158388  0.86829942  1
  Na  Na52  1  0.10973781  0.41781144  0.11920943  1
  Na  Na53  1  0.10955638  0.41690452  0.36858872  1
  Na  Na54  1  0.10962876  0.41731896  0.61920140  1
  Na  Na55  1  0.10973969  0.41779493  0.86986290  1
  Na  Na56  1  0.10947872  0.75016652  0.11817909  1
  Na  Na57  1  0.11015445  0.74936847  0.36861224  1
  Na  Na58  1  0.10979875  0.75022956  0.61944575  1
  Na  Na59  1  0.10962144  0.75023802  0.87069781  1
  Na  Na60  1  0.60962541  0.08289523  0.11884644  1
  Na  Na61  1  0.60939765  0.08272365  0.36867391  1
  Na  Na62  1  0.60953228  0.08440464  0.61725910  1
  Na  Na63  1  0.60990113  0.08432105  0.86819844  1
  Na  Na64  1  0.60970964  0.41555881  0.11872168  1
  Na  Na65  1  0.61000671  0.41533779  0.36789866  1
  Na  Na66  1  0.60947406  0.41621225  0.61880069  1
  Na  Na67  1  0.60911263  0.41794556  0.86811069  1
  Na  Na68  1  0.60941658  0.74975881  0.11914560  1
  Na  Na69  1  0.60959602  0.75129956  0.36811582  1
  Na  Na70  1  0.60951314  0.75137674  0.61939278  1
  Na  Na71  1  0.60945024  0.74939105  0.86740791  1
  Na  Na72  1  0.39049060  0.24874530  0.13146904  1
  Na  Na73  1  0.39026145  0.24899315  0.38214864  1
  Na  Na74  1  0.39045680  0.25052723  0.63053061  1
  Na  Na75  1  0.39102434  0.24996293  0.88187851  1
  Na  Na76  1  0.39013780  0.58352390  0.13189905  1
  Na  Na77  1  0.39047953  0.58403385  0.38074984  1
  Na  Na78  1  0.39130601  0.58344571  0.63220793  1
  Na  Na79  1  0.39050213  0.58319385  0.88162182  1
  Na  Na80  1  0.39086195  0.91681520  0.13154293  1
  Na  Na81  1  0.39072025  0.91759295  0.38061466  1
  Na  Na82  1  0.39008602  0.91736850  0.63202115  1
  Na  Na83  1  0.39019775  0.91692958  0.88190017  1
  Na  Na84  1  0.89017157  0.25010805  0.13133274  1
  Na  Na85  1  0.88963563  0.25011657  0.38133190  1
  Na  Na86  1  0.88999293  0.25005839  0.63011417  1
  Na  Na87  1  0.89032254  0.24957839  0.88124320  1
  Na  Na88  1  0.89031627  0.58312135  0.13099928  1
  Na  Na89  1  0.89083752  0.58339473  0.38169571  1
  Na  Na90  1  0.89079778  0.58485234  0.63083691  1
  Na  Na91  1  0.88980957  0.58423193  0.88270182  1
  Na  Na92  1  0.89028432  0.91572255  0.13121414  1
  Na  Na93  1  0.89029641  0.91458071  0.38120740  1
  Na  Na94  1  0.88994912  0.91604704  0.63078091  1
  Na  Na95  1  0.89045266  0.91579070  0.88122893  1
  Mn  Mn96  1  0.25064775  0.66607396  0.62597932  1
  Mn  Mn97  1  0.25064911  0.49912676  0.62448309  1
  Mn  Mn98  1  0.49938492  0.16755149  0.74933450  1
  Mn  Mn99  1  0.24996375  0.33345253  0.87535125  1
  Mn  Mn100  1  0.49949699  0.49977425  0.25011754  1
  Mn  Mn101  1  0.49973715  0.66605128  -0.00077528  1
  Mn  Mn102  1  0.74971418  0.66653130  0.37524435  1
  Mn  Mn103  1  0.75020991  0.00152482  0.87366434  1
  Mn  Mn104  1  0.49989661  0.66737453  0.50062315  1
  Mn  Mn105  1  0.74992648  0.66601036  0.12563402  1
  Mn  Mn106  1  -0.00008953  0.33389602  0.75035820  1
  Mn  Mn107  1  0.75068692  0.66769637  0.62414691  1
  Mn  Mn108  1  0.50114339  0.49937183  0.50029480  1
  Mn  Mn109  1  0.00005190  0.50058202  0.49988369  1
  Mn  Mn110  1  0.75016748  0.33345780  0.87464727  1
  Mn  Mn111  1  0.25061098  0.83283228  0.37469593  1
  Mn  Mn112  1  -0.00014374  0.50025175  0.25050644  1
  Mn  Mn113  1  0.00037462  0.66797365  0.75133651  1
  Mn  Mn114  1  0.49987124  0.83385706  0.00006984  1
  Mn  Mn115  1  0.75001250  -0.00060516  0.37555842  1
  Mn  Mn116  1  0.25056710  0.50062721  0.37503362  1
  Mn  Mn117  1  0.75004853  0.49885111  0.12462120  1
  Mn  Mn118  1  0.74989685  0.16671814  0.12514537  1
  Mn  Mn119  1  0.24945034  -0.00049286  0.12520092  1
  Mn  Mn120  1  0.74922990  0.33248557  0.62509936  1
  Mn  Mn121  1  -0.00023118  -0.00145165  0.49899739  1
  Mn  Mn122  1  0.74902021  0.83339267  0.12465594  1
  Mn  Mn123  1  0.24984783  0.33236206  0.62608368  1
  Mn  Mn124  1  0.00016691  0.16634957  0.74977279  1
  Mn  Mn125  1  0.25028894  0.16534508  0.62465290  1
  Mn  Mn126  1  -0.00046690  0.50121049  0.74986780  1
  Mn  Mn127  1  0.75035680  0.50024235  0.62491396  1
  Mn  Mn128  1  0.75021283  0.83362925  0.87481453  1
  Mn  Mn129  1  -0.00070847  0.16695789  0.24914886  1
  Mn  Mn130  1  0.49924190  0.83439110  0.49924028  1
  Mn  Mn131  1  0.25114444  0.33445989  0.12438524  1
  Mn  Mn132  1  -0.00032252  -0.00143601  0.24941992  1
  Mn  Mn133  1  0.00102468  0.16576725  0.00035210  1
  Mn  Mn134  1  0.49963085  0.33327251  0.00012482  1
  Mn  Mn135  1  -0.00016965  -0.00162570  0.74910705  1
  Mn  Mn136  1  0.25021772  0.00062608  0.37427214  1
  Mn  Mn137  1  0.25025076  0.66657822  0.87586093  1
  Mn  Mn138  1  0.00050052  0.33390691  0.00026829  1
  Mn  Mn139  1  -0.00033988  0.16727721  0.49896395  1
  Mn  Mn140  1  0.25007225  0.83369531  0.62548320  1
  Mn  Mn141  1  0.49957198  0.00015173  0.74995709  1
  Mn  Mn142  1  0.49946655  0.33168216  0.24914978  1
  Mn  Mn143  1  0.25005437  0.16677778  0.12501317  1
  Fe  Fe144  1  -0.00016259  0.83292802  0.75048930  1
  Fe  Fe145  1  0.24996291  0.83334484  0.87569477  1
  Fe  Fe146  1  0.00053492  0.83249142  0.24979620  1
  Fe  Fe147  1  0.49985228  0.66689119  0.74988487  1
  Fe  Fe148  1  0.49976776  0.50006062  0.74966518  1
  Fe  Fe149  1  0.50015934  0.16566265  0.25072507  1
  Fe  Fe150  1  0.50046753  0.16623875  0.00035124  1
  Fe  Fe151  1  -0.00047230  0.50033358  0.00081864  1
  Fe  Fe152  1  0.50001904  0.83391907  0.75032131  1
  Fe  Fe153  1  0.74952979  0.00048381  0.62440798  1
  Fe  Fe154  1  0.74971154  0.83385372  0.62524566  1
  Fe  Fe155  1  0.75009121  0.16678775  0.62428031  1
  Fe  Fe156  1  0.25001940  0.50036557  0.87592333  1
  Fe  Fe157  1  0.50005479  0.00013956  0.49964569  1
  Fe  Fe158  1  0.49983478  0.33323132  0.49992310  1
  Fe  Fe159  1  0.50060387  0.33362232  0.74990282  1
  Fe  Fe160  1  0.00002360  0.33389711  0.50011133  1
  Fe  Fe161  1  0.74946617  0.66717608  0.87482716  1
  Fe  Fe162  1  0.24934512  0.16703777  0.37536327  1
  Fe  Fe163  1  0.74970146  0.33237521  0.37512176  1
  Fe  Fe164  1  -0.00003064  0.33367685  0.24974662  1
  Fe  Fe165  1  0.49990072  0.00069897  0.25004654  1
  Fe  Fe166  1  0.25069092  0.83325971  0.12455614  1
  Fe  Fe167  1  0.74966976  0.33276316  0.12530239  1
  Fe  Fe168  1  0.74982782  0.83350966  0.37527616  1
  Fe  Fe169  1  0.74989099  0.16698708  0.87450232  1
  Fe  Fe170  1  0.00046945  0.83247541  0.49988220  1
  Fe  Fe171  1  0.75005061  -0.00019394  0.12517307  1
  Fe  Fe172  1  0.00008888  0.66709287  0.25013103  1
  Fe  Fe173  1  -0.00042738  0.66712707  0.00077370  1
  Fe  Fe174  1  0.74974108  0.50039406  0.87513935  1
  Fe  Fe175  1  0.25039525  -0.00058089  0.87557578  1
  Fe  Fe176  1  0.75011651  0.49901540  0.37457847  1
  Fe  Fe177  1  -0.00030927  0.83282967  0.00063855  1
  Fe  Fe178  1  0.49988481  0.16676160  0.49977251  1
  Fe  Fe179  1  0.25007380  0.33384899  0.37485391  1
  Fe  Fe180  1  0.24965801  0.50109208  0.12588135  1
  Fe  Fe181  1  0.25025260  0.66742259  0.12457607  1
  Fe  Fe182  1  0.24970024  -0.00042242  0.62556465  1
  Fe  Fe183  1  0.49987647  0.50007126  -0.00034078  1
  Fe  Fe184  1  0.00048684  0.66739309  0.50028270  1
  Fe  Fe185  1  0.25051537  0.66698010  0.37432951  1
  Fe  Fe186  1  0.25056029  0.16576474  0.87479450  1
  Fe  Fe187  1  0.50015407  0.83400994  0.24955880  1
  Fe  Fe188  1  -0.00047852  -0.00115749  -0.00044733  1
  Fe  Fe189  1  0.74932394  0.16599712  0.37476468  1
  Fe  Fe190  1  0.50063226  0.00029516  0.00059174  1
  Fe  Fe191  1  0.50083549  0.66655026  0.24989803  1
  P  P192  1  0.04317422  0.25044827  0.10360143  1
  P  P193  1  0.04145174  0.25162748  0.35238304  1
  P  P194  1  0.04247138  0.25134346  0.60206828  1
  P  P195  1  0.04322161  0.24982936  0.85328743  1
  P  P196  1  0.04082382  0.58381124  0.10234478  1
  P  P197  1  0.04242354  0.58516991  0.35268779  1
  P  P198  1  0.04286773  0.58522479  0.60244833  1
  P  P199  1  0.04219947  0.58381888  0.85479560  1
  P  P200  1  0.04148565  0.91580936  0.10164214  1
  P  P201  1  0.04245273  0.91428082  0.35239925  1
  P  P202  1  0.04224048  0.91449389  0.60244941  1
  P  P203  1  0.04168961  0.91471233  0.85343278  1
  P  P204  1  0.54214097  0.24792995  0.10269160  1
  P  P205  1  0.54168726  0.24823195  0.35314527  1
  P  P206  1  0.54137723  0.25055948  0.60138748  1
  P  P207  1  0.54206129  0.25121638  0.85253132  1
  P  P208  1  0.54204648  0.58217886  0.10244557  1
  P  P209  1  0.54263705  0.58429884  0.35243939  1
  P  P210  1  0.54283972  0.58355026  0.60416294  1
  P  P211  1  0.54095696  0.58308694  0.85143845  1
  P  P212  1  0.54206388  0.91812205  0.10342280  1
  P  P213  1  0.54119669  0.91760497  0.35143419  1
  P  P214  1  0.54162368  0.91784682  0.60253272  1
  P  P215  1  0.54253820  0.91616739  0.85259867  1
  P  P216  1  0.45852525  0.08343130  0.14799382  1
  P  P217  1  0.45892852  0.08314199  0.39786705  1
  P  P218  1  0.45721007  0.08370789  0.64600299  1
  P  P219  1  0.45903753  0.08317363  0.89868449  1
  P  P220  1  0.45679264  0.41635018  0.14647945  1
  P  P221  1  0.45792353  0.41529716  0.39760405  1
  P  P222  1  0.45875170  0.41615020  0.64811445  1
  P  P223  1  0.45813771  0.41815471  0.89670873  1
  P  P224  1  0.45915448  0.74981122  0.14844428  1
  P  P225  1  0.45774810  0.75028630  0.39570755  1
  P  P226  1  0.45833107  0.75093596  0.64876242  1
  P  P227  1  0.45730161  0.75040536  0.89613056  1
  P  P228  1  0.95708225  0.08212236  0.14601379  1
  P  P229  1  0.95663656  0.08267017  0.39625658  1
  P  P230  1  0.95724352  0.08291423  0.64616837  1
  P  P231  1  0.95799787  0.08150950  0.89739719  1
  P  P232  1  0.95753641  0.41628114  0.14753500  1
  P  P233  1  0.95795677  0.41564346  0.39719227  1
  P  P234  1  0.95683064  0.41715699  0.64644103  1
  P  P235  1  0.95741852  0.41835835  0.89804981  1
  P  P236  1  0.95839156  0.74988398  0.14790934  1
  P  P237  1  0.95884795  0.74966733  0.39773729  1
  P  P238  1  0.95787891  0.75131485  0.64727650  1
  P  P239  1  0.95822257  0.75050580  0.89894959  1
  P  P240  1  0.20688885  0.08388318  0.22847533  1
  P  P241  1  0.20730175  0.08399989  0.47747788  1
  P  P242  1  0.20788427  0.08138465  0.72843731  1
  P  P243  1  0.20879498  0.08310234  0.97653144  1
  P  P244  1  0.20828009  0.41796364  0.22792671  1
  P  P245  1  0.20791854  0.41567005  0.47716117  1
  P  P246  1  0.20733240  0.41675720  0.72908891  1
  P  P247  1  0.20799603  0.41865900  0.97841708  1
  P  P248  1  0.20906817  0.75020426  0.22627919  1
  P  P249  1  0.20825071  0.74862081  0.47734915  1
  P  P250  1  0.20774112  0.75011803  0.72923056  1
  P  P251  1  0.20835143  0.75135137  0.97864280  1
  P  P252  1  0.70786579  0.08164308  0.22770704  1
  P  P253  1  0.70757925  0.08440761  0.47791475  1
  P  P254  1  0.70818654  0.08433585  0.72595520  1
  P  P255  1  0.70779297  0.08514353  0.97723371  1
  P  P256  1  0.70773077  0.41448117  0.22820482  1
  P  P257  1  0.70838396  0.41626897  0.47632715  1
  P  P258  1  0.70745977  0.41718236  0.72844113  1
  P  P259  1  0.70737312  0.41765765  0.97723205  1
  P  P260  1  0.70731471  0.74986447  0.22884368  1
  P  P261  1  0.70760858  0.75203383  0.47786151  1
  P  P262  1  0.70802726  0.75103608  0.72766808  1
  P  P263  1  0.70722027  0.74933408  0.97714360  1
  P  P264  1  0.29315761  0.24960400  0.02127438  1
  P  P265  1  0.29151585  0.25020213  0.27368612  1
  P  P266  1  0.29232760  0.24988722  0.52121286  1
  P  P267  1  0.29274842  0.24819288  0.77306646  1
  P  P268  1  0.29120854  0.58333917  0.02362808  1
  P  P269  1  0.29220825  0.58516343  0.27154497  1
  P  P270  1  0.29377312  0.58350455  0.52162049  1
  P  P271  1  0.29270768  0.58185357  0.77334442  1
  P  P272  1  0.29231119  0.91552691  0.02193054  1
  P  P273  1  0.29288650  0.91621045  0.27115873  1
  P  P274  1  0.29244899  0.91813451  0.52275579  1
  P  P275  1  0.29129361  0.91644485  0.77372893  1
  P  P276  1  0.79218229  0.25140821  0.02244240  1
  P  P277  1  0.79088338  0.24917126  0.27321091  1
  P  P278  1  0.79142252  0.24863517  0.52136786  1
  P  P279  1  0.79233291  0.24842371  0.77193899  1
  P  P280  1  0.79219165  0.58347861  0.02114516  1
  P  P281  1  0.79248818  0.58129992  0.27279927  1
  P  P282  1  0.79291343  0.58306282  0.52095732  1
  P  P283  1  0.79140378  0.58412957  0.77353009  1
  P  P284  1  0.79185305  0.91816924  0.02242150  1
  P  P285  1  0.79215875  0.91526510  0.27248882  1
  P  P286  1  0.79094299  0.91654190  0.52316124  1
  P  P287  1  0.79248363  0.91713883  0.77069299  1
  O  O288  1  0.03762349  0.25077019  0.18353448  1
  O  O289  1  0.03601876  0.25179873  0.43232949  1
  O  O290  1  0.03736455  0.25080182  0.68207572  1
  O  O291  1  0.03850338  0.24963926  0.93331326  1
  O  O292  1  0.03591770  0.58438971  0.18231990  1
  O  O293  1  0.03735828  0.58540703  0.43263291  1
  O  O294  1  0.03763041  0.58506688  0.68242940  1
  O  O295  1  0.03675626  0.58336023  0.93468611  1
  O  O296  1  0.03670915  0.91528979  0.18164101  1
  O  O297  1  0.03728868  0.91420907  0.43236917  1
  O  O298  1  0.03692061  0.91440280  0.68241821  1
  O  O299  1  0.03611871  0.91539251  0.93329122  1
  O  O300  1  0.53697340  0.24742261  0.18264980  1
  O  O301  1  0.53639424  0.24891567  0.43301188  1
  O  O302  1  0.53659735  0.25083400  0.68138125  1
  O  O303  1  0.53686941  0.25042549  0.93243666  1
  O  O304  1  0.53681115  0.58297477  0.18239946  1
  O  O305  1  0.53768607  0.58408468  0.43243547  1
  O  O306  1  0.53720003  0.58332203  0.68405290  1
  O  O307  1  0.53617267  0.58289417  0.93145501  1
  O  O308  1  0.53647760  0.91811728  0.18327544  1
  O  O309  1  0.53623788  0.91790462  0.43140937  1
  O  O310  1  0.53638077  0.91690007  0.68245717  1
  O  O311  1  0.53770079  0.91672186  0.93256959  1
  O  O312  1  0.46380794  0.08347336  0.06810381  1
  O  O313  1  0.46393363  0.08325340  0.31793729  1
  O  O314  1  0.46253975  0.08336953  0.56614505  1
  O  O315  1  0.46340969  0.08350728  0.81867238  1
  O  O316  1  0.46194054  0.41688556  0.06652898  1
  O  O317  1  0.46275829  0.41536724  0.31763090  1
  O  O318  1  0.46399351  0.41561845  0.56813689  1
  O  O319  1  0.46378531  0.41820249  0.81684000  1
  O  O320  1  0.46370202  0.74994737  0.06842375  1
  O  O321  1  0.46344742  0.75001911  0.31587220  1
  O  O322  1  0.46292777  0.75088652  0.56870498  1
  O  O323  1  0.46241073  0.75053831  0.81622686  1
  O  O324  1  0.96262986  0.08167667  0.06608019  1
  O  O325  1  0.96163627  0.08265305  0.31626330  1
  O  O326  1  0.96225805  0.08304877  0.56620000  1
  O  O327  1  0.96320430  0.08171665  0.81739223  1
  O  O328  1  0.96299900  0.41724668  0.06762046  1
  O  O329  1  0.96333300  0.41555500  0.31724848  1
  O  O330  1  0.96219281  0.41677636  0.56646110  1
  O  O331  1  0.96228795  0.41816790  0.81802630  1
  O  O332  1  0.96343401  0.75003353  0.06800298  1
  O  O333  1  0.96398330  0.74961706  0.31780648  1
  O  O334  1  0.96330785  0.75078727  0.56740651  1
  O  O335  1  0.96288387  0.75067139  0.81898328  1
  O  O336  1  0.21319939  0.08280334  0.05656953  1
  O  O337  1  0.21196027  0.08447444  0.30842900  1
  O  O338  1  0.21246739  0.08307816  0.55743567  1
  O  O339  1  0.21338370  0.08191268  0.80831979  1
  O  O340  1  0.21350867  0.41872011  0.05836521  1
  O  O341  1  0.21379472  0.41714092  0.30786960  1
  O  O342  1  0.21268261  0.41553413  0.55716943  1
  O  O343  1  0.21237769  0.41739288  0.80908398  1
  O  O344  1  0.21381887  0.75141063  0.05851776  1
  O  O345  1  0.21359889  0.74941923  0.30627922  1
  O  O346  1  0.21336367  0.74902421  0.55730782  1
  O  O347  1  0.21300748  0.75058835  0.80918432  1
  O  O348  1  0.71282731  0.08440378  0.05713826  1
  O  O349  1  0.71289486  0.08183934  0.30762550  1
  O  O350  1  0.71294147  0.08433156  0.55776140  1
  O  O351  1  0.71318860  0.08466372  0.80594326  1
  O  O352  1  0.71228043  0.41680899  0.05719560  1
  O  O353  1  0.71330922  0.41498557  0.30808306  1
  O  O354  1  0.71303274  0.41599689  0.55634793  1
  O  O355  1  0.71281972  0.41758404  0.80835251  1
  O  O356  1  0.71203243  0.74931438  0.05717543  1
  O  O357  1  0.71257748  0.75043647  0.30879418  1
  O  O358  1  0.71309859  0.75220739  0.55783495  1
  O  O359  1  0.71332495  0.75014966  0.80763446  1
  O  O360  1  0.28689958  0.25042450  0.19363268  1
  O  O361  1  0.28689525  0.25024447  0.44130006  1
  O  O362  1  0.28744009  0.24830360  0.69308737  1
  O  O363  1  0.28774627  0.24889737  0.94137654  1
  O  O364  1  0.28661821  0.58473389  0.19168522  1
  O  O365  1  0.28882292  0.58411828  0.44160578  1
  O  O366  1  0.28807198  0.58209528  0.69333716  1
  O  O367  1  0.28640911  0.58307378  0.94364017  1
  O  O368  1  0.28755596  0.91584204  0.19122216  1
  O  O369  1  0.28755388  0.91776269  0.44277161  1
  O  O370  1  0.28643330  0.91726429  0.69373237  1
  O  O371  1  0.28694326  0.91562072  0.94201814  1
  O  O372  1  0.78604987  0.25009888  0.19323383  1
  O  O373  1  0.78594587  0.24869212  0.44149998  1
  O  O374  1  0.78696003  0.24842157  0.69198297  1
  O  O375  1  0.78735467  0.25099526  0.94251027  1
  O  O376  1  0.78725821  0.58148629  0.19280697  1
  O  O377  1  0.78725718  0.58229677  0.44107722  1
  O  O378  1  0.78678237  0.58438291  0.69344888  1
  O  O379  1  0.78691760  0.58388970  0.94120920  1
  O  O380  1  0.78689223  0.91589828  0.19257348  1
  O  O381  1  0.78609495  0.91616454  0.44314170  1
  O  O382  1  0.78706914  0.91686220  0.69080013  1
  O  O383  1  0.78697899  0.91817435  0.94245964  1
  O  O384  1  0.22887353  0.25039712  0.05669831  1
  O  O385  1  0.22727347  0.24990759  0.30933547  1
  O  O386  1  0.22815311  0.24944003  0.55703997  1
  O  O387  1  0.22846710  0.24790353  0.80864262  1
  O  O388  1  0.22704782  0.58330454  0.05944418  1
  O  O389  1  0.22816246  0.58516213  0.30792046  1
  O  O390  1  0.22927154  0.58319029  0.55659441  1
  O  O391  1  0.22827924  0.58195972  0.80853962  1
  O  O392  1  0.22810174  0.91491497  0.05788587  1
  O  O393  1  0.22860762  0.91644303  0.30653387  1
  O  O394  1  0.22806679  0.91798957  0.55816159  1
  O  O395  1  0.22720394  0.91605607  0.80968436  1
  O  O396  1  0.72782960  0.25134021  0.05797650  1
  O  O397  1  0.72675211  0.24861025  0.30912060  1
  O  O398  1  0.72729627  0.24811638  0.55758262  1
  O  O399  1  0.72805204  0.24877380  0.80765722  1
  O  O400  1  0.72795606  0.58307201  0.05677680  1
  O  O401  1  0.72818190  0.58126015  0.30831459  1
  O  O402  1  0.72868099  0.58372122  0.55655390  1
  O  O403  1  0.72714607  0.58417001  0.80919669  1
  O  O404  1  0.72747696  0.91843537  0.05780305  1
  O  O405  1  0.72787931  0.91491530  0.30822248  1
  O  O406  1  0.72684586  0.91642343  0.55912827  1
  O  O407  1  0.72830229  0.91720801  0.80647593  1
  O  O408  1  0.27133800  0.08312547  0.19346170  1
  O  O409  1  0.27160015  0.08504587  0.44179565  1
  O  O410  1  0.27203036  0.08101516  0.69225649  1
  O  O411  1  0.27313330  0.08376627  0.94119137  1
  O  O412  1  0.27245822  0.41896875  0.19202903  1
  O  O413  1  0.27232525  0.41587829  0.44201983  1
  O  O414  1  0.27178959  0.41630768  0.69399677  1
  O  O415  1  0.27215109  0.41828193  0.94242764  1
  O  O416  1  0.27334565  0.75082903  0.19072043  1
  O  O417  1  0.27257229  0.74833270  0.44175781  1
  O  O418  1  0.27205947  0.75016352  0.69385866  1
  O  O419  1  0.27239440  0.75138847  0.94242895  1
  O  O420  1  0.77205730  0.08180027  0.19185509  1
  O  O421  1  0.77169023  0.08457988  0.44176655  1
  O  O422  1  0.77229939  0.08438054  0.68994409  1
  O  O423  1  0.77212895  0.08550945  0.94159706  1
  O  O424  1  0.77183637  0.41419212  0.19194731  1
  O  O425  1  0.77260022  0.41687814  0.44070523  1
  O  O426  1  0.77169354  0.41622311  0.69290228  1
  O  O427  1  0.77171343  0.41809160  0.94177216  1
  O  O428  1  0.77156982  0.75017866  0.19337565  1
  O  O429  1  0.77184700  0.75169672  0.44206152  1
  O  O430  1  0.77225236  0.75179348  0.69185553  1
  O  O431  1  0.77168527  0.74885071  0.94206675  1
  O  O432  1  0.02132355  0.08263509  0.18154523  1
  O  O433  1  0.02109596  0.08274630  0.43116618  1
  O  O434  1  0.02163401  0.08262216  0.68130686  1
  O  O435  1  0.02230568  0.08081719  0.93299974  1
  O  O436  1  0.02179632  0.41584843  0.18337493  1
  O  O437  1  0.02212900  0.41572639  0.43321449  1
  O  O438  1  0.02120853  0.41742132  0.68174293  1
  O  O439  1  0.02183168  0.41873706  0.93332994  1
  O  O440  1  0.02256835  0.74995940  0.18413106  1
  O  O441  1  0.02294995  0.74976946  0.43408072  1
  O  O442  1  0.02203423  0.75185591  0.68353122  1
  O  O443  1  0.02239685  0.75074698  0.93479339  1
  O  O444  1  0.52260508  0.08326471  0.18443395  1
  O  O445  1  0.52287808  0.08259103  0.43432798  1
  O  O446  1  0.52144248  0.08372327  0.68173000  1
  O  O447  1  0.52330191  0.08249802  0.93424857  1
  O  O448  1  0.52115553  0.41602169  0.18171596  1
  O  O449  1  0.52236215  0.41464663  0.43290183  1
  O  O450  1  0.52286609  0.41649310  0.68425939  1
  O  O451  1  0.52211234  0.41813025  0.93330177  1
  O  O452  1  0.52329196  0.74942996  0.18423702  1
  O  O453  1  0.52180698  0.75066985  0.43186918  1
  O  O454  1  0.52255386  0.75131640  0.68442174  1
  O  O455  1  0.52155477  0.75024160  0.93175136  1
  O  O456  1  0.47792452  0.24831601  0.06696943  1
  O  O457  1  0.47752979  0.24771454  0.31702945  1
  O  O458  1  0.47722588  0.25101285  0.56545132  1
  O  O459  1  0.47784566  0.25196803  0.81665333  1
  O  O460  1  0.47774856  0.58164587  0.06666260  1
  O  O461  1  0.47830394  0.58498410  0.31694033  1
  O  O462  1  0.47870990  0.58296331  0.56821700  1
  O  O463  1  0.47688720  0.58283104  0.81545046  1
  O  O464  1  0.47801930  0.91862812  0.06699430  1
  O  O465  1  0.47715010  0.91803328  0.31531731  1
  O  O466  1  0.47740837  0.91877959  0.56665969  1
  O  O467  1  0.47806333  0.91562765  0.81733365  1
  O  O468  1  0.97888496  0.24999858  0.06819564  1
  O  O469  1  0.97728387  0.25181426  0.31634393  1
  O  O470  1  0.97806380  0.25179314  0.56667949  1
  O  O471  1  0.97865396  0.24983085  0.81854909  1
  O  O472  1  0.97678664  0.58319561  0.06622313  1
  O  O473  1  0.97812580  0.58501054  0.31703323  1
  O  O474  1  0.97855608  0.58530649  0.56683762  1
  O  O475  1  0.97801260  0.58439796  0.81891328  1
  O  O476  1  0.97720991  0.91612863  0.06589596  1
  O  O477  1  0.97814230  0.91384190  0.31676823  1
  O  O478  1  0.97800296  0.91423847  0.56660558  1
  O  O479  1  0.97762736  0.91429165  0.81702212  1
  O  O480  1  0.07437316  0.31378122  0.07529596  1
  O  O481  1  0.07265886  0.31485270  0.32379329  1
  O  O482  1  0.07331849  0.31495714  0.57391860  1
  O  O483  1  0.07396451  0.31357227  0.82537904  1
  O  O484  1  0.07122524  0.64764555  0.07366598  1
  O  O485  1  0.07334382  0.64826262  0.32336918  1
  O  O486  1  0.07366317  0.64873965  0.57411219  1
  O  O487  1  0.07367490  0.64729830  0.82689210  1
  O  O488  1  0.07226300  0.97960045  0.07352562  1
  O  O489  1  0.07307481  0.97828499  0.32464125  1
  O  O490  1  0.07296473  0.97847762  0.57476349  1
  O  O491  1  0.07281689  0.97814640  0.82488201  1
  O  O492  1  0.57329519  0.31171254  0.07525443  1
  O  O493  1  0.57270117  0.31166941  0.32448509  1
  O  O494  1  0.57289308  0.31372505  0.57297678  1
  O  O495  1  0.57300752  0.31479536  0.82431784  1
  O  O496  1  0.57311327  0.64565183  0.07404493  1
  O  O497  1  0.57381776  0.64756947  0.32401749  1
  O  O498  1  0.57362357  0.64730650  0.57603652  1
  O  O499  1  0.57111790  0.64734231  0.82329277  1
  O  O500  1  0.57325919  0.98131068  0.07453267  1
  O  O501  1  0.57288628  0.98067477  0.32315138  1
  O  O502  1  0.57270942  0.98137839  0.57442847  1
  O  O503  1  0.57343983  0.97973798  0.82419943  1
  O  O504  1  0.42734604  0.01994693  0.17634813  1
  O  O505  1  0.42744269  0.01979172  0.42600732  1
  O  O506  1  0.42590861  0.02058594  0.67500523  1
  O  O507  1  0.42794099  0.01964509  0.92673338  1
  O  O508  1  0.42579621  0.35259652  0.17427358  1
  O  O509  1  0.42678318  0.35202069  0.42604512  1
  O  O510  1  0.42792650  0.35263594  0.67681532  1
  O  O511  1  0.42676126  0.35456905  0.92441382  1
  O  O512  1  0.42805252  0.68627822  0.17641276  1
  O  O513  1  0.42658913  0.68708012  0.42459092  1
  O  O514  1  0.42818787  0.68676524  0.67693235  1
  O  O515  1  0.42607372  0.68694484  0.92453060  1
  O  O516  1  0.92598673  0.01883000  0.17453804  1
  O  O517  1  0.92578017  0.01902432  0.42435878  1
  O  O518  1  0.92612687  0.01940720  0.67412380  1
  O  O519  1  0.92677723  0.01811477  0.92552759  1
  O  O520  1  0.92675766  0.35250386  0.17548144  1
  O  O521  1  0.92693841  0.35239888  0.42590144  1
  O  O522  1  0.92564276  0.35393396  0.67509161  1
  O  O523  1  0.92665178  0.35443987  0.92571466  1
  O  O524  1  0.92751322  0.68623450  0.17632712  1
  O  O525  1  0.92799218  0.68608807  0.42633603  1
  O  O526  1  0.92695896  0.68767655  0.67569474  1
  O  O527  1  0.92808655  0.68644859  0.92750567  1
  O  O528  1  0.17562196  0.02032202  0.20058869  1
  O  O529  1  0.17648859  0.02042063  0.44911304  1
  O  O530  1  0.17699270  0.01786645  0.69987449  1
  O  O531  1  0.17880994  0.01892836  0.94818328  1
  O  O532  1  0.17749550  0.35445034  0.19946844  1
  O  O533  1  0.17734443  0.35224748  0.44820175  1
  O  O534  1  0.17638116  0.35293532  0.70140972  1
  O  O535  1  0.17670994  0.35498630  0.95088352  1
  O  O536  1  0.17863957  0.68657441  0.19713222  1
  O  O537  1  0.17749966  0.68520212  0.44877831  1
  O  O538  1  0.17690669  0.68629981  0.70148694  1
  O  O539  1  0.17717616  0.68761441  0.95103681  1
  O  O540  1  0.67761617  0.01787734  0.19895021  1
  O  O541  1  0.67653275  0.02069932  0.44996902  1
  O  O542  1  0.67785365  0.02020566  0.69787854  1
  O  O543  1  0.67664669  0.02184301  0.94867047  1
  O  O544  1  0.67678008  0.35097786  0.19970369  1
  O  O545  1  0.67827298  0.35217535  0.44794243  1
  O  O546  1  0.67596264  0.35374394  0.70063363  1
  O  O547  1  0.67623757  0.35427074  0.94888824  1
  O  O548  1  0.67672191  0.68586281  0.20118857  1
  O  O549  1  0.67638160  0.68827995  0.45044285  1
  O  O550  1  0.67706844  0.68758561  0.69928208  1
  O  O551  1  0.67622797  0.68605514  0.94838364  1
  O  O552  1  0.32447676  0.31322798  0.04882920  1
  O  O553  1  0.32197649  0.31416764  0.30172868  1
  O  O554  1  0.32340521  0.31316752  0.55009271  1
  O  O555  1  0.32357059  0.31197918  0.80074122  1
  O  O556  1  0.32163487  0.64754211  0.05150279  1
  O  O557  1  0.32296621  0.64872523  0.30002449  1
  O  O558  1  0.32489926  0.64658456  0.55066788  1
  O  O559  1  0.32362668  0.64552426  0.80128827  1
  O  O560  1  0.32300940  0.97937178  0.04998618  1
  O  O561  1  0.32399264  0.97979626  0.29903264  1
  O  O562  1  0.32281394  0.98178818  0.55128690  1
  O  O563  1  0.32204050  0.97999433  0.80267277  1
  O  O564  1  0.82247714  0.31515637  0.05117095  1
  O  O565  1  0.82143761  0.31270632  0.30230494  1
  O  O566  1  0.82218629  0.31243948  0.54948393  1
  O  O567  1  0.82366225  0.31200102  0.79963398  1
  O  O568  1  0.82325836  0.64679730  0.05001960  1
  O  O569  1  0.82349089  0.64503483  0.30038295  1
  O  O570  1  0.82414795  0.64675535  0.54847524  1
  O  O571  1  0.82226440  0.64777425  0.80172756  1
  O  O572  1  0.82255405  0.98160112  0.05112560  1
  O  O573  1  0.82334739  0.97865529  0.30077771  1
  O  O574  1  0.82118512  0.98079806  0.55099478  1
  O  O575  1  0.82361352  0.98070225  0.79874558  1
  O  O576  1  0.42770827  0.14696897  0.17671629  1
  O  O577  1  0.42856326  0.14701362  0.42649770  1
  O  O578  1  0.42615702  0.14722448  0.67427932  1
  O  O579  1  0.42897002  0.14719717  0.92707917  1
  O  O580  1  0.42564539  0.47945467  0.17527969  1
  O  O581  1  0.42753649  0.47930449  0.42538218  1
  O  O582  1  0.42776297  0.47992503  0.67579243  1
  O  O583  1  0.42729085  0.48151840  0.92562735  1
  O  O584  1  0.42895063  0.81397178  0.17642941  1
  O  O585  1  0.42632812  0.81375710  0.42370893  1
  O  O586  1  0.42713650  0.81437551  0.67673978  1
  O  O587  1  0.42622442  0.81362563  0.92498022  1
  O  O588  1  0.92575345  0.14568471  0.17367082  1
  O  O589  1  0.92560063  0.14611501  0.42429063  1
  O  O590  1  0.92642653  0.14645313  0.67442252  1
  O  O591  1  0.92738396  0.14538872  0.92519783  1
  O  O592  1  0.92636193  0.47958763  0.17595011  1
  O  O593  1  0.92705510  0.47957897  0.42455205  1
  O  O594  1  0.92586798  0.48089441  0.67424614  1
  O  O595  1  0.92656293  0.48169035  0.92664585  1
  O  O596  1  0.92752932  0.81340657  0.17650206  1
  O  O597  1  0.92783154  0.81318865  0.42618929  1
  O  O598  1  0.92675601  0.81454127  0.67595071  1
  O  O599  1  0.92673927  0.81363977  0.92728119  1
  O  O600  1  0.07445764  0.18691826  0.07577228  1
  O  O601  1  0.07228784  0.18766216  0.32499373  1
  O  O602  1  0.07328726  0.18765329  0.57401895  1
  O  O603  1  0.07407918  0.18636154  0.82490116  1
  O  O604  1  0.07202525  0.52019682  0.07466573  1
  O  O605  1  0.07333528  0.52125672  0.32520297  1
  O  O606  1  0.07388532  0.52156162  0.57466521  1
  O  O607  1  0.07319318  0.52063157  0.82574056  1
  O  O608  1  0.07226955  0.85227239  0.07316604  1
  O  O609  1  0.07370989  0.85122817  0.32359333  1
  O  O610  1  0.07348473  0.85143205  0.57370218  1
  O  O611  1  0.07272396  0.85125234  0.82518013  1
  O  O612  1  0.57291399  0.18465458  0.07363218  1
  O  O613  1  0.57276056  0.18476604  0.32482889  1
  O  O614  1  0.57133733  0.18636386  0.57310008  1
  O  O615  1  0.57286671  0.18768720  0.82403104  1
  O  O616  1  0.57279025  0.51853033  0.07422242  1
  O  O617  1  0.57306522  0.52026281  0.32471434  1
  O  O618  1  0.57454737  0.52048493  0.57568260  1
  O  O619  1  0.57244161  0.51998555  0.82315133  1
  O  O620  1  0.57298393  0.85433974  0.07559600  1
  O  O621  1  0.57127401  0.85339002  0.32325248  1
  O  O622  1  0.57247040  0.85436580  0.57404071  1
  O  O623  1  0.57325999  0.85266229  0.82399597  1
  O  O624  1  0.32404055  0.18632921  0.05025633  1
  O  O625  1  0.32233600  0.18654161  0.30184429  1
  O  O626  1  0.32373161  0.18650156  0.54930681  1
  O  O627  1  0.32375199  0.18470075  0.80120155  1
  O  O628  1  0.32246913  0.52021934  0.05229502  1
  O  O629  1  0.32366685  0.52178795  0.29973082  1
  O  O630  1  0.32458176  0.51966621  0.54947791  1
  O  O631  1  0.32322127  0.51831272  0.80202205  1
  O  O632  1  0.32374430  0.85242962  0.05066741  1
  O  O633  1  0.32402650  0.85298174  0.29971378  1
  O  O634  1  0.32359088  0.85452527  0.55068074  1
  O  O635  1  0.32230330  0.85273477  0.80150275  1
  O  O636  1  0.82354545  0.18811209  0.05073630  1
  O  O637  1  0.82187661  0.18530306  0.30067968  1
  O  O638  1  0.82285579  0.18554856  0.55007417  1
  O  O639  1  0.82292589  0.18495913  0.80081512  1
  O  O640  1  0.82351180  0.52012126  0.04941988  1
  O  O641  1  0.82322110  0.51768543  0.30096092  1
  O  O642  1  0.82397683  0.51986715  0.54974845  1
  O  O643  1  0.82182902  0.52011532  0.80145539  1
  O  O644  1  0.82257915  0.85426238  0.05007767  1
  O  O645  1  0.82294153  0.85168126  0.30091712  1
  O  O646  1  0.82229297  0.85336380  0.55165076  1
  O  O647  1  0.82376741  0.85397793  0.79955017  1
  O  O648  1  0.17605984  0.14719636  0.19964539  1
  O  O649  1  0.17622889  0.14755252  0.44939369  1
  O  O650  1  0.17674133  0.14483222  0.69997744  1
  O  O651  1  0.17750955  0.14643906  0.94843897  1
  O  O652  1  0.17700993  0.48158203  0.20023307  1
  O  O653  1  0.17676743  0.47933529  0.44950454  1
  O  O654  1  0.17628173  0.47988006  0.70004737  1
  O  O655  1  0.17728136  0.48215029  0.94985738  1
  O  O656  1  0.17803142  0.81383437  0.19833651  1
  O  O657  1  0.17749499  0.81244946  0.44946239  1
  O  O658  1  0.17643025  0.81319441  0.70045750  1
  O  O659  1  0.17731459  0.81455045  0.94965629  1
  O  O660  1  0.67645525  0.14502229  0.19985201  1
  O  O661  1  0.67654838  0.14758729  0.44885832  1
  O  O662  1  0.67687654  0.14758465  0.69757222  1
  O  O663  1  0.67732001  0.14893335  0.94878737  1
  O  O664  1  0.67653269  0.47796727  0.19992101  1
  O  O665  1  0.67707262  0.47967349  0.44832995  1
  O  O666  1  0.67679200  0.48068859  0.69988627  1
  O  O667  1  0.67679990  0.48139013  0.94883244  1
  O  O668  1  0.67561853  0.81272696  0.20014680  1
  O  O669  1  0.67677988  0.81539464  0.44907680  1
  O  O670  1  0.67701889  0.81466014  0.69968922  1
  O  O671  1  0.67659822  0.81329536  0.94950489  1
