# generated using pymatgen
data_Na2MnFe(PO4)2
_symmetry_space_group_name_H-M   'P 1'
_cell_length_a   22.34353765
_cell_length_b   20.09155801
_cell_length_c   19.44946877
_cell_angle_alpha   89.98738851
_cell_angle_beta   89.97168704
_cell_angle_gamma   90.01554614
_symmetry_Int_Tables_number   1
_chemical_formula_structural   Na2MnFe(PO4)2
_chemical_formula_sum   'Na96 Mn48 Fe48 P96 O384'
_cell_volume   8731.18551560
_cell_formula_units_Z   48
loop_
 _symmetry_equiv_pos_site_id
 _symmetry_equiv_pos_as_xyz
  1  'x, y, z'
loop_
 _atom_site_type_symbol
 _atom_site_label
 _atom_site_symmetry_multiplicity
 _atom_site_fract_x
 _atom_site_fract_y
 _atom_site_fract_z
 _atom_site_occupancy
  Na  Na0  1  0.14033709  0.24841099  0.24408034  1
  Na  Na1  1  0.13996179  0.24959984  0.49335815  1
  Na  Na2  1  0.14042453  0.25162528  0.74311765  1
  Na  Na3  1  0.14076950  0.24922881  0.99276766  1
  Na  Na4  1  0.13974000  0.58285511  0.24350003  1
  Na  Na5  1  0.13996122  0.58160066  0.49355187  1
  Na  Na6  1  0.14022103  0.58291006  0.74335770  1
  Na  Na7  1  0.13998490  0.58252021  0.99234557  1
  Na  Na8  1  0.14098756  0.91641683  0.24357231  1
  Na  Na9  1  0.14068183  0.91629097  0.49384280  1
  Na  Na10  1  0.14077498  0.91786066  0.74384294  1
  Na  Na11  1  0.14098085  0.91716398  0.99359662  1
  Na  Na12  1  0.64024374  0.24970245  0.24455132  1
  Na  Na13  1  0.64041247  0.25228344  0.49431993  1
  Na  Na14  1  0.64054482  0.24920083  0.74341518  1
  Na  Na15  1  0.64034869  0.24873819  0.99357602  1
  Na  Na16  1  0.64081168  0.58405776  0.24457269  1
  Na  Na17  1  0.64030883  0.58516697  0.49442827  1
  Na  Na18  1  0.64001118  0.58267946  0.74316047  1
  Na  Na19  1  0.64027335  0.58398883  0.99416668  1
  Na  Na20  1  0.64073900  0.91657053  0.24362201  1
  Na  Na21  1  0.64057314  0.91899224  0.49366891  1
  Na  Na22  1  0.64054664  0.91643418  0.74360356  1
  Na  Na23  1  0.64083803  0.91594883  0.99382150  1
  Na  Na24  1  0.35944232  0.08314953  0.00550212  1
  Na  Na25  1  0.35971522  0.08325248  0.25607116  1
  Na  Na26  1  0.35949546  0.08374318  0.50667691  1
  Na  Na27  1  0.35901021  0.08508776  0.75598189  1
  Na  Na28  1  0.35921475  0.41588247  0.00569876  1
  Na  Na29  1  0.35894578  0.41528576  0.25627996  1
  Na  Na30  1  0.35903960  0.41498207  0.50753267  1
  Na  Na31  1  0.35894916  0.41704169  0.75700075  1
  Na  Na32  1  0.35972357  0.74983638  0.00615385  1
  Na  Na33  1  0.35950955  0.74919304  0.25465609  1
  Na  Na34  1  0.35991356  0.74942897  0.50742605  1
  Na  Na35  1  0.35940536  0.75093156  0.75700349  1
  Na  Na36  1  0.85982896  0.08286763  0.00609217  1
  Na  Na37  1  0.85987746  0.08360419  0.25616706  1
  Na  Na38  1  0.85954619  0.08567297  0.50596214  1
  Na  Na39  1  0.85952772  0.08323446  0.75597984  1
  Na  Na40  1  0.85947223  0.41661353  0.00585138  1
  Na  Na41  1  0.85930128  0.41643935  0.25685504  1
  Na  Na42  1  0.85986597  0.41847330  0.50793024  1
  Na  Na43  1  0.86015580  0.41613199  0.75569460  1
  Na  Na44  1  0.85980851  0.74927573  0.00706413  1
  Na  Na45  1  0.86017736  0.74879136  0.25653788  1
  Na  Na46  1  0.85981957  0.75083796  0.50677825  1
  Na  Na47  1  0.85946084  0.74991813  0.75514562  1
  Na  Na48  1  0.11063004  0.08364065  0.11834264  1
  Na  Na49  1  0.11005457  0.08397835  0.36849198  1
  Na  Na50  1  0.10970419  0.08428711  0.61820004  1
  Na  Na51  1  0.11031213  0.08492466  0.86830498  1
  Na  Na52  1  0.10912775  0.41619401  0.11797443  1
  Na  Na53  1  0.10949946  0.41585577  0.36945760  1
  Na  Na54  1  0.10986100  0.41652345  0.61757077  1
  Na  Na55  1  0.10970418  0.41722324  0.86749609  1
  Na  Na56  1  0.10957664  0.74765550  0.11804276  1
  Na  Na57  1  0.10981421  0.74941194  0.36979396  1
  Na  Na58  1  0.10969505  0.74950150  0.61807841  1
  Na  Na59  1  0.10966923  0.74812049  0.86865275  1
  Na  Na60  1  0.60994185  0.08309758  0.11824291  1
  Na  Na61  1  0.60975388  0.08392823  0.36924245  1
  Na  Na62  1  0.60965007  0.08471903  0.61893820  1
  Na  Na63  1  0.61042823  0.08224768  0.86786693  1
  Na  Na64  1  0.60922273  0.41717819  0.11949655  1
  Na  Na65  1  0.60978923  0.41707149  0.37064162  1
  Na  Na66  1  0.60977459  0.41880106  0.61860171  1
  Na  Na67  1  0.60919373  0.41533631  0.86857693  1
  Na  Na68  1  0.61040301  0.74997582  0.11824466  1
  Na  Na69  1  0.60988928  0.75097843  0.36876011  1
  Na  Na70  1  0.60935949  0.75167945  0.61836684  1
  Na  Na71  1  0.60975598  0.74892193  0.86961101  1
  Na  Na72  1  0.38993365  0.24891749  0.13106411  1
  Na  Na73  1  0.38953347  0.24921285  0.38247684  1
  Na  Na74  1  0.38948214  0.25133251  0.63210078  1
  Na  Na75  1  0.38965559  0.24914511  0.88098586  1
  Na  Na76  1  0.38983526  0.58381619  0.12978984  1
  Na  Na77  1  0.39021311  0.58263503  0.38170066  1
  Na  Na78  1  0.39015861  0.58463551  0.63254231  1
  Na  Na79  1  0.38978175  0.58269370  0.88215505  1
  Na  Na80  1  0.39032965  0.91628856  0.13044294  1
  Na  Na81  1  0.39065961  0.91643772  0.38088301  1
  Na  Na82  1  0.39045442  0.91800335  0.63153985  1
  Na  Na83  1  0.39049695  0.91585987  0.88112469  1
  Na  Na84  1  0.89019384  0.24903750  0.13063814  1
  Na  Na85  1  0.89052815  0.25032267  0.38186825  1
  Na  Na86  1  0.89031681  0.25150491  0.63090140  1
  Na  Na87  1  0.89031431  0.25082896  0.88121040  1
  Na  Na88  1  0.89032182  0.58298610  0.13131353  1
  Na  Na89  1  0.89060046  0.58350758  0.38287543  1
  Na  Na90  1  0.89015667  0.58274249  0.63085732  1
  Na  Na91  1  0.89028127  0.58263345  0.88041890  1
  Na  Na92  1  0.89084349  0.91593195  0.13158825  1
  Na  Na93  1  0.89066163  0.91634877  0.38182824  1
  Na  Na94  1  0.89043314  0.91711358  0.63073154  1
  Na  Na95  1  0.89060847  0.91690195  0.88165122  1
  Mn  Mn96  1  0.24939161  0.33178183  0.12497503  1
  Mn  Mn97  1  0.49965380  0.16649856  -0.00001030  1
  Mn  Mn98  1  0.00059289  0.83189578  0.00086090  1
  Mn  Mn99  1  -0.00047516  0.16821250  0.74904293  1
  Mn  Mn100  1  0.75027828  0.83461727  0.62533630  1
  Mn  Mn101  1  0.74983982  0.49974533  0.87492625  1
  Mn  Mn102  1  0.25031550  0.83247276  0.37421442  1
  Mn  Mn103  1  0.25080876  0.00049459  0.37491364  1
  Mn  Mn104  1  0.49942490  0.49996699  0.25026671  1
  Mn  Mn105  1  0.74999166  0.16713502  0.62516251  1
  Mn  Mn106  1  0.24910613  0.49977030  0.12468967  1
  Mn  Mn107  1  0.00001472  0.33362922  -0.00029281  1
  Mn  Mn108  1  0.00093704  0.00080636  0.00083899  1
  Mn  Mn109  1  0.24979667  0.83283356  0.12401899  1
  Mn  Mn110  1  0.50045433  0.16570870  0.25074940  1
  Mn  Mn111  1  0.49933386  0.33304375  0.25028247  1
  Mn  Mn112  1  0.00064901  0.83203198  0.25072415  1
  Mn  Mn113  1  0.00030253  0.00024534  0.74978363  1
  Mn  Mn114  1  0.00012412  0.83255702  0.75035030  1
  Mn  Mn115  1  0.75020583  0.66745291  0.37541008  1
  Mn  Mn116  1  0.74936612  0.33225070  0.87553550  1
  Mn  Mn117  1  0.49971950  0.16724922  0.49995655  1
  Mn  Mn118  1  0.49995773  0.33357938  0.75008143  1
  Mn  Mn119  1  0.00006849  0.00014433  0.49982005  1
  Mn  Mn120  1  0.49959018  0.50094870  0.50018030  1
  Mn  Mn121  1  0.75024848  0.33426697  0.37529077  1
  Mn  Mn122  1  0.25039868  0.49809185  0.37448579  1
  Mn  Mn123  1  0.00067053  0.00061924  0.25095253  1
  Mn  Mn124  1  0.74978105  0.83365801  0.87484388  1
  Mn  Mn125  1  0.50009713  -0.00120848  -0.00128469  1
  Mn  Mn126  1  0.75026059  0.00088736  0.37417449  1
  Mn  Mn127  1  -0.00061915  0.66529974  0.74893509  1
  Mn  Mn128  1  0.49971093  0.66728721  0.75056069  1
  Mn  Mn129  1  -0.00041265  0.50034259  0.24987568  1
  Mn  Mn130  1  0.25004376  0.66544886  0.37560501  1
  Mn  Mn131  1  0.24966895  0.66620782  0.62544039  1
  Mn  Mn132  1  0.49982940  0.49939443  0.00024558  1
  Mn  Mn133  1  0.50013565  0.66692917  0.24980998  1
  Mn  Mn134  1  0.50021612  0.00011553  0.75015072  1
  Mn  Mn135  1  0.24985208  0.83414254  0.87542323  1
  Mn  Mn136  1  0.74928589  0.50028795  0.12575858  1
  Mn  Mn137  1  0.75033620  0.66661743  0.87490702  1
  Mn  Mn138  1  -0.00053007  0.33236716  0.24930181  1
  Mn  Mn139  1  0.24946864  0.00087873  0.62463112  1
  Mn  Mn140  1  0.75021314  -0.00032241  0.12526077  1
  Mn  Mn141  1  0.49956805  0.83386534  0.24988618  1
  Mn  Mn142  1  0.74936906  0.33211137  0.12615205  1
  Mn  Mn143  1  0.50029827  0.83441062  0.49941030  1
  Fe  Fe144  1  -0.00026764  0.33369327  0.49984762  1
  Fe  Fe145  1  -0.00004844  0.66627208  0.50028767  1
  Fe  Fe146  1  0.75004166  0.00086790  0.62462858  1
  Fe  Fe147  1  0.75054635  0.66674000  0.12577426  1
  Fe  Fe148  1  0.75022910  0.16567760  0.87433358  1
  Fe  Fe149  1  0.50051124  0.83265303  0.00035338  1
  Fe  Fe150  1  0.75003219  0.50050910  0.62533559  1
  Fe  Fe151  1  0.00012643  0.16672727  0.25007098  1
  Fe  Fe152  1  0.25060265  0.16605754  0.12451342  1
  Fe  Fe153  1  0.25025230  0.00103449  0.87430739  1
  Fe  Fe154  1  0.49968333  0.33408332  0.50105279  1
  Fe  Fe155  1  0.00053066  0.49967481  0.74930042  1
  Fe  Fe156  1  -0.00010443  0.49974458  0.49992448  1
  Fe  Fe157  1  0.24954564  0.33201442  0.37575676  1
  Fe  Fe158  1  0.49983436  0.33276421  -0.00023292  1
  Fe  Fe159  1  0.75009486  0.16599581  0.12459980  1
  Fe  Fe160  1  0.00025409  0.66604769  0.25068041  1
  Fe  Fe161  1  0.75084049  -0.00033238  0.87522320  1
  Fe  Fe162  1  0.49992662  0.16726964  0.74967552  1
  Fe  Fe163  1  0.24987532  0.66589000  0.12451070  1
  Fe  Fe164  1  0.74991517  0.16755945  0.37538343  1
  Fe  Fe165  1  0.50042798  -0.00038373  0.24960864  1
  Fe  Fe166  1  0.00074115  0.83291474  0.50006197  1
  Fe  Fe167  1  0.24965611  0.66696669  0.87437151  1
  Fe  Fe168  1  0.75027067  0.83386190  0.37494760  1
  Fe  Fe169  1  -0.00023144  0.16725730  0.49974452  1
  Fe  Fe170  1  0.49997468  0.83326841  0.75009509  1
  Fe  Fe171  1  0.24975566  0.49992923  0.87480965  1
  Fe  Fe172  1  0.24967872  0.16702557  0.87487819  1
  Fe  Fe173  1  0.50009790  0.66638515  -0.00045832  1
  Fe  Fe174  1  0.00011133  0.16716651  -0.00043250  1
  Fe  Fe175  1  0.25026485  0.49950892  0.62543863  1
  Fe  Fe176  1  0.75003660  0.50085984  0.37604316  1
  Fe  Fe177  1  0.75017406  0.33391266  0.62490972  1
  Fe  Fe178  1  0.25047297  0.00037474  0.12439843  1
  Fe  Fe179  1  0.49971709  0.66760106  0.50067226  1
  Fe  Fe180  1  0.24961604  0.33328673  0.87432888  1
  Fe  Fe181  1  0.24955402  0.33309794  0.62537057  1
  Fe  Fe182  1  0.49995070  0.00079841  0.50055375  1
  Fe  Fe183  1  0.25015753  0.83374796  0.62576461  1
  Fe  Fe184  1  0.74950516  0.66747559  0.62456037  1
  Fe  Fe185  1  -0.00018777  0.66519841  -0.00060862  1
  Fe  Fe186  1  0.24983573  0.16668265  0.37525619  1
  Fe  Fe187  1  0.00038271  0.33415834  0.74938101  1
  Fe  Fe188  1  0.75080736  0.83306153  0.12474925  1
  Fe  Fe189  1  -0.00063474  0.49978450  -0.00070963  1
  Fe  Fe190  1  0.49966743  0.50031793  0.75044736  1
  Fe  Fe191  1  0.24927276  0.16750073  0.62566035  1
  P  P192  1  0.04247926  0.24853275  0.10218623  1
  P  P193  1  0.04166058  0.24894496  0.35309376  1
  P  P194  1  0.04117553  0.25098284  0.60132395  1
  P  P195  1  0.04217256  0.25198396  0.85190756  1
  P  P196  1  0.04144556  0.58244769  0.10125980  1
  P  P197  1  0.04205393  0.58413915  0.35344746  1
  P  P198  1  0.04131603  0.58248360  0.60144979  1
  P  P199  1  0.04188555  0.58162509  0.85231714  1
  P  P200  1  0.04351443  0.91615348  0.10367175  1
  P  P201  1  0.04328520  0.91606835  0.35390229  1
  P  P202  1  0.04244093  0.91557445  0.60232600  1
  P  P203  1  0.04313367  0.91651577  0.85345031  1
  P  P204  1  0.54223493  0.25086539  0.10249413  1
  P  P205  1  0.54245825  0.25030266  0.35416941  1
  P  P206  1  0.54195957  0.25169928  0.60304858  1
  P  P207  1  0.54232131  0.24879462  0.85261947  1
  P  P208  1  0.54232184  0.58444037  0.10227390  1
  P  P209  1  0.54263284  0.58367087  0.35388131  1
  P  P210  1  0.54187708  0.58548775  0.60313314  1
  P  P211  1  0.54181689  0.58226149  0.85297056  1
  P  P212  1  0.54257699  0.91570967  0.10238623  1
  P  P213  1  0.54248633  0.91841857  0.35271513  1
  P  P214  1  0.54237376  0.91855924  0.60269139  1
  P  P215  1  0.54245454  0.91449263  0.85264866  1
  P  P216  1  0.45797778  0.08169503  0.14746644  1
  P  P217  1  0.45772154  0.08172520  0.39742003  1
  P  P218  1  0.45761860  0.08508930  0.64746858  1
  P  P219  1  0.45750784  0.08326585  0.89595962  1
  P  P220  1  0.45649133  0.41632617  0.14641216  1
  P  P221  1  0.45693825  0.41549653  0.39836673  1
  P  P222  1  0.45757139  0.41851218  0.64779119  1
  P  P223  1  0.45756299  0.41497363  0.89733204  1
  P  P224  1  0.45760661  0.75017093  0.14567416  1
  P  P225  1  0.45745269  0.74925020  0.39779015  1
  P  P226  1  0.45742602  0.75178617  0.64750351  1
  P  P227  1  0.45863101  0.75009384  0.89821220  1
  P  P228  1  0.95831325  0.08470503  0.14748539  1
  P  P229  1  0.95804232  0.08498751  0.39730883  1
  P  P230  1  0.95738086  0.08413539  0.64606585  1
  P  P231  1  0.95824485  0.08494268  0.89749163  1
  P  P232  1  0.95679112  0.41671459  0.14646635  1
  P  P233  1  0.95829093  0.41659390  0.39850575  1
  P  P234  1  0.95893774  0.41690048  0.64727905  1
  P  P235  1  0.95776146  0.41790654  0.89641691  1
  P  P236  1  0.95838667  0.74739023  0.14763318  1
  P  P237  1  0.95868052  0.74936882  0.39865802  1
  P  P238  1  0.95752485  0.74963655  0.64571497  1
  P  P239  1  0.95760549  0.74797845  0.89775664  1
  P  P240  1  0.20894183  0.08347534  0.22658957  1
  P  P241  1  0.20771870  0.08487575  0.47773771  1
  P  P242  1  0.20729288  0.08537049  0.72804359  1
  P  P243  1  0.20886058  0.08331558  0.97686407  1
  P  P244  1  0.20660086  0.41527639  0.22805634  1
  P  P245  1  0.20796643  0.41440367  0.47839879  1
  P  P246  1  0.20871320  0.41685402  0.72723652  1
  P  P247  1  0.20837683  0.41607042  0.97594157  1
  P  P248  1  0.20751104  0.74816348  0.22685132  1
  P  P249  1  0.20776635  0.74975389  0.47894653  1
  P  P250  1  0.20778340  0.75115938  0.72795484  1
  P  P251  1  0.20791580  0.74851349  0.97744676  1
  P  P252  1  0.70790219  0.08467715  0.22761864  1
  P  P253  1  0.70792572  0.08523359  0.47761819  1
  P  P254  1  0.70796040  0.08198540  0.72798610  1
  P  P255  1  0.70872063  0.08279396  0.97660646  1
  P  P256  1  0.70675679  0.41681029  0.22930601  1
  P  P257  1  0.70841063  0.41896489  0.47898807  1
  P  P258  1  0.70843105  0.41633721  0.72656629  1
  P  P259  1  0.70670143  0.41640060  0.97845829  1
  P  P260  1  0.70895849  0.75045337  0.22700925  1
  P  P261  1  0.70798821  0.75218295  0.47782092  1
  P  P262  1  0.70745740  0.74922314  0.72712716  1
  P  P263  1  0.70783281  0.75017216  0.97902275  1
  P  P264  1  0.29188953  0.24833344  0.02145883  1
  P  P265  1  0.29153256  0.24925445  0.27351091  1
  P  P266  1  0.29091279  0.24950022  0.52339194  1
  P  P267  1  0.29088282  0.25038290  0.77277655  1
  P  P268  1  0.29138849  0.58410785  0.02121665  1
  P  P269  1  0.29277365  0.58274516  0.27137969  1
  P  P270  1  0.29229383  0.58117011  0.52307921  1
  P  P271  1  0.29100399  0.58322845  0.77321795  1
  P  P272  1  0.29216514  0.91836034  0.02175638  1
  P  P273  1  0.29291538  0.91680497  0.27097964  1
  P  P274  1  0.29227382  0.91576422  0.52281077  1
  P  P275  1  0.29216846  0.91845467  0.77214209  1
  P  P276  1  0.79188769  0.24808687  0.02215709  1
  P  P277  1  0.79234167  0.24871731  0.27256697  1
  P  P278  1  0.79218588  0.25201042  0.52247878  1
  P  P279  1  0.79219249  0.24875488  0.77228258  1
  P  P280  1  0.79217490  0.58434604  0.02311385  1
  P  P281  1  0.79245576  0.58266105  0.27318924  1
  P  P282  1  0.79108785  0.58408819  0.52343742  1
  P  P283  1  0.79226724  0.58298466  0.77061507  1
  P  P284  1  0.79288669  0.91583700  0.02244216  1
  P  P285  1  0.79273323  0.91516849  0.27207320  1
  P  P286  1  0.79236375  0.91893721  0.52203024  1
  P  P287  1  0.79261065  0.91813242  0.77218206  1
  O  O288  1  0.03727970  0.24832215  0.18213702  1
  O  O289  1  0.03612426  0.24918281  0.43295164  1
  O  O290  1  0.03631962  0.25182909  0.68127770  1
  O  O291  1  0.03724734  0.25144487  0.93180812  1
  O  O292  1  0.03683780  0.58290889  0.18126482  1
  O  O293  1  0.03673374  0.58400445  0.43330704  1
  O  O294  1  0.03642237  0.58156304  0.68138641  1
  O  O295  1  0.03669592  0.58182579  0.93218643  1
  O  O296  1  0.03844693  0.91623804  0.18366158  1
  O  O297  1  0.03801185  0.91571546  0.43386211  1
  O  O298  1  0.03745124  0.91582024  0.68234552  1
  O  O299  1  0.03817378  0.91656423  0.93345948  1
  O  O300  1  0.53710619  0.25024763  0.18248562  1
  O  O301  1  0.53720007  0.25080641  0.43413084  1
  O  O302  1  0.53670932  0.25078132  0.68299417  1
  O  O303  1  0.53712177  0.24959470  0.93256495  1
  O  O304  1  0.53738170  0.58408093  0.18226342  1
  O  O305  1  0.53732441  0.58441479  0.43385542  1
  O  O306  1  0.53663207  0.58483550  0.68306306  1
  O  O307  1  0.53654274  0.58296924  0.93289439  1
  O  O308  1  0.53740778  0.91663406  0.18234684  1
  O  O309  1  0.53730015  0.91864544  0.43267383  1
  O  O310  1  0.53721531  0.91776146  0.68257866  1
  O  O311  1  0.53715507  0.91400060  0.93257925  1
  O  O312  1  0.46300297  0.08209462  0.06748626  1
  O  O313  1  0.46316173  0.08149272  0.31747351  1
  O  O314  1  0.46278564  0.08463271  0.56750797  1
  O  O315  1  0.46274332  0.08396344  0.81606100  1
  O  O316  1  0.46189495  0.41569347  0.06645714  1
  O  O317  1  0.46170469  0.41560237  0.31836741  1
  O  O318  1  0.46272018  0.41800454  0.56788704  1
  O  O319  1  0.46291305  0.41577878  0.81741444  1
  O  O320  1  0.46313741  0.75004933  0.06575060  1
  O  O321  1  0.46251409  0.74960210  0.31781315  1
  O  O322  1  0.46249678  0.75114701  0.56756142  1
  O  O323  1  0.46356665  0.75068233  0.81819104  1
  O  O324  1  0.96355739  0.08476883  0.06751714  1
  O  O325  1  0.96337478  0.08508418  0.31735307  1
  O  O326  1  0.96265597  0.08436003  0.56612909  1
  O  O327  1  0.96319102  0.08465503  0.81750764  1
  O  O328  1  0.96184945  0.41713345  0.06651472  1
  O  O329  1  0.96268700  0.41670844  0.31851903  1
  O  O330  1  0.96400939  0.41673836  0.56738749  1
  O  O331  1  0.96326769  0.41773566  0.81653715  1
  O  O332  1  0.96362493  0.74718570  0.06769615  1
  O  O333  1  0.96370354  0.74886347  0.31866755  1
  O  O334  1  0.96296373  0.74993249  0.56583282  1
  O  O335  1  0.96252763  0.74827415  0.81774680  1
  O  O336  1  0.21427584  0.08315429  0.05676633  1
  O  O337  1  0.21409855  0.08389856  0.30655245  1
  O  O338  1  0.21251711  0.08507665  0.55769525  1
  O  O339  1  0.21295933  0.08507222  0.80787874  1
  O  O340  1  0.21273045  0.41626217  0.05591606  1
  O  O341  1  0.21185864  0.41486326  0.30797216  1
  O  O342  1  0.21335201  0.41494197  0.55826198  1
  O  O343  1  0.21355828  0.41676195  0.80712669  1
  O  O344  1  0.21318248  0.74812251  0.05737436  1
  O  O345  1  0.21283550  0.74839082  0.30682935  1
  O  O346  1  0.21293297  0.75057562  0.55892661  1
  O  O347  1  0.21307813  0.75059687  0.80791181  1
  O  O348  1  0.71370646  0.08314261  0.05660652  1
  O  O349  1  0.71314697  0.08495204  0.30754424  1
  O  O350  1  0.71323844  0.08445315  0.55752338  1
  O  O351  1  0.71355427  0.08197659  0.80783798  1
  O  O352  1  0.71155165  0.41634330  0.05842257  1
  O  O353  1  0.71219527  0.41737255  0.30925555  1
  O  O354  1  0.71408873  0.41879546  0.55888304  1
  O  O355  1  0.71315659  0.41588850  0.80658867  1
  O  O356  1  0.71337013  0.75022376  0.05890971  1
  O  O357  1  0.71376102  0.75097479  0.30703977  1
  O  O358  1  0.71319915  0.75170364  0.55771994  1
  O  O359  1  0.71254022  0.74932689  0.80707633  1
  O  O360  1  0.28672662  0.24882190  0.19354046  1
  O  O361  1  0.28607284  0.24959551  0.44347802  1
  O  O362  1  0.28563507  0.25058736  0.69290680  1
  O  O363  1  0.28630242  0.24869624  0.94165118  1
  O  O364  1  0.28740927  0.58323031  0.19142190  1
  O  O365  1  0.28756861  0.58120186  0.44309694  1
  O  O366  1  0.28623861  0.58257055  0.69324363  1
  O  O367  1  0.28589575  0.58415914  0.94133229  1
  O  O368  1  0.28736893  0.91730755  0.19105900  1
  O  O369  1  0.28749357  0.91585477  0.44279190  1
  O  O370  1  0.28665076  0.91761364  0.69221995  1
  O  O371  1  0.28677557  0.91863212  0.94181455  1
  O  O372  1  0.78698319  0.24831810  0.19260861  1
  O  O373  1  0.78699344  0.25160544  0.44259829  1
  O  O374  1  0.78700880  0.24962267  0.69236624  1
  O  O375  1  0.78645574  0.24795174  0.94220948  1
  O  O376  1  0.78708925  0.58332868  0.19328364  1
  O  O377  1  0.78618543  0.58364844  0.44345746  1
  O  O378  1  0.78671251  0.58318728  0.69071174  1
  O  O379  1  0.78711762  0.58414284  0.94313597  1
  O  O380  1  0.78747800  0.91478709  0.19211914  1
  O  O381  1  0.78704583  0.91822345  0.44210782  1
  O  O382  1  0.78736647  0.91848156  0.69221893  1
  O  O383  1  0.78785576  0.91657957  0.94246922  1
  O  O384  1  0.22781233  0.24723339  0.05785209  1
  O  O385  1  0.22728882  0.24966498  0.30950768  1
  O  O386  1  0.22676423  0.24914731  0.55954110  1
  O  O387  1  0.22689176  0.25021705  0.80924222  1
  O  O388  1  0.22729336  0.58448365  0.05762030  1
  O  O389  1  0.22842958  0.58216333  0.30677843  1
  O  O390  1  0.22785720  0.58127757  0.55832753  1
  O  O391  1  0.22681675  0.58384650  0.80897257  1
  O  O392  1  0.22806240  0.91823221  0.05787787  1
  O  O393  1  0.22871568  0.91681387  0.30673154  1
  O  O394  1  0.22789394  0.91581544  0.55815980  1
  O  O395  1  0.22802704  0.91876611  0.80820185  1
  O  O396  1  0.72769008  0.24787324  0.05818676  1
  O  O397  1  0.72809366  0.24928362  0.30841725  1
  O  O398  1  0.72798802  0.25202537  0.55836849  1
  O  O399  1  0.72790132  0.24792798  0.80797117  1
  O  O400  1  0.72787303  0.58506758  0.05868981  1
  O  O401  1  0.72820359  0.58241262  0.30908232  1
  O  O402  1  0.72699012  0.58397789  0.55952281  1
  O  O403  1  0.72808410  0.58310687  0.80650362  1
  O  O404  1  0.72859192  0.91544599  0.05807987  1
  O  O405  1  0.72846365  0.91561009  0.30785265  1
  O  O406  1  0.72814128  0.91908768  0.55800726  1
  O  O407  1  0.72831202  0.91838881  0.80788670  1
  O  O408  1  0.27303712  0.08348272  0.19025949  1
  O  O409  1  0.27211712  0.08514196  0.44229977  1
  O  O410  1  0.27136765  0.08547931  0.69167176  1
  O  O411  1  0.27280590  0.08350443  0.94017577  1
  O  O412  1  0.27090254  0.41573472  0.19263109  1
  O  O413  1  0.27206234  0.41375603  0.44206805  1
  O  O414  1  0.27278538  0.41695411  0.69105802  1
  O  O415  1  0.27261786  0.41577572  0.94038826  1
  O  O416  1  0.27176882  0.74798633  0.19109036  1
  O  O417  1  0.27208682  0.74935966  0.44352443  1
  O  O418  1  0.27203656  0.75091747  0.69225152  1
  O  O419  1  0.27211359  0.74887474  0.94153682  1
  O  O420  1  0.77218391  0.08460448  0.19183440  1
  O  O421  1  0.77211316  0.08548332  0.44163148  1
  O  O422  1  0.77206403  0.08206201  0.69167494  1
  O  O423  1  0.77290832  0.08286294  0.94053223  1
  O  O424  1  0.77103598  0.41645705  0.19381574  1
  O  O425  1  0.77242760  0.41908655  0.44246444  1
  O  O426  1  0.77270396  0.41671236  0.69090014  1
  O  O427  1  0.77117899  0.41616311  0.94346847  1
  O  O428  1  0.77316716  0.74986038  0.19107529  1
  O  O429  1  0.77226506  0.75225821  0.44203579  1
  O  O430  1  0.77179253  0.74919550  0.69165294  1
  O  O431  1  0.77199797  0.75040797  0.94310683  1
  O  O432  1  0.02260124  0.08488282  0.18317853  1
  O  O433  1  0.02224905  0.08490961  0.43302489  1
  O  O434  1  0.02168478  0.08430755  0.68141248  1
  O  O435  1  0.02262740  0.08530106  0.93283881  1
  O  O436  1  0.02113185  0.41652690  0.18171409  1
  O  O437  1  0.02259213  0.41640427  0.43387614  1
  O  O438  1  0.02302945  0.41687479  0.68363997  1
  O  O439  1  0.02188585  0.41821255  0.93261698  1
  O  O440  1  0.02262402  0.74742260  0.18341613  1
  O  O441  1  0.02284105  0.74889888  0.43460252  1
  O  O442  1  0.02171347  0.74923306  0.68148210  1
  O  O443  1  0.02200806  0.74758601  0.93302943  1
  O  O444  1  0.52235113  0.08155482  0.18290229  1
  O  O445  1  0.52194005  0.08215260  0.43326778  1
  O  O446  1  0.52190631  0.08526070  0.68312829  1
  O  O447  1  0.52178709  0.08312957  0.93133745  1
  O  O448  1  0.52084082  0.41658035  0.18177043  1
  O  O449  1  0.52136457  0.41566397  0.43362843  1
  O  O450  1  0.52188213  0.41871371  0.68338674  1
  O  O451  1  0.52177649  0.41477656  0.93316488  1
  O  O452  1  0.52177019  0.75064456  0.18152900  1
  O  O453  1  0.52185923  0.74912977  0.43313524  1
  O  O454  1  0.52177378  0.75172355  0.68302719  1
  O  O455  1  0.52279640  0.74985291  0.93409265  1
  O  O456  1  0.47786034  0.25122064  0.06705958  1
  O  O457  1  0.47813250  0.24939994  0.31888707  1
  O  O458  1  0.47766785  0.25191474  0.56743645  1
  O  O459  1  0.47800942  0.24855487  0.81699408  1
  O  O460  1  0.47800259  0.58432486  0.06685392  1
  O  O461  1  0.47825904  0.58359280  0.31861606  1
  O  O462  1  0.47762725  0.58566873  0.56738487  1
  O  O463  1  0.47754562  0.58213720  0.81724903  1
  O  O464  1  0.47830385  0.91512371  0.06674417  1
  O  O465  1  0.47817933  0.91849717  0.31704495  1
  O  O466  1  0.47810845  0.91857624  0.56696463  1
  O  O467  1  0.47821402  0.91488637  0.81686998  1
  O  O468  1  0.97815347  0.24874915  0.06661465  1
  O  O469  1  0.97754720  0.24825361  0.31684097  1
  O  O470  1  0.97699148  0.25078944  0.56551558  1
  O  O471  1  0.97784122  0.25262530  0.81638687  1
  O  O472  1  0.97714769  0.58215900  0.06556854  1
  O  O473  1  0.97784838  0.58448267  0.31741937  1
  O  O474  1  0.97717424  0.58329871  0.56554760  1
  O  O475  1  0.97770863  0.58098323  0.81636634  1
  O  O476  1  0.97912086  0.91630151  0.06862641  1
  O  O477  1  0.97897458  0.91625714  0.31855847  1
  O  O478  1  0.97814368  0.91569391  0.56698608  1
  O  O479  1  0.97864992  0.91651274  0.81852176  1
  O  O480  1  0.07351778  0.31236727  0.07453110  1
  O  O481  1  0.07231856  0.31280770  0.32488068  1
  O  O482  1  0.07222007  0.31430874  0.57248726  1
  O  O483  1  0.07305670  0.31550059  0.82334074  1
  O  O484  1  0.07214194  0.64594884  0.07234663  1
  O  O485  1  0.07307244  0.64742005  0.32444106  1
  O  O486  1  0.07263108  0.64614319  0.57399829  1
  O  O487  1  0.07265808  0.64536499  0.82394432  1
  O  O488  1  0.07467336  0.97961549  0.07557525  1
  O  O489  1  0.07427711  0.97981345  0.32601702  1
  O  O490  1  0.07382940  0.97911922  0.57468603  1
  O  O491  1  0.07400744  0.98008096  0.82514078  1
  O  O492  1  0.57298756  0.31444710  0.07422093  1
  O  O493  1  0.57343152  0.31365889  0.32565976  1
  O  O494  1  0.57242582  0.31568662  0.57506010  1
  O  O495  1  0.57362453  0.31215597  0.82427189  1
  O  O496  1  0.57278906  0.64811829  0.07371296  1
  O  O497  1  0.57413388  0.64673442  0.32523135  1
  O  O498  1  0.57241197  0.64927725  0.57478141  1
  O  O499  1  0.57327398  0.64555059  0.82480400  1
  O  O500  1  0.57372925  0.97909785  0.07383512  1
  O  O501  1  0.57360267  0.98151908  0.32373529  1
  O  O502  1  0.57276334  0.98249126  0.57449488  1
  O  O503  1  0.57349288  0.97843250  0.82538175  1
  O  O504  1  0.42729110  0.01807709  0.17569262  1
  O  O505  1  0.42690601  0.01845892  0.42648150  1
  O  O506  1  0.42635824  0.02164113  0.67549111  1
  O  O507  1  0.42667104  0.01936122  0.92357104  1
  O  O508  1  0.42514817  0.35314309  0.17499038  1
  O  O509  1  0.42655275  0.35184333  0.42716179  1
  O  O510  1  0.42629308  0.35505397  0.67582102  1
  O  O511  1  0.42706369  0.35107327  0.92540741  1
  O  O512  1  0.42653104  0.68668619  0.17400018  1
  O  O513  1  0.42669994  0.68576373  0.42634832  1
  O  O514  1  0.42597514  0.68857823  0.67599643  1
  O  O515  1  0.42798565  0.68595481  0.92577278  1
  O  O516  1  0.92749328  0.02075027  0.17525223  1
  O  O517  1  0.92690307  0.02111792  0.42468801  1
  O  O518  1  0.92663745  0.02041907  0.67429456  1
  O  O519  1  0.92740351  0.02128307  0.92564440  1
  O  O520  1  0.92590016  0.35293002  0.17442121  1
  O  O521  1  0.92737458  0.35300128  0.42674444  1
  O  O522  1  0.92809958  0.35327603  0.67590926  1
  O  O523  1  0.92664369  0.35429162  0.92458770  1
  O  O524  1  0.92747634  0.68419342  0.17675287  1
  O  O525  1  0.92707694  0.68629694  0.42722901  1
  O  O526  1  0.92620589  0.68614848  0.67380175  1
  O  O527  1  0.92674498  0.68440166  0.92602997  1
  O  O528  1  0.17822123  0.01958165  0.19867217  1
  O  O529  1  0.17716830  0.02086085  0.44991130  1
  O  O530  1  0.17600781  0.02188996  0.69991800  1
  O  O531  1  0.17790423  0.01976056  0.94835336  1
  O  O532  1  0.17562626  0.35190214  0.19944164  1
  O  O533  1  0.17682213  0.35106774  0.44982016  1
  O  O534  1  0.17800493  0.35317342  0.69851092  1
  O  O535  1  0.17736967  0.35246227  0.94793244  1
  O  O536  1  0.17664785  0.68465860  0.19856535  1
  O  O537  1  0.17679941  0.68584421  0.45149259  1
  O  O538  1  0.17613569  0.68787206  0.69998230  1
  O  O539  1  0.17700895  0.68534334  0.94830377  1
  O  O540  1  0.67717064  0.02065164  0.20001336  1
  O  O541  1  0.67665713  0.02197082  0.44920939  1
  O  O542  1  0.67701407  0.01869838  0.69901963  1
  O  O543  1  0.67818406  0.01872681  0.94881188  1
  O  O544  1  0.67570515  0.35312513  0.20149572  1
  O  O545  1  0.67712379  0.35537477  0.45121777  1
  O  O546  1  0.67790292  0.35252829  0.69821010  1
  O  O547  1  0.67562478  0.35298101  0.95019803  1
  O  O548  1  0.67810865  0.68649611  0.19932734  1
  O  O549  1  0.67675405  0.68872104  0.44976874  1
  O  O550  1  0.67671383  0.68575005  0.69855401  1
  O  O551  1  0.67665195  0.68677345  0.95065513  1
  O  O552  1  0.32229414  0.31226793  0.04976928  1
  O  O553  1  0.32228269  0.31296038  0.30179030  1
  O  O554  1  0.32129714  0.31330540  0.55233245  1
  O  O555  1  0.32177383  0.31407963  0.80119582  1
  O  O556  1  0.32263812  0.64729501  0.04997683  1
  O  O557  1  0.32384345  0.64602850  0.30002741  1
  O  O558  1  0.32333038  0.64479893  0.55095578  1
  O  O559  1  0.32221831  0.64693975  0.80084214  1
  O  O560  1  0.32326550  0.98152891  0.05054539  1
  O  O561  1  0.32430697  0.97985950  0.29972985  1
  O  O562  1  0.32321228  0.97959349  0.55040219  1
  O  O563  1  0.32293817  0.98226276  0.79992908  1
  O  O564  1  0.82269951  0.31200971  0.04983418  1
  O  O565  1  0.82367692  0.31245980  0.29994052  1
  O  O566  1  0.82269139  0.31578389  0.55092085  1
  O  O567  1  0.82305650  0.31233777  0.80060086  1
  O  O568  1  0.82324456  0.64764746  0.05165336  1
  O  O569  1  0.82359846  0.64612750  0.30142221  1
  O  O570  1  0.82146858  0.64829927  0.55109838  1
  O  O571  1  0.82374252  0.64624993  0.79891180  1
  O  O572  1  0.82400366  0.97926608  0.05084641  1
  O  O573  1  0.82389592  0.97906099  0.29929199  1
  O  O574  1  0.82293165  0.98275996  0.55012011  1
  O  O575  1  0.82390223  0.98107507  0.80124751  1
  O  O576  1  0.42707589  0.14538338  0.17550697  1
  O  O577  1  0.42648423  0.14545926  0.42493458  1
  O  O578  1  0.42705826  0.14885511  0.67577773  1
  O  O579  1  0.42609476  0.14623675  0.92477280  1
  O  O580  1  0.42568550  0.48014725  0.17424122  1
  O  O581  1  0.42582505  0.47912961  0.42605173  1
  O  O582  1  0.42706609  0.48220748  0.67639204  1
  O  O583  1  0.42617609  0.47829829  0.92540144  1
  O  O584  1  0.42610664  0.81339374  0.17411159  1
  O  O585  1  0.42654248  0.81304702  0.42548232  1
  O  O586  1  0.42710453  0.81561011  0.67596078  1
  O  O587  1  0.42762816  0.81344844  0.92682566  1
  O  O588  1  0.92718082  0.14788209  0.17621092  1
  O  O589  1  0.92704807  0.14822491  0.42613011  1
  O  O590  1  0.92595134  0.14736990  0.67430067  1
  O  O591  1  0.92755286  0.14863053  0.92565647  1
  O  O592  1  0.92556043  0.47979304  0.17532088  1
  O  O593  1  0.92793736  0.48044735  0.42706803  1
  O  O594  1  0.92797103  0.48048074  0.67552629  1
  O  O595  1  0.92657948  0.48110814  0.92526465  1
  O  O596  1  0.92746405  0.81130593  0.17519258  1
  O  O597  1  0.92863975  0.81371673  0.42651569  1
  O  O598  1  0.92641942  0.81292719  0.67449538  1
  O  O599  1  0.92685825  0.81173525  0.92576694  1
  O  O600  1  0.07323970  0.18530749  0.07301790  1
  O  O601  1  0.07305219  0.18581698  0.32438663  1
  O  O602  1  0.07175530  0.18689845  0.57371079  1
  O  O603  1  0.07306015  0.18845783  0.82356118  1
  O  O604  1  0.07212726  0.51860620  0.07314132  1
  O  O605  1  0.07300237  0.52045151  0.32525263  1
  O  O606  1  0.07165826  0.51877425  0.57245565  1
  O  O607  1  0.07320434  0.51855862  0.82332484  1
  O  O608  1  0.07434261  0.85252252  0.07562823  1
  O  O609  1  0.07457662  0.85285934  0.32545793  1
  O  O610  1  0.07291478  0.85184678  0.57390804  1
  O  O611  1  0.07403291  0.85289089  0.82544576  1
  O  O612  1  0.57311173  0.18710855  0.07462320  1
  O  O613  1  0.57380688  0.18679324  0.32627492  1
  O  O614  1  0.57342369  0.18851261  0.57475497  1
  O  O615  1  0.57291601  0.18509552  0.82427139  1
  O  O616  1  0.57358788  0.52089187  0.07454884  1
  O  O617  1  0.57324943  0.51973774  0.32606993  1
  O  O618  1  0.57317502  0.52211395  0.57505557  1
  O  O619  1  0.57226505  0.51840309  0.82465086  1
  O  O620  1  0.57334429  0.85199956  0.07433142  1
  O  O621  1  0.57316595  0.85438372  0.32508613  1
  O  O622  1  0.57381975  0.85535854  0.57427536  1
  O  O623  1  0.57324927  0.85124768  0.82358400  1
  O  O624  1  0.32354914  0.18534919  0.05014771  1
  O  O625  1  0.32225235  0.18563930  0.30206103  1
  O  O626  1  0.32225197  0.18619930  0.55186089  1
  O  O627  1  0.32202686  0.18690253  0.80105982  1
  O  O628  1  0.32225071  0.52020893  0.04897718  1
  O  O629  1  0.32396085  0.51914787  0.29926679  1
  O  O630  1  0.32281210  0.51759504  0.55171790  1
  O  O631  1  0.32144221  0.51953745  0.80215088  1
  O  O632  1  0.32307668  0.85432399  0.04894350  1
  O  O633  1  0.32382175  0.85292625  0.29858550  1
  O  O634  1  0.32282870  0.85227115  0.55165792  1
  O  O635  1  0.32340429  0.85508414  0.80046689  1
  O  O636  1  0.82302307  0.18481725  0.05066113  1
  O  O637  1  0.82294029  0.18535890  0.30160448  1
  O  O638  1  0.82353642  0.18866723  0.55046492  1
  O  O639  1  0.82316670  0.18517513  0.80039602  1
  O  O640  1  0.82277639  0.52037879  0.05071923  1
  O  O641  1  0.82319136  0.51903425  0.30151128  1
  O  O642  1  0.82240283  0.52083663  0.55188130  1
  O  O643  1  0.82321869  0.51943110  0.79905759  1
  O  O644  1  0.82371006  0.85222306  0.05072376  1
  O  O645  1  0.82341904  0.85188372  0.30125859  1
  O  O646  1  0.82364464  0.85557293  0.55023632  1
  O  O647  1  0.82322452  0.85397523  0.79959319  1
  O  O648  1  0.17797742  0.14694229  0.19811129  1
  O  O649  1  0.17666218  0.14795072  0.44864567  1
  O  O650  1  0.17634909  0.14883442  0.69949896  1
  O  O651  1  0.17781537  0.14694386  0.94862710  1
  O  O652  1  0.17533435  0.47875323  0.19998742  1
  O  O653  1  0.17707248  0.47803844  0.45009368  1
  O  O654  1  0.17772542  0.48037396  0.69864909  1
  O  O655  1  0.17805737  0.47997439  0.94741180  1
  O  O656  1  0.17657833  0.81195503  0.19922669  1
  O  O657  1  0.17662511  0.81280948  0.44991553  1
  O  O658  1  0.17754230  0.81512059  0.69967416  1
  O  O659  1  0.17679184  0.81246183  0.95035081  1
  O  O660  1  0.67680383  0.14773803  0.19863999  1
  O  O661  1  0.67734159  0.14917429  0.44978847  1
  O  O662  1  0.67671583  0.14560642  0.70007863  1
  O  O663  1  0.67759962  0.14613000  0.94802545  1
  O  O664  1  0.67548968  0.48004007  0.20084705  1
  O  O665  1  0.67739367  0.48238847  0.45044509  1
  O  O666  1  0.67743842  0.48004093  0.69884543  1
  O  O667  1  0.67603243  0.48004851  0.95015799  1
  O  O668  1  0.67828932  0.81400019  0.19833408  1
  O  O669  1  0.67741705  0.81584550  0.44930699  1
  O  O670  1  0.67653578  0.81303645  0.69956954  1
  O  O671  1  0.67650470  0.81344843  0.95048972  1
