# generated using pymatgen
data_Na2MnFe(PO4)2
_symmetry_space_group_name_H-M   'P 1'
_cell_length_a   22.34597665
_cell_length_b   20.09712332
_cell_length_c   19.44606907
_cell_angle_alpha   90.01424424
_cell_angle_beta   89.95736829
_cell_angle_gamma   89.99905853
_symmetry_Int_Tables_number   1
_chemical_formula_structural   Na2MnFe(PO4)2
_chemical_formula_sum   'Na96 Mn48 Fe48 P96 O384'
_cell_volume   8733.02952557
_cell_formula_units_Z   48
loop_
 _symmetry_equiv_pos_site_id
 _symmetry_equiv_pos_as_xyz
  1  'x, y, z'
loop_
 _atom_site_type_symbol
 _atom_site_label
 _atom_site_symmetry_multiplicity
 _atom_site_fract_x
 _atom_site_fract_y
 _atom_site_fract_z
 _atom_site_occupancy
  Na  Na0  1  0.14023985  0.25044737  0.24475838  1
  Na  Na1  1  0.14057325  0.24971909  0.49446932  1
  Na  Na2  1  0.14056528  0.25123469  0.74341488  1
  Na  Na3  1  0.13989752  0.24963471  0.99289851  1
  Na  Na4  1  0.14016214  0.58513571  0.24443138  1
  Na  Na5  1  0.14035461  0.58203021  0.49392495  1
  Na  Na6  1  0.14083913  0.58296903  0.74326344  1
  Na  Na7  1  0.14080650  0.58423380  0.99259022  1
  Na  Na8  1  0.14028374  0.91804860  0.24427861  1
  Na  Na9  1  0.14012711  0.91630181  0.49343452  1
  Na  Na10  1  0.14015851  0.91736583  0.74341638  1
  Na  Na11  1  0.14056603  0.91577284  0.99331106  1
  Na  Na12  1  0.64069406  0.24990508  0.24360138  1
  Na  Na13  1  0.64072543  0.25049072  0.49403153  1
  Na  Na14  1  0.64032826  0.24952712  0.74462667  1
  Na  Na15  1  0.64040082  0.24884998  0.99273552  1
  Na  Na16  1  0.64047609  0.58314956  0.24419657  1
  Na  Na17  1  0.64071742  0.58316803  0.49338006  1
  Na  Na18  1  0.64070850  0.58345205  0.74465516  1
  Na  Na19  1  0.64090566  0.58362501  0.99171695  1
  Na  Na20  1  0.64047240  0.91699780  0.24217325  1
  Na  Na21  1  0.64044722  0.91581587  0.49443477  1
  Na  Na22  1  0.64022274  0.91595527  0.74506051  1
  Na  Na23  1  0.64070888  0.91591563  0.99281456  1
  Na  Na24  1  0.35951247  0.08173953  0.00693425  1
  Na  Na25  1  0.35998840  0.08409277  0.25594664  1
  Na  Na26  1  0.35961794  0.08372514  0.50639751  1
  Na  Na27  1  0.35891827  0.08289895  0.75633599  1
  Na  Na28  1  0.35990907  0.41654501  0.00646194  1
  Na  Na29  1  0.35928523  0.41642155  0.25560886  1
  Na  Na30  1  0.35867283  0.41527923  0.50641950  1
  Na  Na31  1  0.35961711  0.41710879  0.75631195  1
  Na  Na32  1  0.35981884  0.74997416  0.00530120  1
  Na  Na33  1  0.35973193  0.75045751  0.25496549  1
  Na  Na34  1  0.35962820  0.74820090  0.50664358  1
  Na  Na35  1  0.35917751  0.75082055  0.75736723  1
  Na  Na36  1  0.85965465  0.08350757  0.00662283  1
  Na  Na37  1  0.85985810  0.08384237  0.25617298  1
  Na  Na38  1  0.85940620  0.08311706  0.50758705  1
  Na  Na39  1  0.85921226  0.08301663  0.75615047  1
  Na  Na40  1  0.85997528  0.41644609  0.00569511  1
  Na  Na41  1  0.85907133  0.41778016  0.25665805  1
  Na  Na42  1  0.85947332  0.41739577  0.50613560  1
  Na  Na43  1  0.85977620  0.41702328  0.75707144  1
  Na  Na44  1  0.85957629  0.75072056  0.00559593  1
  Na  Na45  1  0.85950374  0.74921867  0.25649522  1
  Na  Na46  1  0.85943582  0.75059399  0.50620492  1
  Na  Na47  1  0.85946907  0.75122710  0.75694490  1
  Na  Na48  1  0.10972850  0.08407868  0.11885392  1
  Na  Na49  1  0.10961809  0.08436193  0.37019977  1
  Na  Na50  1  0.10914865  0.08340382  0.61818123  1
  Na  Na51  1  0.10956218  0.08392783  0.86860238  1
  Na  Na52  1  0.10942478  0.41632520  0.11885075  1
  Na  Na53  1  0.10957502  0.41785391  0.36965702  1
  Na  Na54  1  0.11029294  0.41640290  0.61894105  1
  Na  Na55  1  0.11006834  0.41658362  0.86786125  1
  Na  Na56  1  0.10989748  0.75024128  0.11889371  1
  Na  Na57  1  0.10952867  0.75159184  0.36901854  1
  Na  Na58  1  0.10977691  0.75097956  0.61872998  1
  Na  Na59  1  0.11031563  0.74986768  0.86726155  1
  Na  Na60  1  0.61009872  0.08239354  0.11699255  1
  Na  Na61  1  0.60982411  0.08372650  0.36919635  1
  Na  Na62  1  0.60956096  0.08262325  0.61928646  1
  Na  Na63  1  0.60987838  0.08154310  0.86996248  1
  Na  Na64  1  0.60952233  0.41608977  0.11761917  1
  Na  Na65  1  0.60995536  0.41657946  0.36891870  1
  Na  Na66  1  0.61019397  0.41601455  0.61821490  1
  Na  Na67  1  0.61022871  0.41621197  0.86926812  1
  Na  Na68  1  0.60991698  0.74918048  0.11687539  1
  Na  Na69  1  0.60971552  0.74977459  0.36877781  1
  Na  Na70  1  0.61010035  0.75066745  0.61952527  1
  Na  Na71  1  0.61041392  0.74958669  0.86870048  1
  Na  Na72  1  0.39029529  0.24860989  0.13076598  1
  Na  Na73  1  0.38953735  0.24976667  0.38176175  1
  Na  Na74  1  0.38973838  0.24930559  0.63085274  1
  Na  Na75  1  0.39059934  0.24943339  0.88227704  1
  Na  Na76  1  0.39049455  0.58296085  0.12904594  1
  Na  Na77  1  0.39006736  0.58367362  0.38133269  1
  Na  Na78  1  0.39029947  0.58378437  0.63144807  1
  Na  Na79  1  0.39042443  0.58299117  0.88259337  1
  Na  Na80  1  0.39025400  0.91582532  0.12957150  1
  Na  Na81  1  0.39100473  0.91714486  0.38075112  1
  Na  Na82  1  0.38998996  0.91590767  0.63191118  1
  Na  Na83  1  0.38993923  0.91563015  0.88277746  1
  Na  Na84  1  0.89025362  0.24908642  0.13055942  1
  Na  Na85  1  0.89001106  0.25090013  0.38216415  1
  Na  Na86  1  0.89029023  0.25115874  0.63144575  1
  Na  Na87  1  0.89045969  0.25090374  0.88161644  1
  Na  Na88  1  0.88985843  0.58386780  0.13102357  1
  Na  Na89  1  0.88999254  0.58527947  0.38150373  1
  Na  Na90  1  0.89047164  0.58309210  0.63137363  1
  Na  Na91  1  0.89024718  0.58199249  0.88147815  1
  Na  Na92  1  0.89041674  0.91657177  0.13116767  1
  Na  Na93  1  0.89067896  0.91831211  0.38168729  1
  Na  Na94  1  0.88958863  0.91698228  0.63125359  1
  Na  Na95  1  0.88978300  0.91691054  0.88133255  1
  Mn  Mn96  1  0.75002640  0.16711609  0.62572392  1
  Mn  Mn97  1  0.75039261  0.83248060  0.37405330  1
  Mn  Mn98  1  0.75064771  0.66701522  0.62497036  1
  Mn  Mn99  1  0.75036981  0.49930964  0.62479925  1
  Mn  Mn100  1  0.49995948  0.16561144  0.75101806  1
  Mn  Mn101  1  0.50039620  0.66716958  0.75111921  1
  Mn  Mn102  1  0.50037061  0.00045285  0.50055727  1
  Mn  Mn103  1  0.50048421  0.33257251  0.75031359  1
  Mn  Mn104  1  0.00027415  0.16632205  0.25081627  1
  Mn  Mn105  1  -0.00060633  0.16751149  0.74965335  1
  Mn  Mn106  1  0.24985332  0.66622247  0.62578085  1
  Mn  Mn107  1  0.25093640  0.33378933  0.87468770  1
  Mn  Mn108  1  0.24995353  -0.00011475  0.62490025  1
  Mn  Mn109  1  0.75006556  0.16602279  0.87445631  1
  Mn  Mn110  1  0.24988311  0.49967807  0.37504542  1
  Mn  Mn111  1  -0.00047726  0.50154386  0.24923015  1
  Mn  Mn112  1  0.50022986  0.49989116  0.75013161  1
  Mn  Mn113  1  0.49878952  -0.00131923  0.75032985  1
  Mn  Mn114  1  0.25072850  0.83266110  0.37478598  1
  Mn  Mn115  1  0.24989560  0.00007518  0.12512728  1
  Mn  Mn116  1  0.00086952  0.00053606  -0.00005582  1
  Mn  Mn117  1  -0.00029775  0.33366544  0.25039084  1
  Mn  Mn118  1  0.00092201  0.49890202  0.00071676  1
  Mn  Mn119  1  0.74973460  0.16737974  0.37590660  1
  Mn  Mn120  1  0.24908938  0.33268147  0.12525321  1
  Mn  Mn121  1  0.49992135  0.49988572  0.24910305  1
  Mn  Mn122  1  0.49991525  0.83372783  0.24919388  1
  Mn  Mn123  1  0.49957400  0.33239507  0.49958856  1
  Mn  Mn124  1  0.25046660  0.66799574  0.12362670  1
  Mn  Mn125  1  0.00007771  0.66780452  0.50084935  1
  Mn  Mn126  1  0.74967722  -0.00003886  0.37499229  1
  Mn  Mn127  1  0.00008157  0.66615337  -0.00099847  1
  Mn  Mn128  1  0.74945726  0.50094111  0.12510946  1
  Mn  Mn129  1  -0.00023865  0.33449618  0.50061218  1
  Mn  Mn130  1  0.49962940  0.50056383  0.49973171  1
  Mn  Mn131  1  0.50017491  0.66638286  0.24887845  1
  Mn  Mn132  1  0.25050895  0.00083224  0.37459273  1
  Mn  Mn133  1  0.50033953  0.83307441  0.49975334  1
  Mn  Mn134  1  0.50071383  0.16565426  0.24940576  1
  Mn  Mn135  1  0.49952957  0.33262132  0.24949727  1
  Mn  Mn136  1  0.00013095  0.83299207  0.00048668  1
  Mn  Mn137  1  0.74984580  0.83307357  0.12450824  1
  Mn  Mn138  1  -0.00023638  0.66654231  0.74923869  1
  Mn  Mn139  1  0.74944563  0.33306271  0.12520281  1
  Mn  Mn140  1  0.00028203  0.83431851  0.25014697  1
  Mn  Mn141  1  0.24979727  0.50068458  0.12555168  1
  Mn  Mn142  1  -0.00091039  -0.00020744  0.74942502  1
  Mn  Mn143  1  0.25043001  0.16586302  0.87455803  1
  Fe  Fe144  1  0.50006032  0.33242807  -0.00002628  1
  Fe  Fe145  1  0.50042970  0.66631058  -0.00052868  1
  Fe  Fe146  1  0.25064342  0.49985800  0.62511527  1
  Fe  Fe147  1  0.75057759  0.66713605  0.87453699  1
  Fe  Fe148  1  0.75021312  0.66655741  0.12453572  1
  Fe  Fe149  1  0.49968380  0.83266561  0.75067931  1
  Fe  Fe150  1  0.75036979  0.33304772  0.87523632  1
  Fe  Fe151  1  0.00000451  0.00098483  0.25082462  1
  Fe  Fe152  1  0.74985374  0.33389429  0.62506402  1
  Fe  Fe153  1  0.75070303  0.00007844  0.12465459  1
  Fe  Fe154  1  0.25019188  0.66716771  0.87439585  1
  Fe  Fe155  1  0.50023931  -0.00119004  -0.00047461  1
  Fe  Fe156  1  0.75020967  0.50005899  0.87494291  1
  Fe  Fe157  1  0.24974301  0.83387678  0.87482448  1
  Fe  Fe158  1  0.00016388  0.49953312  0.75041918  1
  Fe  Fe159  1  0.24970898  0.66649677  0.37518515  1
  Fe  Fe160  1  -0.00012992  0.33302621  -0.00047673  1
  Fe  Fe161  1  0.49968119  0.16549243  0.00044112  1
  Fe  Fe162  1  0.50039143  0.83279037  0.00016609  1
  Fe  Fe163  1  0.24904239  -0.00023118  0.87486232  1
  Fe  Fe164  1  0.74949582  -0.00058006  0.62598327  1
  Fe  Fe165  1  0.74978028  0.83333182  0.62591926  1
  Fe  Fe166  1  0.75033358  0.33381299  0.37471721  1
  Fe  Fe167  1  0.49977229  0.16631535  0.49982142  1
  Fe  Fe168  1  0.74995325  -0.00018980  0.87522866  1
  Fe  Fe169  1  -0.00011320  0.50087160  0.50030331  1
  Fe  Fe170  1  0.24969917  0.83351807  0.12436654  1
  Fe  Fe171  1  0.00060811  0.33361515  0.74989524  1
  Fe  Fe172  1  0.25024680  0.33327169  0.62501503  1
  Fe  Fe173  1  0.75034187  0.16681189  0.12475789  1
  Fe  Fe174  1  0.24990807  0.50000075  0.87460301  1
  Fe  Fe175  1  0.74945977  0.66628215  0.37518194  1
  Fe  Fe176  1  0.24985263  0.16728436  0.37573375  1
  Fe  Fe177  1  0.75038228  0.83367874  0.87517858  1
  Fe  Fe178  1  0.50038209  0.49903887  -0.00017492  1
  Fe  Fe179  1  0.00020773  0.66771320  0.25074181  1
  Fe  Fe180  1  0.24942014  0.33275513  0.37561372  1
  Fe  Fe181  1  0.50013036  0.66703782  0.50022288  1
  Fe  Fe182  1  0.50024931  -0.00028162  0.24913918  1
  Fe  Fe183  1  -0.00049729  0.83465698  0.49951119  1
  Fe  Fe184  1  0.25005019  0.83320788  0.62544302  1
  Fe  Fe185  1  -0.00010211  0.83374144  0.74934930  1
  Fe  Fe186  1  -0.00029789  0.16717655  0.50048881  1
  Fe  Fe187  1  0.75001730  0.50003069  0.37489227  1
  Fe  Fe188  1  -0.00016672  0.16701702  -0.00029393  1
  Fe  Fe189  1  0.24958998  0.16682855  0.62539200  1
  Fe  Fe190  1  0.24986391  0.16691531  0.12558921  1
  Fe  Fe191  1  -0.00027497  0.00064361  0.50030122  1
  P  P192  1  0.04146651  0.24989130  0.10147372  1
  P  P193  1  0.04229746  0.25025856  0.35424269  1
  P  P194  1  0.04191353  0.24973465  0.60285798  1
  P  P195  1  0.04217808  0.25147938  0.85286052  1
  P  P196  1  0.04326047  0.58399903  0.10331756  1
  P  P197  1  0.04194559  0.58529817  0.35316327  1
  P  P198  1  0.04220141  0.58214993  0.60312094  1
  P  P199  1  0.04244263  0.58198492  0.85191051  1
  P  P200  1  0.04319054  0.91706992  0.10365721  1
  P  P201  1  0.04207279  0.91913044  0.35353370  1
  P  P202  1  0.04113660  0.91683370  0.60164465  1
  P  P203  1  0.04216534  0.91581227  0.85197073  1
  P  P204  1  0.54175663  0.24903769  0.10120118  1
  P  P205  1  0.54261640  0.24925459  0.35316433  1
  P  P206  1  0.54245028  0.24810939  0.60240955  1
  P  P207  1  0.54268795  0.24927415  0.85477344  1
  P  P208  1  0.54189331  0.58271392  0.10055416  1
  P  P209  1  0.54254566  0.58360984  0.35310463  1
  P  P210  1  0.54253354  0.58493737  0.60250631  1
  P  P211  1  0.54269970  0.58283751  0.85440222  1
  P  P212  1  0.54181107  0.91633147  0.10136745  1
  P  P213  1  0.54282648  0.91804176  0.35179705  1
  P  P214  1  0.54249275  0.91595454  0.60388139  1
  P  P215  1  0.54162507  0.91465288  0.85358679  1
  P  P216  1  0.45833121  0.08129629  0.14618737  1
  P  P217  1  0.45760078  0.08409826  0.39720709  1
  P  P218  1  0.45679480  0.08312024  0.64697136  1
  P  P219  1  0.45824707  0.08238602  0.89887399  1
  P  P220  1  0.45732627  0.41593773  0.14529177  1
  P  P221  1  0.45654680  0.41655326  0.39667182  1
  P  P222  1  0.45743120  0.41626942  0.64696804  1
  P  P223  1  0.45866557  0.41596584  0.89858277  1
  P  P224  1  0.45782574  0.74988608  0.14514630  1
  P  P225  1  0.45760573  0.74900974  0.39732568  1
  P  P226  1  0.45754784  0.75065270  0.64786938  1
  P  P227  1  0.45900612  0.75020826  0.89837515  1
  P  P228  1  0.95803645  0.08260627  0.14751539  1
  P  P229  1  0.95807816  0.08372561  0.39886059  1
  P  P230  1  0.95686519  0.08364617  0.64590311  1
  P  P231  1  0.95762712  0.08472592  0.89752169  1
  P  P232  1  0.95683019  0.41616938  0.14654094  1
  P  P233  1  0.95760236  0.41915146  0.39784604  1
  P  P234  1  0.95862662  0.41713398  0.64850669  1
  P  P235  1  0.95848828  0.41545152  0.89686423  1
  P  P236  1  0.95755022  0.74902760  0.14794575  1
  P  P237  1  0.95784275  0.75200589  0.39751821  1
  P  P238  1  0.95768070  0.75197561  0.64693598  1
  P  P239  1  0.95750299  0.75030979  0.89587681  1
  P  P240  1  0.20775377  0.08529931  0.22805377  1
  P  P241  1  0.20820838  0.08471070  0.47807921  1
  P  P242  1  0.20722691  0.08411206  0.72756764  1
  P  P243  1  0.20765524  0.08189224  0.97764003  1
  P  P244  1  0.20679393  0.41648020  0.22884914  1
  P  P245  1  0.20794502  0.41496351  0.47841605  1
  P  P246  1  0.20914058  0.41714891  0.72671092  1
  P  P247  1  0.20778551  0.41773210  0.97713425  1
  P  P248  1  0.20783135  0.75145346  0.22733170  1
  P  P249  1  0.20774348  0.74841400  0.47793606  1
  P  P250  1  0.20793562  0.75149835  0.72834750  1
  P  P251  1  0.20844732  0.75066532  0.97611725  1
  P  P252  1  0.70873467  0.08371075  0.22618658  1
  P  P253  1  0.70743254  0.08299373  0.47919609  1
  P  P254  1  0.70771590  0.08172561  0.72816274  1
  P  P255  1  0.70845214  0.08189637  0.97809970  1
  P  P256  1  0.70703797  0.41714447  0.22868889  1
  P  P257  1  0.70867187  0.41644969  0.47669591  1
  P  P258  1  0.70793283  0.41549395  0.72844211  1
  P  P259  1  0.70906155  0.41654931  0.97641019  1
  P  P260  1  0.70764738  0.74799910  0.22710126  1
  P  P261  1  0.70790419  0.74913078  0.47766049  1
  P  P262  1  0.70844394  0.75097786  0.72866835  1
  P  P263  1  0.70914798  0.74985623  0.97641631  1
  P  P264  1  0.29199280  0.24839289  0.02271757  1
  P  P265  1  0.29125832  0.24983780  0.27344961  1
  P  P266  1  0.29101034  0.24962524  0.52310116  1
  P  P267  1  0.29292633  0.25003116  0.77105697  1
  P  P268  1  0.29228446  0.58338623  0.02041877  1
  P  P269  1  0.29230341  0.58489104  0.27250696  1
  P  P270  1  0.29198308  0.58198181  0.52255779  1
  P  P271  1  0.29158223  0.58305671  0.77320354  1
  P  P272  1  0.29154349  0.91526017  0.02148964  1
  P  P273  1  0.29304167  0.91678626  0.27127135  1
  P  P274  1  0.29239965  0.91500610  0.52270232  1
  P  P275  1  0.29128638  0.91689883  0.77320244  1
  P  P276  1  0.79186515  0.24912556  0.02206684  1
  P  P277  1  0.79227427  0.25097705  0.27253583  1
  P  P278  1  0.79230544  0.25188594  0.52261641  1
  P  P279  1  0.79218270  0.25146137  0.77233049  1
  P  P280  1  0.79196999  0.58480572  0.02143752  1
  P  P281  1  0.79142197  0.58367364  0.27327652  1
  P  P282  1  0.79262520  0.58321579  0.52108260  1
  P  P283  1  0.79165276  0.58349389  0.77340044  1
  P  P284  1  0.79226651  0.91785454  0.02190995  1
  P  P285  1  0.79276972  0.91695109  0.27118461  1
  P  P286  1  0.79084449  0.91619522  0.52391013  1
  P  P287  1  0.79108805  0.91702474  0.77300269  1
  O  O288  1  0.03651333  0.24980482  0.18150363  1
  O  O289  1  0.03698140  0.24991455  0.43416516  1
  O  O290  1  0.03683739  0.25025846  0.68282522  1
  O  O291  1  0.03679998  0.25125035  0.93279224  1
  O  O292  1  0.03799031  0.58491300  0.18330245  1
  O  O293  1  0.03658858  0.58476494  0.43313131  1
  O  O294  1  0.03681252  0.58183441  0.68306252  1
  O  O295  1  0.03766642  0.58207202  0.93190344  1
  O  O296  1  0.03809914  0.91764276  0.18362091  1
  O  O297  1  0.03648106  0.91882882  0.43343530  1
  O  O298  1  0.03590791  0.91625288  0.68164654  1
  O  O299  1  0.03751964  0.91603782  0.93198974  1
  O  O300  1  0.53677438  0.24921615  0.18122773  1
  O  O301  1  0.53745565  0.24878139  0.43312439  1
  O  O302  1  0.53755414  0.24847941  0.68245789  1
  O  O303  1  0.53716613  0.24936797  0.93470150  1
  O  O304  1  0.53702476  0.58293235  0.18058143  1
  O  O305  1  0.53740235  0.58430938  0.43308329  1
  O  O306  1  0.53748240  0.58455024  0.68254731  1
  O  O307  1  0.53741795  0.58261108  0.93428804  1
  O  O308  1  0.53708048  0.91715879  0.18135701  1
  O  O309  1  0.53780291  0.91772993  0.43179657  1
  O  O310  1  0.53697400  0.91526807  0.68381153  1
  O  O311  1  0.53644006  0.91477843  0.93351885  1
  O  O312  1  0.46358243  0.08167194  0.06627851  1
  O  O313  1  0.46280068  0.08337057  0.31724350  1
  O  O314  1  0.46192821  0.08376023  0.56700787  1
  O  O315  1  0.46269178  0.08203414  0.81884808  1
  O  O316  1  0.46292383  0.41567185  0.06534699  1
  O  O317  1  0.46148653  0.41644578  0.31662973  1
  O  O318  1  0.46223968  0.41640359  0.56697678  1
  O  O319  1  0.46368373  0.41593499  0.81855807  1
  O  O320  1  0.46340820  0.74986919  0.06524605  1
  O  O321  1  0.46273421  0.74930551  0.31732387  1
  O  O322  1  0.46261887  0.74994671  0.56788349  1
  O  O323  1  0.46370991  0.75057548  0.81837249  1
  O  O324  1  0.96330150  0.08347117  0.06759354  1
  O  O325  1  0.96321353  0.08320988  0.31883010  1
  O  O326  1  0.96233347  0.08366431  0.56599976  1
  O  O327  1  0.96245055  0.08443267  0.81751927  1
  O  O328  1  0.96229070  0.41537686  0.06657357  1
  O  O329  1  0.96256639  0.41886841  0.31788878  1
  O  O330  1  0.96362099  0.41790610  0.56851921  1
  O  O331  1  0.96376476  0.41576919  0.81694939  1
  O  O332  1  0.96257215  0.74904189  0.06792077  1
  O  O333  1  0.96334518  0.75128104  0.31759981  1
  O  O334  1  0.96294633  0.75227687  0.56696978  1
  O  O335  1  0.96270248  0.75108900  0.81588201  1
  O  O336  1  0.21283252  0.08239909  0.05755150  1
  O  O337  1  0.21313256  0.08553454  0.30800078  1
  O  O338  1  0.21332194  0.08457982  0.55802343  1
  O  O339  1  0.21256263  0.08299198  0.80751104  1
  O  O340  1  0.21237639  0.41741191  0.05715234  1
  O  O341  1  0.21203192  0.41577090  0.30879773  1
  O  O342  1  0.21382650  0.41521900  0.55825847  1
  O  O343  1  0.21431497  0.41777737  0.80667321  1
  O  O344  1  0.21316910  0.75084928  0.05612358  1
  O  O345  1  0.21312736  0.75048946  0.30724411  1
  O  O346  1  0.21275572  0.74881907  0.55790462  1
  O  O347  1  0.21343600  0.75147997  0.80821167  1
  O  O348  1  0.71405665  0.08224315  0.05794299  1
  O  O349  1  0.71349905  0.08380001  0.30625822  1
  O  O350  1  0.71276166  0.08262811  0.55912000  1
  O  O351  1  0.71302242  0.08167788  0.80811998  1
  O  O352  1  0.71328116  0.41706494  0.05641933  1
  O  O353  1  0.71244798  0.41712181  0.30858422  1
  O  O354  1  0.71374509  0.41607097  0.55672912  1
  O  O355  1  0.71351000  0.41562246  0.80831993  1
  O  O356  1  0.71369418  0.74982397  0.05639512  1
  O  O357  1  0.71275897  0.74793977  0.30707776  1
  O  O358  1  0.71309398  0.74990277  0.55759629  1
  O  O359  1  0.71408136  0.75057724  0.80851307  1
  O  O360  1  0.28608470  0.24932904  0.19346097  1
  O  O361  1  0.28556840  0.24975517  0.44318033  1
  O  O362  1  0.28743657  0.25014147  0.69117118  1
  O  O363  1  0.28745448  0.24866906  0.94273114  1
  O  O364  1  0.28715605  0.58489663  0.19250723  1
  O  O365  1  0.28668899  0.58278689  0.44265544  1
  O  O366  1  0.28688034  0.58273798  0.69315943  1
  O  O367  1  0.28683399  0.58310761  0.94053024  1
  O  O368  1  0.28750127  0.91650314  0.19134218  1
  O  O369  1  0.28754199  0.91533893  0.44273308  1
  O  O370  1  0.28624907  0.91649272  0.69319483  1
  O  O371  1  0.28591879  0.91570026  0.94162031  1
  O  O372  1  0.78681959  0.25004387  0.19260098  1
  O  O373  1  0.78690497  0.25184891  0.44264569  1
  O  O374  1  0.78669869  0.25177649  0.69241265  1
  O  O375  1  0.78664455  0.24951438  0.94212471  1
  O  O376  1  0.78655029  0.58393104  0.19325142  1
  O  O377  1  0.78709729  0.58314599  0.44120996  1
  O  O378  1  0.78698304  0.58292675  0.69339488  1
  O  O379  1  0.78675286  0.58450956  0.94153924  1
  O  O380  1  0.78771549  0.91731370  0.19123830  1
  O  O381  1  0.78606726  0.91627125  0.44390418  1
  O  O382  1  0.78572523  0.91661895  0.69312026  1
  O  O383  1  0.78704281  0.91776949  0.94200247  1
  O  O384  1  0.22750412  0.24815117  0.05786074  1
  O  O385  1  0.22713156  0.25008170  0.30966475  1
  O  O386  1  0.22714900  0.24979250  0.56001708  1
  O  O387  1  0.22874420  0.25007739  0.80688133  1
  O  O388  1  0.22818760  0.58381403  0.05648125  1
  O  O389  1  0.22799642  0.58475443  0.30817084  1
  O  O390  1  0.22781107  0.58169641  0.55855959  1
  O  O391  1  0.22735490  0.58270097  0.80887913  1
  O  O392  1  0.22755634  0.91525843  0.05803078  1
  O  O393  1  0.22882004  0.91682321  0.30694578  1
  O  O394  1  0.22800673  0.91515831  0.55812517  1
  O  O395  1  0.22705247  0.91703775  0.80915622  1
  O  O396  1  0.72764521  0.24847817  0.05793457  1
  O  O397  1  0.72804205  0.25168055  0.30845262  1
  O  O398  1  0.72810314  0.25189171  0.55861010  1
  O  O399  1  0.72802526  0.25106100  0.80831590  1
  O  O400  1  0.72774855  0.58520676  0.05750055  1
  O  O401  1  0.72727976  0.58323514  0.30937625  1
  O  O402  1  0.72852376  0.58324600  0.55710114  1
  O  O403  1  0.72748739  0.58407812  0.80913910  1
  O  O404  1  0.72810496  0.91797788  0.05798765  1
  O  O405  1  0.72835705  0.91636283  0.30636415  1
  O  O406  1  0.72673737  0.91571604  0.55992401  1
  O  O407  1  0.72718714  0.91728116  0.80970647  1
  O  O408  1  0.27195707  0.08508718  0.19205957  1
  O  O409  1  0.27239281  0.08492760  0.44215742  1
  O  O410  1  0.27146695  0.08456027  0.69175355  1
  O  O411  1  0.27192855  0.08110264  0.94182542  1
  O  O412  1  0.27107488  0.41635247  0.19330506  1
  O  O413  1  0.27185436  0.41468981  0.44164526  1
  O  O414  1  0.27323566  0.41672035  0.69057168  1
  O  O415  1  0.27230082  0.41837580  0.94204809  1
  O  O416  1  0.27205605  0.75231627  0.19130168  1
  O  O417  1  0.27208822  0.74784286  0.44230153  1
  O  O418  1  0.27203100  0.75130957  0.69209010  1
  O  O419  1  0.27263319  0.75110049  0.94026902  1
  O  O420  1  0.77300844  0.08396474  0.19047848  1
  O  O421  1  0.77167598  0.08328406  0.44354582  1
  O  O422  1  0.77186702  0.08204162  0.69223560  1
  O  O423  1  0.77245743  0.08172874  0.94159854  1
  O  O424  1  0.77124085  0.41705545  0.19288882  1
  O  O425  1  0.77275842  0.41674857  0.44046217  1
  O  O426  1  0.77213713  0.41494912  0.69223543  1
  O  O427  1  0.77330781  0.41631304  0.94088223  1
  O  O428  1  0.77198631  0.74834419  0.19148388  1
  O  O429  1  0.77213232  0.74851846  0.44175747  1
  O  O430  1  0.77247192  0.75159579  0.69218938  1
  O  O431  1  0.77329189  0.74958518  0.94052913  1
  O  O432  1  0.02226822  0.08198124  0.18339134  1
  O  O433  1  0.02223561  0.08356686  0.43483454  1
  O  O434  1  0.02104359  0.08351266  0.68159007  1
  O  O435  1  0.02202648  0.08528215  0.93275220  1
  O  O436  1  0.02115417  0.41701829  0.18183809  1
  O  O437  1  0.02191428  0.41892008  0.43331330  1
  O  O438  1  0.02286869  0.41692293  0.68434722  1
  O  O439  1  0.02263719  0.41483934  0.93289242  1
  O  O440  1  0.02193486  0.74911128  0.18326236  1
  O  O441  1  0.02198553  0.75235761  0.43347884  1
  O  O442  1  0.02192524  0.75149007  0.68262799  1
  O  O443  1  0.02188002  0.75016805  0.93109433  1
  O  O444  1  0.52252918  0.08110338  0.18219458  1
  O  O445  1  0.52190275  0.08482807  0.43292905  1
  O  O446  1  0.52113122  0.08216788  0.68220723  1
  O  O447  1  0.52254367  0.08337575  0.93416309  1
  O  O448  1  0.52152400  0.41606993  0.18104621  1
  O  O449  1  0.52101920  0.41651429  0.43154409  1
  O  O450  1  0.52196057  0.41637435  0.68173515  1
  O  O451  1  0.52288137  0.41577961  0.93428258  1
  O  O452  1  0.52198650  0.75024161  0.18095370  1
  O  O453  1  0.52198410  0.74856504  0.43276355  1
  O  O454  1  0.52191260  0.75143478  0.68337689  1
  O  O455  1  0.52320896  0.75056379  0.93404198  1
  O  O456  1  0.47750294  0.24880931  0.06554755  1
  O  O457  1  0.47826211  0.24887104  0.31795794  1
  O  O458  1  0.47803164  0.24774341  0.56708593  1
  O  O459  1  0.47847696  0.24931159  0.81905212  1
  O  O460  1  0.47768433  0.58219975  0.06501085  1
  O  O461  1  0.47821281  0.58335264  0.31779806  1
  O  O462  1  0.47814371  0.58526190  0.56716300  1
  O  O463  1  0.47846701  0.58315021  0.81877706  1
  O  O464  1  0.47762076  0.91515304  0.06566413  1
  O  O465  1  0.47842545  0.91829575  0.31640969  1
  O  O466  1  0.47830133  0.91633352  0.56829651  1
  O  O467  1  0.47740212  0.91390576  0.81763373  1
  O  O468  1  0.97729491  0.24975228  0.06555808  1
  O  O469  1  0.97804414  0.25008502  0.31877226  1
  O  O470  1  0.97768767  0.24975741  0.56722325  1
  O  O471  1  0.97801425  0.25231035  0.81685620  1
  O  O472  1  0.97885788  0.58320361  0.06821532  1
  O  O473  1  0.97775725  0.58576883  0.31720520  1
  O  O474  1  0.97799021  0.58268200  0.56733627  1
  O  O475  1  0.97802954  0.58196681  0.81672743  1
  O  O476  1  0.97883385  0.91711387  0.06841715  1
  O  O477  1  0.97803749  0.91909375  0.31717412  1
  O  O478  1  0.97698472  0.91736925  0.56562457  1
  O  O479  1  0.97766347  0.91536670  0.81697039  1
  O  O480  1  0.07224180  0.31363933  0.07349151  1
  O  O481  1  0.07302453  0.31401171  0.32616936  1
  O  O482  1  0.07333063  0.31310462  0.57497981  1
  O  O483  1  0.07360562  0.31453527  0.82394171  1
  O  O484  1  0.07426587  0.64708329  0.07411878  1
  O  O485  1  0.07264249  0.64906545  0.32502807  1
  O  O486  1  0.07351889  0.64590410  0.57583008  1
  O  O487  1  0.07335243  0.64565698  0.82404888  1
  O  O488  1  0.07461416  0.98005960  0.07486924  1
  O  O489  1  0.07283855  0.98267859  0.32494910  1
  O  O490  1  0.07221492  0.98059493  0.57399836  1
  O  O491  1  0.07268419  0.97975677  0.82405958  1
  O  O492  1  0.57242319  0.31281822  0.07308950  1
  O  O493  1  0.57316054  0.31312147  0.32512152  1
  O  O494  1  0.57322458  0.31191117  0.57451312  1
  O  O495  1  0.57391717  0.31255219  0.82615058  1
  O  O496  1  0.57207344  0.64677387  0.07226636  1
  O  O497  1  0.57380479  0.64670622  0.32428183  1
  O  O498  1  0.57326687  0.64852969  0.57424330  1
  O  O499  1  0.57397343  0.64623451  0.82613136  1
  O  O500  1  0.57181193  0.98016337  0.07217116  1
  O  O501  1  0.57353752  0.98153254  0.32323259  1
  O  O502  1  0.57370038  0.97955066  0.57620045  1
  O  O503  1  0.57213404  0.97865298  0.82561672  1
  O  O504  1  0.42752397  0.01782716  0.17488252  1
  O  O505  1  0.42668328  0.02055528  0.42554935  1
  O  O506  1  0.42539108  0.01961572  0.67483685  1
  O  O507  1  0.42846517  0.01812322  0.92727167  1
  O  O508  1  0.42609481  0.35259062  0.17381839  1
  O  O509  1  0.42557522  0.35307388  0.42493409  1
  O  O510  1  0.42667683  0.35269779  0.67520162  1
  O  O511  1  0.42765561  0.35235374  0.92659684  1
  O  O512  1  0.42675126  0.68631757  0.17326478  1
  O  O513  1  0.42684159  0.68565435  0.42608165  1
  O  O514  1  0.42669089  0.68712314  0.67641128  1
  O  O515  1  0.42905173  0.68577798  0.92623637  1
  O  O516  1  0.92721407  0.01904684  0.17582894  1
  O  O517  1  0.92670630  0.02049511  0.42727668  1
  O  O518  1  0.92560224  0.02029609  0.67436981  1
  O  O519  1  0.92700284  0.02089744  0.92538835  1
  O  O520  1  0.92597336  0.35284023  0.17533024  1
  O  O521  1  0.92642127  0.35560934  0.42573180  1
  O  O522  1  0.92810372  0.35309822  0.67621761  1
  O  O523  1  0.92724399  0.35226766  0.92565165  1
  O  O524  1  0.92694118  0.68554317  0.17666276  1
  O  O525  1  0.92656708  0.68874087  0.42587837  1
  O  O526  1  0.92648037  0.68813123  0.67424374  1
  O  O527  1  0.92673790  0.68637174  0.92344400  1
  O  O528  1  0.17663015  0.02157873  0.20050269  1
  O  O529  1  0.17751294  0.02076758  0.45027779  1
  O  O530  1  0.17600511  0.02083116  0.69903347  1
  O  O531  1  0.17659257  0.01844965  0.94923932  1
  O  O532  1  0.17536352  0.35341814  0.20008333  1
  O  O533  1  0.17678922  0.35163200  0.44991618  1
  O  O534  1  0.17810421  0.35336094  0.69913063  1
  O  O535  1  0.17749465  0.35372700  0.94902230  1
  O  O536  1  0.17698280  0.68794877  0.19886692  1
  O  O537  1  0.17699428  0.68482579  0.44944625  1
  O  O538  1  0.17652488  0.68791998  0.70066560  1
  O  O539  1  0.17848791  0.68644604  0.94767685  1
  O  O540  1  0.67828363  0.01977813  0.19813538  1
  O  O541  1  0.67622311  0.01976988  0.45059775  1
  O  O542  1  0.67692738  0.01826722  0.69961801  1
  O  O543  1  0.67734755  0.01851076  0.94958985  1
  O  O544  1  0.67572607  0.35384598  0.20012779  1
  O  O545  1  0.67778985  0.35289149  0.44839741  1
  O  O546  1  0.67655451  0.35243109  0.69960992  1
  O  O547  1  0.67815721  0.35276406  0.94876920  1
  O  O548  1  0.67698562  0.68467163  0.19804038  1
  O  O549  1  0.67707473  0.68548477  0.44951647  1
  O  O550  1  0.67751724  0.68728383  0.70055958  1
  O  O551  1  0.67778468  0.68670479  0.94794865  1
  O  O552  1  0.32277781  0.31211471  0.05065792  1
  O  O553  1  0.32196417  0.31371557  0.30135815  1
  O  O554  1  0.32214312  0.31319834  0.55129734  1
  O  O555  1  0.32417814  0.31336868  0.79957683  1
  O  O556  1  0.32368415  0.64690504  0.04824246  1
  O  O557  1  0.32284411  0.64852603  0.30092625  1
  O  O558  1  0.32324057  0.64521246  0.55110249  1
  O  O559  1  0.32149732  0.64750581  0.80118044  1
  O  O560  1  0.32298546  0.97859962  0.04962776  1
  O  O561  1  0.32389734  0.98052982  0.29927332  1
  O  O562  1  0.32360638  0.97856603  0.55046995  1
  O  O563  1  0.32181823  0.98085505  0.80117745  1
  O  O564  1  0.82277568  0.31272499  0.05012987  1
  O  O565  1  0.82325153  0.31462888  0.30050536  1
  O  O566  1  0.82333751  0.31518744  0.55112410  1
  O  O567  1  0.82308762  0.31461157  0.80143339  1
  O  O568  1  0.82294435  0.64814991  0.05028208  1
  O  O569  1  0.82206089  0.64733566  0.30171874  1
  O  O570  1  0.82395808  0.64652316  0.54949499  1
  O  O571  1  0.82304442  0.64703017  0.80079523  1
  O  O572  1  0.82334862  0.98110054  0.05077392  1
  O  O573  1  0.82364421  0.98025683  0.30001719  1
  O  O574  1  0.82118871  0.98015475  0.55215727  1
  O  O575  1  0.82242553  0.98049599  0.80103589  1
  O  O576  1  0.42719709  0.14484371  0.17444445  1
  O  O577  1  0.42672408  0.14765217  0.42557997  1
  O  O578  1  0.42603795  0.14641751  0.67591837  1
  O  O579  1  0.42668440  0.14563266  0.92682107  1
  O  O580  1  0.42608457  0.47942168  0.17342543  1
  O  O581  1  0.42559628  0.48005369  0.42482132  1
  O  O582  1  0.42649307  0.47981226  0.67523144  1
  O  O583  1  0.42796810  0.47981124  0.92644618  1
  O  O584  1  0.42641932  0.81309230  0.17368534  1
  O  O585  1  0.42684663  0.81291809  0.42499205  1
  O  O586  1  0.42656769  0.81409358  0.67635021  1
  O  O587  1  0.42737650  0.81314053  0.92692254  1
  O  O588  1  0.92707536  0.14612295  0.17597668  1
  O  O589  1  0.92769244  0.14785878  0.42675689  1
  O  O590  1  0.92563005  0.14697191  0.67431966  1
  O  O591  1  0.92678831  0.14823577  0.92591820  1
  O  O592  1  0.92544918  0.47977849  0.17407352  1
  O  O593  1  0.92719133  0.48285469  0.42632169  1
  O  O594  1  0.92753566  0.48045429  0.67730533  1
  O  O595  1  0.92760464  0.47914284  0.92510205  1
  O  O596  1  0.92649227  0.81275217  0.17557622  1
  O  O597  1  0.92698215  0.81578886  0.42540903  1
  O  O598  1  0.92699297  0.81531353  0.67593340  1
  O  O599  1  0.92618121  0.81326219  0.92495196  1
  O  O600  1  0.07217923  0.18613338  0.07328362  1
  O  O601  1  0.07373083  0.18711851  0.32573864  1
  O  O602  1  0.07232084  0.18591254  0.57444496  1
  O  O603  1  0.07289607  0.18763073  0.82482539  1
  O  O604  1  0.07446557  0.52026546  0.07581226  1
  O  O605  1  0.07308865  0.52184117  0.32502853  1
  O  O606  1  0.07277516  0.51875327  0.57406559  1
  O  O607  1  0.07315001  0.51844070  0.82344328  1
  O  O608  1  0.07380173  0.85317401  0.07566978  1
  O  O609  1  0.07350208  0.85566378  0.32556356  1
  O  O610  1  0.07193929  0.85331823  0.57301035  1
  O  O611  1  0.07303903  0.85249595  0.82319026  1
  O  O612  1  0.57266241  0.18528696  0.07351774  1
  O  O613  1  0.57430386  0.18631283  0.32449569  1
  O  O614  1  0.57318168  0.18458620  0.57402808  1
  O  O615  1  0.57382876  0.18578248  0.82650217  1
  O  O616  1  0.57323594  0.51924477  0.07270805  1
  O  O617  1  0.57338593  0.51984659  0.32511900  1
  O  O618  1  0.57343369  0.52118090  0.57466016  1
  O  O619  1  0.57377857  0.51952026  0.82566223  1
  O  O620  1  0.57341954  0.85292014  0.07366524  1
  O  O621  1  0.57364442  0.85424059  0.32393582  1
  O  O622  1  0.57371218  0.85280630  0.57510375  1
  O  O623  1  0.57302638  0.85162341  0.82476659  1
  O  O624  1  0.32259391  0.18482869  0.05126257  1
  O  O625  1  0.32228368  0.18639000  0.30188901  1
  O  O626  1  0.32190213  0.18595570  0.55126691  1
  O  O627  1  0.32412281  0.18664449  0.79940904  1
  O  O628  1  0.32335186  0.52016599  0.04929562  1
  O  O629  1  0.32340541  0.52119690  0.30005922  1
  O  O630  1  0.32272686  0.51820139  0.55053288  1
  O  O631  1  0.32313150  0.52002385  0.80169538  1
  O  O632  1  0.32232645  0.85167796  0.04988465  1
  O  O633  1  0.32457220  0.85369648  0.29954224  1
  O  O634  1  0.32275521  0.85129641  0.55125832  1
  O  O635  1  0.32234945  0.85354019  0.80163845  1
  O  O636  1  0.82281172  0.18564542  0.05047995  1
  O  O637  1  0.82332672  0.18755053  0.30096076  1
  O  O638  1  0.82321240  0.18807321  0.55030663  1
  O  O639  1  0.82336208  0.18755020  0.79941455  1
  O  O640  1  0.82284834  0.52114504  0.04973351  1
  O  O641  1  0.82240053  0.51996325  0.30121063  1
  O  O642  1  0.82383451  0.51991032  0.54967575  1
  O  O643  1  0.82180254  0.51953608  0.80204605  1
  O  O644  1  0.82334091  0.85415423  0.04981587  1
  O  O645  1  0.82390855  0.85338573  0.29913446  1
  O  O646  1  0.82200145  0.85267916  0.55187205  1
  O  O647  1  0.82177066  0.85334011  0.80172091  1
  O  O648  1  0.17692578  0.14863421  0.19918011  1
  O  O649  1  0.17705681  0.14794116  0.44957450  1
  O  O650  1  0.17649579  0.14791900  0.69978254  1
  O  O651  1  0.17684944  0.14549881  0.94939377  1
  O  O652  1  0.17607457  0.48037622  0.20125133  1
  O  O653  1  0.17672382  0.47857218  0.45054233  1
  O  O654  1  0.17832730  0.48064296  0.69803280  1
  O  O655  1  0.17670883  0.48095669  0.94853457  1
  O  O656  1  0.17686208  0.81507675  0.19933287  1
  O  O657  1  0.17686333  0.81201822  0.44977842  1
  O  O658  1  0.17722992  0.81492524  0.69937520  1
  O  O659  1  0.17682243  0.81372599  0.94782146  1
  O  O660  1  0.67784388  0.14734331  0.19805361  1
  O  O661  1  0.67642850  0.14663833  0.45128210  1
  O  O662  1  0.67648935  0.14546644  0.70076268  1
  O  O663  1  0.67720653  0.14533690  0.94991357  1
  O  O664  1  0.67592368  0.48051281  0.20015177  1
  O  O665  1  0.67778083  0.48028521  0.44897353  1
  O  O666  1  0.67722806  0.47934544  0.70025180  1
  O  O667  1  0.67873252  0.48036806  0.94772498  1
  O  O668  1  0.67652743  0.81169857  0.19933422  1
  O  O669  1  0.67689225  0.81255976  0.44918392  1
  O  O670  1  0.67720781  0.81426310  0.70020114  1
  O  O671  1  0.67899631  0.81403142  0.94821462  1
