# generated using pymatgen
data_Na2MnFe(PO4)2
_symmetry_space_group_name_H-M   'P 1'
_cell_length_a   22.34621508
_cell_length_b   20.09640483
_cell_length_c   19.44679853
_cell_angle_alpha   90.04166711
_cell_angle_beta   89.93991776
_cell_angle_gamma   89.95842242
_symmetry_Int_Tables_number   1
_chemical_formula_structural   Na2MnFe(PO4)2
_chemical_formula_sum   'Na96 Mn48 Fe48 P96 O384'
_cell_volume   8733.13134364
_cell_formula_units_Z   48
loop_
 _symmetry_equiv_pos_site_id
 _symmetry_equiv_pos_as_xyz
  1  'x, y, z'
loop_
 _atom_site_type_symbol
 _atom_site_label
 _atom_site_symmetry_multiplicity
 _atom_site_fract_x
 _atom_site_fract_y
 _atom_site_fract_z
 _atom_site_occupancy
  Na  Na0  1  0.14078824  0.24969652  0.24425081  1
  Na  Na1  1  0.14061104  0.24912596  0.49460773  1
  Na  Na2  1  0.14090868  0.25022527  0.74428991  1
  Na  Na3  1  0.14060287  0.24939003  0.99338574  1
  Na  Na4  1  0.14063703  0.58223756  0.24344127  1
  Na  Na5  1  0.14077196  0.58275752  0.49518816  1
  Na  Na6  1  0.14097356  0.58285474  0.74291251  1
  Na  Na7  1  0.14079818  0.58274970  0.99341441  1
  Na  Na8  1  0.14011857  0.91662985  0.24383019  1
  Na  Na9  1  0.14031679  0.91712338  0.49201652  1
  Na  Na10  1  0.14095252  0.91700953  0.74268799  1
  Na  Na11  1  0.14057587  0.91674164  0.99244551  1
  Na  Na12  1  0.64009636  0.25065587  0.24497366  1
  Na  Na13  1  0.63991684  0.25086880  0.49427571  1
  Na  Na14  1  0.64028247  0.25189470  0.74236903  1
  Na  Na15  1  0.64028484  0.25122625  0.99405445  1
  Na  Na16  1  0.64006177  0.58220510  0.24375517  1
  Na  Na17  1  0.64074255  0.58322241  0.49239936  1
  Na  Na18  1  0.64099331  0.58387626  0.74345315  1
  Na  Na19  1  0.64056790  0.58255304  0.99456793  1
  Na  Na20  1  0.64031211  0.91465672  0.24386506  1
  Na  Na21  1  0.64095978  0.91588482  0.49352319  1
  Na  Na22  1  0.64085621  0.91762239  0.74330512  1
  Na  Na23  1  0.64011866  0.91636673  0.99393326  1
  Na  Na24  1  0.35931733  0.08395003  0.00607145  1
  Na  Na25  1  0.35854738  0.08383402  0.25658721  1
  Na  Na26  1  0.35882589  0.08428625  0.50555160  1
  Na  Na27  1  0.35909365  0.08488253  0.75620312  1
  Na  Na28  1  0.35989843  0.41610353  0.00728055  1
  Na  Na29  1  0.35952668  0.41550754  0.25635826  1
  Na  Na30  1  0.35896767  0.41531575  0.50769917  1
  Na  Na31  1  0.35992832  0.41608386  0.75711120  1
  Na  Na32  1  0.35923431  0.74950773  0.00616113  1
  Na  Na33  1  0.35998415  0.74971680  0.25699548  1
  Na  Na34  1  0.35988375  0.74891529  0.50544834  1
  Na  Na35  1  0.35954592  0.75004638  0.75562306  1
  Na  Na36  1  0.85952060  0.08381752  0.00601535  1
  Na  Na37  1  0.85910166  0.08308162  0.25664399  1
  Na  Na38  1  0.85890294  0.08325737  0.50786610  1
  Na  Na39  1  0.85945994  0.08456060  0.75566856  1
  Na  Na40  1  0.85999225  0.41702883  0.00618108  1
  Na  Na41  1  0.85924820  0.41736843  0.25683883  1
  Na  Na42  1  0.85897192  0.41661346  0.50602357  1
  Na  Na43  1  0.85938230  0.41780813  0.75628383  1
  Na  Na44  1  0.86006263  0.74948580  0.00505954  1
  Na  Na45  1  0.85948969  0.74938313  0.25709487  1
  Na  Na46  1  0.85971339  0.75063233  0.50633444  1
  Na  Na47  1  0.86003530  0.75087418  0.75578056  1
  Na  Na48  1  0.10977410  0.08446591  0.11804804  1
  Na  Na49  1  0.10966334  0.08192544  0.36841312  1
  Na  Na50  1  0.10988675  0.08336871  0.61827873  1
  Na  Na51  1  0.11015952  0.08240616  0.86808148  1
  Na  Na52  1  0.10973724  0.41674626  0.11917977  1
  Na  Na53  1  0.11009801  0.41587623  0.36963542  1
  Na  Na54  1  0.11040303  0.41687002  0.61947542  1
  Na  Na55  1  0.11006431  0.41550272  0.86823700  1
  Na  Na56  1  0.10995663  0.75087840  0.11884240  1
  Na  Na57  1  0.11005096  0.75018829  0.36861692  1
  Na  Na58  1  0.10999772  0.75030368  0.61885927  1
  Na  Na59  1  0.11001822  0.74859232  0.86739461  1
  Na  Na60  1  0.60912819  0.08406215  0.11936002  1
  Na  Na61  1  0.60927700  0.08334910  0.37007485  1
  Na  Na62  1  0.60986694  0.08465173  0.61784023  1
  Na  Na63  1  0.60925844  0.08427451  0.86878051  1
  Na  Na64  1  0.60974110  0.41701312  0.11943980  1
  Na  Na65  1  0.60982349  0.41667869  0.36889542  1
  Na  Na66  1  0.61012560  0.41633184  0.61750261  1
  Na  Na67  1  0.61016428  0.41659395  0.86932055  1
  Na  Na68  1  0.60998490  0.74925563  0.11948370  1
  Na  Na69  1  0.60991527  0.74823078  0.36756253  1
  Na  Na70  1  0.61018144  0.74999349  0.61792414  1
  Na  Na71  1  0.60981689  0.74953057  0.86922716  1
  Na  Na72  1  0.38941288  0.25132739  0.13165516  1
  Na  Na73  1  0.38930530  0.25007429  0.38249760  1
  Na  Na74  1  0.38933012  0.25022997  0.63174169  1
  Na  Na75  1  0.38978517  0.25095950  0.88242838  1
  Na  Na76  1  0.39060948  0.58395940  0.13149245  1
  Na  Na77  1  0.39035280  0.58214383  0.38117599  1
  Na  Na78  1  0.39010427  0.58292141  0.63165145  1
  Na  Na79  1  0.39035855  0.58280513  0.88125891  1
  Na  Na80  1  0.39033038  0.91648519  0.13107709  1
  Na  Na81  1  0.38984475  0.91537349  0.38133406  1
  Na  Na82  1  0.39027369  0.91682613  0.62981058  1
  Na  Na83  1  0.39035487  0.91724225  0.88096191  1
  Na  Na84  1  0.89017211  0.25220932  0.13118309  1
  Na  Na85  1  0.88996838  0.25003747  0.38173257  1
  Na  Na86  1  0.88959815  0.25062350  0.63240596  1
  Na  Na87  1  0.89007852  0.24950322  0.88085809  1
  Na  Na88  1  0.89038480  0.58476105  0.13179539  1
  Na  Na89  1  0.89003602  0.58357544  0.38128584  1
  Na  Na90  1  0.89032362  0.58414596  0.63170630  1
  Na  Na91  1  0.89068050  0.58346419  0.88039909  1
  Na  Na92  1  0.89058235  0.91715321  0.13075536  1
  Na  Na93  1  0.89008411  0.91550134  0.38204213  1
  Na  Na94  1  0.89033519  0.91656342  0.63131137  1
  Na  Na95  1  0.89079560  0.91596791  0.87954810  1
  Mn  Mn96  1  0.74916212  0.16828137  0.87520614  1
  Mn  Mn97  1  0.25014610  0.49839314  0.37509073  1
  Mn  Mn98  1  -0.00018735  0.33344455  0.50058299  1
  Mn  Mn99  1  0.49972193  0.16758324  0.00006481  1
  Mn  Mn100  1  0.49975803  0.66606045  0.00036573  1
  Mn  Mn101  1  0.00003751  0.16580251  0.50007404  1
  Mn  Mn102  1  -0.00011323  0.83407058  -0.00105149  1
  Mn  Mn103  1  0.00100032  0.66742208  0.50050012  1
  Mn  Mn104  1  0.25032751  0.49987281  0.87540725  1
  Mn  Mn105  1  0.50008169  0.66611297  0.75010110  1
  Mn  Mn106  1  0.24991701  0.83302592  0.87420439  1
  Mn  Mn107  1  0.50038543  0.83200958  0.49993458  1
  Mn  Mn108  1  0.50009005  0.33439995  0.25082189  1
  Mn  Mn109  1  0.74960890  0.16785385  0.12594007  1
  Mn  Mn110  1  0.49965262  0.16800073  0.74994417  1
  Mn  Mn111  1  0.75000579  0.00077676  0.87429497  1
  Mn  Mn112  1  0.49971081  0.83402014  -0.00008051  1
  Mn  Mn113  1  0.74951206  0.16764843  0.37594971  1
  Mn  Mn114  1  0.75036487  0.49971636  0.12486357  1
  Mn  Mn115  1  0.49989367  0.49972118  0.50001965  1
  Mn  Mn116  1  0.25068523  0.83332028  0.62453519  1
  Mn  Mn117  1  0.24993849  0.00067994  0.12451605  1
  Mn  Mn118  1  0.00039405  0.66734310  0.25057312  1
  Mn  Mn119  1  0.25057828  0.83250199  0.12393520  1
  Mn  Mn120  1  0.50012304  0.00044546  0.74958977  1
  Mn  Mn121  1  0.00081350  0.49970347  -0.00001371  1
  Mn  Mn122  1  0.49937834  0.16731914  0.24971683  1
  Mn  Mn123  1  0.00036610  -0.00048511  0.74919543  1
  Mn  Mn124  1  0.75023834  0.66718493  0.62410093  1
  Mn  Mn125  1  0.25027577  0.49895522  0.12501058  1
  Mn  Mn126  1  0.50044313  0.83318018  0.74998086  1
  Mn  Mn127  1  -0.00038531  0.16643891  -0.00008889  1
  Mn  Mn128  1  0.75031605  0.83289287  0.87468065  1
  Mn  Mn129  1  0.74951944  -0.00050259  0.12555864  1
  Mn  Mn130  1  0.74953457  -0.00068098  0.37622709  1
  Mn  Mn131  1  0.25058085  0.66630146  0.37509384  1
  Mn  Mn132  1  0.00060037  0.66685429  -0.00020636  1
  Mn  Mn133  1  0.75046654  0.83135640  0.12439259  1
  Mn  Mn134  1  0.00030903  0.33434203  0.25059739  1
  Mn  Mn135  1  0.50022678  0.00011177  0.49981943  1
  Mn  Mn136  1  -0.00067938  -0.00069999  0.24954564  1
  Mn  Mn137  1  0.49897957  -0.00036055  0.25016388  1
  Mn  Mn138  1  0.50117864  0.49891423  0.75013001  1
  Mn  Mn139  1  -0.00009981  0.50045739  0.50055967  1
  Mn  Mn140  1  -0.00067408  0.16674787  0.24961569  1
  Mn  Mn141  1  0.25034152  0.00108461  0.62364338  1
  Mn  Mn142  1  0.00003869  0.33284515  0.74994674  1
  Mn  Mn143  1  0.75037204  0.50048228  0.87499273  1
  Fe  Fe144  1  0.24968651  0.16716911  0.37526874  1
  Fe  Fe145  1  0.24952846  0.33232718  0.37627278  1
  Fe  Fe146  1  0.24998003  0.33278450  0.62588345  1
  Fe  Fe147  1  0.24928560  0.16715899  0.62547506  1
  Fe  Fe148  1  0.49928672  0.33319730  0.49969128  1
  Fe  Fe149  1  0.49998168  0.83287940  0.25020254  1
  Fe  Fe150  1  0.00034512  0.66658378  0.74954183  1
  Fe  Fe151  1  0.75026269  0.33411268  0.87426380  1
  Fe  Fe152  1  0.25048011  0.49947263  0.62571363  1
  Fe  Fe153  1  0.74958279  0.49976878  0.37447530  1
  Fe  Fe154  1  0.74997620  0.16788782  0.62510968  1
  Fe  Fe155  1  -0.00019058  0.50056717  0.25017013  1
  Fe  Fe156  1  0.75006336  0.66572295  0.12550803  1
  Fe  Fe157  1  0.24937318  0.83297637  0.37468818  1
  Fe  Fe158  1  0.24991640  0.66613241  0.12504719  1
  Fe  Fe159  1  0.75016465  0.83279177  0.37526205  1
  Fe  Fe160  1  0.75047974  0.50050364  0.62400471  1
  Fe  Fe161  1  0.50020328  0.66602044  0.24955467  1
  Fe  Fe162  1  0.00120733  0.83341911  0.74954099  1
  Fe  Fe163  1  0.00010256  0.16586601  0.75023768  1
  Fe  Fe164  1  0.50046557  0.49980714  0.00043039  1
  Fe  Fe165  1  0.24950113  0.33230024  0.12560007  1
  Fe  Fe166  1  0.00023990  -0.00004346  -0.00079776  1
  Fe  Fe167  1  0.75040175  0.66625460  0.37536571  1
  Fe  Fe168  1  -0.00021444  0.33338167  -0.00038676  1
  Fe  Fe169  1  0.75018827  0.33365111  0.37568445  1
  Fe  Fe170  1  -0.00047413  -0.00055427  0.50002466  1
  Fe  Fe171  1  0.74981585  0.33463905  0.62453926  1
  Fe  Fe172  1  0.49993962  0.66584502  0.49911659  1
  Fe  Fe173  1  0.75006508  0.66674663  0.87429432  1
  Fe  Fe174  1  0.00008069  0.49955708  0.75047504  1
  Fe  Fe175  1  0.74971055  0.83320310  0.62505998  1
  Fe  Fe176  1  0.25019875  0.33315416  0.87568296  1
  Fe  Fe177  1  0.49980967  0.33355817  0.75032197  1
  Fe  Fe178  1  0.00021391  0.83378742  0.24978173  1
  Fe  Fe179  1  0.00012747  0.83331199  0.50017749  1
  Fe  Fe180  1  0.74985221  0.00014114  0.62518538  1
  Fe  Fe181  1  0.25006992  0.16735565  0.87534977  1
  Fe  Fe182  1  0.49908830  0.49993735  0.25006119  1
  Fe  Fe183  1  0.49891010  0.16712794  0.50019097  1
  Fe  Fe184  1  0.50023746  0.00039982  0.00034342  1
  Fe  Fe185  1  0.75000541  0.33365241  0.12536707  1
  Fe  Fe186  1  0.50016152  0.33432096  0.00078944  1
  Fe  Fe187  1  0.24969745  0.16691085  0.12540760  1
  Fe  Fe188  1  0.25042987  0.00063226  0.87421498  1
  Fe  Fe189  1  0.25023924  0.66626343  0.87449319  1
  Fe  Fe190  1  0.25006929  0.66647501  0.62472526  1
  Fe  Fe191  1  0.24989730  0.00050112  0.37417245  1
  P  P192  1  0.04206051  0.25172459  0.10217604  1
  P  P193  1  0.04277041  0.24939075  0.35326875  1
  P  P194  1  0.04241175  0.24949316  0.60391574  1
  P  P195  1  0.04201186  0.24822933  0.85272251  1
  P  P196  1  0.04309000  0.58354644  0.10360972  1
  P  P197  1  0.04276469  0.58232642  0.35266040  1
  P  P198  1  0.04268271  0.58377711  0.60465931  1
  P  P199  1  0.04207838  0.58289634  0.85118081  1
  P  P200  1  0.04265596  0.91796484  0.10199806  1
  P  P201  1  0.04184332  0.91528606  0.35306600  1
  P  P202  1  0.04194035  0.91652818  0.60148714  1
  P  P203  1  0.04320870  0.91573391  0.85196161  1
  P  P204  1  0.54213373  0.25191332  0.10261656  1
  P  P205  1  0.54191492  0.25007021  0.35427857  1
  P  P206  1  0.54073496  0.25074736  0.60171068  1
  P  P207  1  0.54218215  0.25223246  0.85298082  1
  P  P208  1  0.54201150  0.58189846  0.10354322  1
  P  P209  1  0.54097537  0.58277358  0.35155463  1
  P  P210  1  0.54265160  0.58403089  0.60187638  1
  P  P211  1  0.54323140  0.58243848  0.85374956  1
  P  P212  1  0.54204314  0.91768095  0.10302706  1
  P  P213  1  0.54205600  0.91497705  0.35237426  1
  P  P214  1  0.54326620  0.91654714  0.60272326  1
  P  P215  1  0.54315382  0.91739293  0.85351094  1
  P  P216  1  0.45660272  0.08341488  0.14639402  1
  P  P217  1  0.45730494  0.08440002  0.39768063  1
  P  P218  1  0.45706917  0.08439180  0.64627324  1
  P  P219  1  0.45781687  0.08281583  0.89774691  1
  P  P220  1  0.45767014  0.41810986  0.14705043  1
  P  P221  1  0.45716539  0.41586614  0.39769546  1
  P  P222  1  0.45798827  0.41497984  0.64729570  1
  P  P223  1  0.45860645  0.41666919  0.89873109  1
  P  P224  1  0.45864513  0.75000495  0.14857614  1
  P  P225  1  0.45804110  0.74791911  0.39640223  1
  P  P226  1  0.45728479  0.74929507  0.64626373  1
  P  P227  1  0.45699103  0.74974820  0.89720167  1
  P  P228  1  0.95664022  0.08330358  0.14614394  1
  P  P229  1  0.95695164  0.08127593  0.39779255  1
  P  P230  1  0.95781786  0.08396507  0.64705566  1
  P  P231  1  0.95780598  0.08186566  0.89672442  1
  P  P232  1  0.95762417  0.41839475  0.14752146  1
  P  P233  1  0.95710608  0.41726074  0.39686086  1
  P  P234  1  0.95761960  0.41803465  0.64805447  1
  P  P235  1  0.95808200  0.41563517  0.89707865  1
  P  P236  1  0.95777609  0.75172603  0.14767721  1
  P  P237  1  0.95828882  0.75130076  0.39757791  1
  P  P238  1  0.95899535  0.75083012  0.64810545  1
  P  P239  1  0.95813164  0.74968703  0.89530065  1
  P  P240  1  0.20766731  0.08476870  0.22798264  1
  P  P241  1  0.20826661  0.08382079  0.47626992  1
  P  P242  1  0.20802321  0.08483140  0.72784383  1
  P  P243  1  0.20866491  0.08381491  0.97631554  1
  P  P244  1  0.20776580  0.41431786  0.22816713  1
  P  P245  1  0.20800344  0.41487547  0.47914909  1
  P  P246  1  0.20913215  0.41613472  0.72752054  1
  P  P247  1  0.20803465  0.41489037  0.97810713  1
  P  P248  1  0.20823793  0.74899280  0.22754545  1
  P  P249  1  0.20798345  0.75042572  0.47764769  1
  P  P250  1  0.20835385  0.74860622  0.72730059  1
  P  P251  1  0.20784025  0.74806861  0.97710616  1
  P  P252  1  0.70664625  0.08341155  0.22892178  1
  P  P253  1  0.70740842  0.08398726  0.47971668  1
  P  P254  1  0.70840072  0.08451253  0.72617560  1
  P  P255  1  0.70682663  0.08390210  0.97823925  1
  P  P256  1  0.70784098  0.41562924  0.22822934  1
  P  P257  1  0.70866960  0.41704901  0.47707186  1
  P  P258  1  0.70874233  0.41794048  0.72616461  1
  P  P259  1  0.70829570  0.41550320  0.97752189  1
  P  P260  1  0.70819310  0.74762876  0.22846336  1
  P  P261  1  0.70870360  0.74988087  0.47671537  1
  P  P262  1  0.70770683  0.75079679  0.72732520  1
  P  P263  1  0.70792090  0.74781936  0.97759505  1
  P  P264  1  0.29111498  0.24962493  0.02328453  1
  P  P265  1  0.29131594  0.25005708  0.27344688  1
  P  P266  1  0.29078016  0.24967915  0.52342572  1
  P  P267  1  0.29133509  0.25042548  0.77351047  1
  P  P268  1  0.29220745  0.58421020  0.02236679  1
  P  P269  1  0.29260404  0.58249096  0.27165611  1
  P  P270  1  0.29159789  0.58265673  0.52371889  1
  P  P271  1  0.29230626  0.58408507  0.77177672  1
  P  P272  1  0.29262766  0.91714938  0.02089104  1
  P  P273  1  0.29093417  0.91633108  0.27313954  1
  P  P274  1  0.29243316  0.91668484  0.52011454  1
  P  P275  1  0.29252755  0.91821081  0.77196974  1
  P  P276  1  0.79223990  0.25197975  0.02239719  1
  P  P277  1  0.79211227  0.25193047  0.27289259  1
  P  P278  1  0.79134320  0.25105211  0.52350290  1
  P  P279  1  0.79172388  0.25197612  0.77139317  1
  P  P280  1  0.79265351  0.58451439  0.02224477  1
  P  P281  1  0.79121933  0.58332833  0.27324122  1
  P  P282  1  0.79233103  0.58249708  0.52127786  1
  P  P283  1  0.79235959  0.58467061  0.77176995  1
  P  P284  1  0.79294137  0.91624551  0.02177969  1
  P  P285  1  0.79198230  0.91489269  0.27307755  1
  P  P286  1  0.79102873  0.91606610  0.52353139  1
  P  P287  1  0.79253998  0.91685811  0.77057233  1
  O  O288  1  0.03695487  0.25155662  0.18214831  1
  O  O289  1  0.03770340  0.24931466  0.43325894  1
  O  O290  1  0.03721061  0.24888742  0.68388576  1
  O  O291  1  0.03666206  0.24895184  0.93266183  1
  O  O292  1  0.03778625  0.58320246  0.18356481  1
  O  O293  1  0.03769687  0.58280033  0.43267398  1
  O  O294  1  0.03709904  0.58379679  0.68457841  1
  O  O295  1  0.03720798  0.58309538  0.93124024  1
  O  O296  1  0.03740116  0.91733970  0.18197281  1
  O  O297  1  0.03650879  0.91556789  0.43297077  1
  O  O298  1  0.03712749  0.91625801  0.68150210  1
  O  O299  1  0.03785868  0.91672667  0.93187341  1
  O  O300  1  0.53716538  0.25165306  0.18258772  1
  O  O301  1  0.53624807  0.24986375  0.43419283  1
  O  O302  1  0.53594719  0.25126698  0.68176940  1
  O  O303  1  0.53709711  0.25236639  0.93294780  1
  O  O304  1  0.53631766  0.58194487  0.18341241  1
  O  O305  1  0.53626204  0.58342179  0.43155595  1
  O  O306  1  0.53799217  0.58347787  0.68189047  1
  O  O307  1  0.53793917  0.58214954  0.93370053  1
  O  O308  1  0.53647363  0.91679828  0.18296694  1
  O  O309  1  0.53712702  0.91510681  0.43235748  1
  O  O310  1  0.53831610  0.91659483  0.68270760  1
  O  O311  1  0.53786355  0.91818622  0.93353311  1
  O  O312  1  0.46211996  0.08288864  0.06643279  1
  O  O313  1  0.46212703  0.08418984  0.31767005  1
  O  O314  1  0.46221296  0.08495999  0.56629137  1
  O  O315  1  0.46302540  0.08331302  0.81773927  1
  O  O316  1  0.46340284  0.41761542  0.06718681  1
  O  O317  1  0.46204124  0.41677454  0.31774763  1
  O  O318  1  0.46297684  0.41488388  0.56732488  1
  O  O319  1  0.46363268  0.41599230  0.81870611  1
  O  O320  1  0.46324772  0.74984067  0.06858292  1
  O  O321  1  0.46342855  0.74853006  0.31650345  1
  O  O322  1  0.46242376  0.74851024  0.56624587  1
  O  O323  1  0.46218011  0.74971089  0.81723498  1
  O  O324  1  0.96193198  0.08281094  0.06616402  1
  O  O325  1  0.96173099  0.08146513  0.31775794  1
  O  O326  1  0.96310529  0.08310148  0.56710979  1
  O  O327  1  0.96327039  0.08250835  0.81676089  1
  O  O328  1  0.96292754  0.41748262  0.06755943  1
  O  O329  1  0.96237572  0.41778369  0.31690222  1
  O  O330  1  0.96257283  0.41772596  0.56809511  1
  O  O331  1  0.96337803  0.41621762  0.81714453  1
  O  O332  1  0.96275825  0.75115866  0.06767667  1
  O  O333  1  0.96336190  0.75140255  0.31762540  1
  O  O334  1  0.96420667  0.75114292  0.56809545  1
  O  O335  1  0.96379429  0.74958758  0.81542126  1
  O  O336  1  0.21347313  0.08397135  0.05629390  1
  O  O337  1  0.21311987  0.08464107  0.30782018  1
  O  O338  1  0.21305889  0.08377626  0.55620651  1
  O  O339  1  0.21356005  0.08436706  0.80766475  1
  O  O340  1  0.21307021  0.41483195  0.05806528  1
  O  O341  1  0.21304248  0.41421208  0.30815559  1
  O  O342  1  0.21371117  0.41531138  0.55902091  1
  O  O343  1  0.21383135  0.41640175  0.80751260  1
  O  O344  1  0.21324800  0.74799153  0.05707770  1
  O  O345  1  0.21356221  0.74993397  0.30751210  1
  O  O346  1  0.21320795  0.75004202  0.55758562  1
  O  O347  1  0.21363299  0.74861971  0.80724117  1
  O  O348  1  0.71180441  0.08388924  0.05822436  1
  O  O349  1  0.71183294  0.08344210  0.30893127  1
  O  O350  1  0.71291281  0.08423000  0.55959258  1
  O  O351  1  0.71304173  0.08455971  0.80622541  1
  O  O352  1  0.71344557  0.41544607  0.05744186  1
  O  O353  1  0.71305801  0.41583047  0.30809966  1
  O  O354  1  0.71373055  0.41789782  0.55694852  1
  O  O355  1  0.71363741  0.41738542  0.80612077  1
  O  O356  1  0.71321710  0.74747548  0.05757663  1
  O  O357  1  0.71369893  0.74799950  0.30833026  1
  O  O358  1  0.71378389  0.75072679  0.55668730  1
  O  O359  1  0.71288962  0.75000094  0.80725207  1
  O  O360  1  0.28603363  0.25025516  0.19356728  1
  O  O361  1  0.28536827  0.24960881  0.44358338  1
  O  O362  1  0.28609731  0.25077819  0.69368859  1
  O  O363  1  0.28605939  0.24955907  0.94341217  1
  O  O364  1  0.28718618  0.58283679  0.19175100  1
  O  O365  1  0.28691898  0.58200880  0.44371906  1
  O  O366  1  0.28683062  0.58376355  0.69190017  1
  O  O367  1  0.28669787  0.58430688  0.94240391  1
  O  O368  1  0.28638757  0.91649484  0.19309944  1
  O  O369  1  0.28682026  0.91632420  0.44024052  1
  O  O370  1  0.28745438  0.91807129  0.69195773  1
  O  O371  1  0.28737282  0.91749493  0.94095235  1
  O  O372  1  0.78680072  0.25191736  0.19294209  1
  O  O373  1  0.78665130  0.25132383  0.44352116  1
  O  O374  1  0.78646902  0.25149175  0.69151008  1
  O  O375  1  0.78698589  0.25193480  0.94239807  1
  O  O376  1  0.78648871  0.58326440  0.19323671  1
  O  O377  1  0.78673816  0.58289184  0.44142466  1
  O  O378  1  0.78718505  0.58398497  0.69184615  1
  O  O379  1  0.78743238  0.58455784  0.94228702  1
  O  O380  1  0.78704191  0.91496266  0.19312159  1
  O  O381  1  0.78605783  0.91564116  0.44353810  1
  O  O382  1  0.78696914  0.91659644  0.69068373  1
  O  O383  1  0.78792915  0.91636953  0.94178279  1
  O  O384  1  0.22704144  0.24949022  0.05975444  1
  O  O385  1  0.22724941  0.24985951  0.31000465  1
  O  O386  1  0.22686176  0.25011817  0.56021873  1
  O  O387  1  0.22730840  0.25025664  0.80999965  1
  O  O388  1  0.22805879  0.58408551  0.05848398  1
  O  O389  1  0.22840097  0.58247882  0.30735320  1
  O  O390  1  0.22746405  0.58307526  0.55958227  1
  O  O391  1  0.22819448  0.58409369  0.80811892  1
  O  O392  1  0.22837961  0.91662567  0.05648338  1
  O  O393  1  0.22674732  0.91628383  0.30887061  1
  O  O394  1  0.22833469  0.91679419  0.55621748  1
  O  O395  1  0.22822535  0.91815332  0.80751720  1
  O  O396  1  0.72794490  0.25221174  0.05823439  1
  O  O397  1  0.72783745  0.25214209  0.30870595  1
  O  O398  1  0.72713894  0.25054611  0.55933393  1
  O  O399  1  0.72753548  0.25257444  0.80752197  1
  O  O400  1  0.72839794  0.58437356  0.05818046  1
  O  O401  1  0.72710686  0.58409297  0.30927205  1
  O  O402  1  0.72823810  0.58234319  0.55758826  1
  O  O403  1  0.72816512  0.58475015  0.80778406  1
  O  O404  1  0.72850132  0.91562637  0.05690849  1
  O  O405  1  0.72764906  0.91488225  0.30862633  1
  O  O406  1  0.72693296  0.91574817  0.55960108  1
  O  O407  1  0.72840442  0.91667884  0.80657760  1
  O  O408  1  0.27178314  0.08520499  0.19167933  1
  O  O409  1  0.27236864  0.08445558  0.44015155  1
  O  O410  1  0.27208309  0.08524395  0.69143356  1
  O  O411  1  0.27281586  0.08397054  0.94025257  1
  O  O412  1  0.27195706  0.41425912  0.19220012  1
  O  O413  1  0.27202508  0.41429857  0.44261089  1
  O  O414  1  0.27322695  0.41542502  0.69149882  1
  O  O415  1  0.27234005  0.41530605  0.94243758  1
  O  O416  1  0.27246033  0.74807897  0.19156808  1
  O  O417  1  0.27220340  0.75093256  0.44182367  1
  O  O418  1  0.27252993  0.74844770  0.69131624  1
  O  O419  1  0.27207428  0.74834536  0.94121205  1
  O  O420  1  0.77105131  0.08358838  0.19374980  1
  O  O421  1  0.77153430  0.08372254  0.44371084  1
  O  O422  1  0.77261630  0.08486101  0.69048547  1
  O  O423  1  0.77124071  0.08439636  0.94302483  1
  O  O424  1  0.77198995  0.41528093  0.19195159  1
  O  O425  1  0.77264684  0.41657716  0.44062874  1
  O  O426  1  0.77291484  0.41837934  0.69019285  1
  O  O427  1  0.77247189  0.41561741  0.94146188  1
  O  O428  1  0.77233333  0.74717815  0.19215221  1
  O  O429  1  0.77291452  0.74928565  0.44077960  1
  O  O430  1  0.77202352  0.75141378  0.69161913  1
  O  O431  1  0.77215167  0.74792176  0.94162409  1
  O  O432  1  0.02101005  0.08328627  0.18136712  1
  O  O433  1  0.02145010  0.08091424  0.43278872  1
  O  O434  1  0.02206677  0.08437720  0.68277091  1
  O  O435  1  0.02200310  0.08184712  0.93262339  1
  O  O436  1  0.02190684  0.41915178  0.18323749  1
  O  O437  1  0.02148305  0.41674623  0.43204556  1
  O  O438  1  0.02201197  0.41786177  0.68327175  1
  O  O439  1  0.02234519  0.41501173  0.93275681  1
  O  O440  1  0.02215081  0.75174713  0.18304968  1
  O  O441  1  0.02259973  0.75161754  0.43311582  1
  O  O442  1  0.02310163  0.75036723  0.68419191  1
  O  O443  1  0.02224002  0.75009309  0.93124017  1
  O  O444  1  0.52086888  0.08320395  0.18179372  1
  O  O445  1  0.52162523  0.08489970  0.43297035  1
  O  O446  1  0.52144314  0.08439219  0.68143888  1
  O  O447  1  0.52204231  0.08293328  0.93334408  1
  O  O448  1  0.52172784  0.41882178  0.18335281  1
  O  O449  1  0.52155863  0.41545947  0.43296734  1
  O  O450  1  0.52237759  0.41448600  0.68272711  1
  O  O451  1  0.52280922  0.41703678  0.93458373  1
  O  O452  1  0.52285035  0.75059369  0.18415716  1
  O  O453  1  0.52222897  0.74722713  0.43243150  1
  O  O454  1  0.52172691  0.74954820  0.68131430  1
  O  O455  1  0.52137081  0.74982084  0.93221169  1
  O  O456  1  0.47778575  0.25200918  0.06732589  1
  O  O457  1  0.47774231  0.25055749  0.31851748  1
  O  O458  1  0.47652737  0.25079768  0.56594277  1
  O  O459  1  0.47777727  0.25223029  0.81758272  1
  O  O460  1  0.47800664  0.58131142  0.06713902  1
  O  O461  1  0.47683511  0.58240089  0.31577370  1
  O  O462  1  0.47813527  0.58447895  0.56689779  1
  O  O463  1  0.47892936  0.58209922  0.81839163  1
  O  O464  1  0.47785871  0.91838520  0.06712678  1
  O  O465  1  0.47764620  0.91451256  0.31714205  1
  O  O466  1  0.47879788  0.91629844  0.56791017  1
  O  O467  1  0.47877208  0.91696957  0.81831798  1
  O  O468  1  0.97775454  0.25162503  0.06669877  1
  O  O469  1  0.97829592  0.25014242  0.31843660  1
  O  O470  1  0.97807850  0.24958349  0.56865784  1
  O  O471  1  0.97783466  0.24809620  0.81687423  1
  O  O472  1  0.97880241  0.58342850  0.06824694  1
  O  O473  1  0.97838806  0.58236590  0.31726183  1
  O  O474  1  0.97855469  0.58436177  0.56880186  1
  O  O475  1  0.97783614  0.58286456  0.81555508  1
  O  O476  1  0.97834791  0.91872272  0.06634200  1
  O  O477  1  0.97765968  0.91477995  0.31708110  1
  O  O478  1  0.97764785  0.91681642  0.56585221  1
  O  O479  1  0.97895683  0.91496399  0.81627081  1
  O  O480  1  0.07248565  0.31534040  0.07358075  1
  O  O481  1  0.07427788  0.31259715  0.32533869  1
  O  O482  1  0.07315429  0.31339138  0.57628222  1
  O  O483  1  0.07337193  0.31159510  0.82471458  1
  O  O484  1  0.07388594  0.64723777  0.07552843  1
  O  O485  1  0.07383711  0.64597750  0.32499360  1
  O  O486  1  0.07423692  0.64687867  0.57615400  1
  O  O487  1  0.07280604  0.64645879  0.82285821  1
  O  O488  1  0.07356753  0.98146164  0.07361359  1
  O  O489  1  0.07275310  0.97891040  0.32482907  1
  O  O490  1  0.07255303  0.98037349  0.57333401  1
  O  O491  1  0.07409631  0.97916298  0.82342582  1
  O  O492  1  0.57283610  0.31549630  0.07435945  1
  O  O493  1  0.57335747  0.31343965  0.32623012  1
  O  O494  1  0.57187930  0.31402872  0.57309328  1
  O  O495  1  0.57308575  0.31535543  0.82383070  1
  O  O496  1  0.57285022  0.64575697  0.07579681  1
  O  O497  1  0.57159999  0.64628169  0.32260278  1
  O  O498  1  0.57348393  0.64731364  0.57321043  1
  O  O499  1  0.57392140  0.64613145  0.82562039  1
  O  O500  1  0.57293101  0.98127971  0.07488474  1
  O  O501  1  0.57270473  0.97890132  0.32487857  1
  O  O502  1  0.57393519  0.98018835  0.57461577  1
  O  O503  1  0.57429123  0.98052639  0.82467110  1
  O  O504  1  0.42495968  0.02052028  0.17509741  1
  O  O505  1  0.42670994  0.02040161  0.42514337  1
  O  O506  1  0.42617724  0.02063612  0.67398393  1
  O  O507  1  0.42727859  0.01920858  0.92604356  1
  O  O508  1  0.42685792  0.35440256  0.17525145  1
  O  O509  1  0.42649680  0.35224728  0.42601406  1
  O  O510  1  0.42668160  0.35209248  0.67635995  1
  O  O511  1  0.42774589  0.35325474  0.92751758  1
  O  O512  1  0.42853856  0.68592732  0.17682137  1
  O  O513  1  0.42691123  0.68455493  0.42491822  1
  O  O514  1  0.42617177  0.68616749  0.67509657  1
  O  O515  1  0.42604853  0.68625872  0.92535271  1
  O  O516  1  0.92522325  0.02030499  0.17479354  1
  O  O517  1  0.92623055  0.01789162  0.42659134  1
  O  O518  1  0.92668015  0.02049851  0.67503897  1
  O  O519  1  0.92741599  0.01797939  0.92481273  1
  O  O520  1  0.92672727  0.35492463  0.17592071  1
  O  O521  1  0.92607849  0.35368367  0.42494551  1
  O  O522  1  0.92646968  0.35449391  0.67579003  1
  O  O523  1  0.92734353  0.35199550  0.92536277  1
  O  O524  1  0.92671262  0.68826120  0.17586163  1
  O  O525  1  0.92770460  0.68730947  0.42533365  1
  O  O526  1  0.92800556  0.68709505  0.67591924  1
  O  O527  1  0.92717020  0.68625929  0.92388723  1
  O  O528  1  0.17676291  0.02104959  0.19986468  1
  O  O529  1  0.17841905  0.01962058  0.44763213  1
  O  O530  1  0.17689206  0.02143383  0.69927313  1
  O  O531  1  0.17828984  0.01989321  0.94793264  1
  O  O532  1  0.17669623  0.35114843  0.19939618  1
  O  O533  1  0.17670216  0.35161851  0.45071997  1
  O  O534  1  0.17739456  0.35299531  0.69956422  1
  O  O535  1  0.17744488  0.35149561  0.94916889  1
  O  O536  1  0.17719701  0.68535564  0.19975112  1
  O  O537  1  0.17695025  0.68675047  0.44983734  1
  O  O538  1  0.17735767  0.68535935  0.69862860  1
  O  O539  1  0.17702456  0.68471879  0.94835695  1
  O  O540  1  0.67579804  0.01978625  0.20093985  1
  O  O541  1  0.67606640  0.02056587  0.45159218  1
  O  O542  1  0.67825410  0.02037142  0.69807482  1
  O  O543  1  0.67622794  0.02030724  0.94989361  1
  O  O544  1  0.67665969  0.35244772  0.19948478  1
  O  O545  1  0.67745544  0.35339742  0.44938702  1
  O  O546  1  0.67820274  0.35426239  0.69731938  1
  O  O547  1  0.67740848  0.35235473  0.94848512  1
  O  O548  1  0.67706333  0.68434261  0.19983388  1
  O  O549  1  0.67764752  0.68612411  0.44921983  1
  O  O550  1  0.67685485  0.68729536  0.69879594  1
  O  O551  1  0.67702437  0.68458759  0.94869882  1
  O  O552  1  0.32194949  0.31326503  0.05173214  1
  O  O553  1  0.32213368  0.31356570  0.30221839  1
  O  O554  1  0.32222878  0.31293119  0.55174050  1
  O  O555  1  0.32215494  0.31395315  0.80240001  1
  O  O556  1  0.32317855  0.64747749  0.05107178  1
  O  O557  1  0.32398229  0.64564300  0.30004810  1
  O  O558  1  0.32258283  0.64644573  0.55115182  1
  O  O559  1  0.32321471  0.64748913  0.80040056  1
  O  O560  1  0.32357418  0.98039580  0.04961155  1
  O  O561  1  0.32135577  0.98033252  0.30128489  1
  O  O562  1  0.32363816  0.98023166  0.54811905  1
  O  O563  1  0.32311765  0.98184078  0.80036348  1
  O  O564  1  0.82329562  0.31517243  0.05110692  1
  O  O565  1  0.82322576  0.31506033  0.30165483  1
  O  O566  1  0.82175403  0.31489296  0.55194976  1
  O  O567  1  0.82279607  0.31535772  0.79993522  1
  O  O568  1  0.82359790  0.64764881  0.05119536  1
  O  O569  1  0.82306868  0.64627659  0.30151840  1
  O  O570  1  0.82358740  0.64602296  0.54938271  1
  O  O571  1  0.82283783  0.64850177  0.79984772  1
  O  O572  1  0.82344273  0.97990371  0.05016301  1
  O  O573  1  0.82304349  0.97849641  0.30094980  1
  O  O574  1  0.82105861  0.98037275  0.55156049  1
  O  O575  1  0.82350715  0.98054967  0.79859931  1
  O  O576  1  0.42595301  0.14741558  0.17414530  1
  O  O577  1  0.42625615  0.14777302  0.42624771  1
  O  O578  1  0.42579051  0.14749995  0.67524732  1
  O  O579  1  0.42658659  0.14654639  0.92533549  1
  O  O580  1  0.42618791  0.48127678  0.17556676  1
  O  O581  1  0.42607748  0.47926266  0.42628106  1
  O  O582  1  0.42762802  0.47911734  0.67520370  1
  O  O583  1  0.42779257  0.48054172  0.92658400  1
  O  O584  1  0.42730603  0.81346151  0.17662000  1
  O  O585  1  0.42708541  0.81153995  0.42480149  1
  O  O586  1  0.42636197  0.81310489  0.67410293  1
  O  O587  1  0.42585195  0.81321468  0.92533853  1
  O  O588  1  0.92584790  0.14716818  0.17413881  1
  O  O589  1  0.92611790  0.14512488  0.42554430  1
  O  O590  1  0.92707856  0.14761046  0.67543614  1
  O  O591  1  0.92621293  0.14516534  0.92475878  1
  O  O592  1  0.92669759  0.48207128  0.17566374  1
  O  O593  1  0.92605787  0.48061189  0.42535847  1
  O  O594  1  0.92711360  0.48174272  0.67649244  1
  O  O595  1  0.92701513  0.47920010  0.92522169  1
  O  O596  1  0.92728022  0.81548066  0.17599233  1
  O  O597  1  0.92705604  0.81430320  0.42672874  1
  O  O598  1  0.92828376  0.81453678  0.67639847  1
  O  O599  1  0.92655265  0.81297307  0.92354311  1
  O  O600  1  0.07327630  0.18808263  0.07448871  1
  O  O601  1  0.07307959  0.18554481  0.32484712  1
  O  O602  1  0.07384457  0.18646053  0.57516681  1
  O  O603  1  0.07258803  0.18444158  0.82443878  1
  O  O604  1  0.07459451  0.52044067  0.07496736  1
  O  O605  1  0.07334250  0.51865222  0.32433050  1
  O  O606  1  0.07361902  0.52016917  0.57637505  1
  O  O607  1  0.07282287  0.51886846  0.82356393  1
  O  O608  1  0.07355353  0.85429735  0.07383093  1
  O  O609  1  0.07298268  0.85204414  0.32406268  1
  O  O610  1  0.07277281  0.85291729  0.57311587  1
  O  O611  1  0.07427451  0.85216339  0.82385191  1
  O  O612  1  0.57322562  0.18830257  0.07466523  1
  O  O613  1  0.57303906  0.18673542  0.32556431  1
  O  O614  1  0.57120581  0.18669743  0.57374669  1
  O  O615  1  0.57304602  0.18836530  0.82504887  1
  O  O616  1  0.57341603  0.51876500  0.07475278  1
  O  O617  1  0.57188899  0.51891097  0.32382569  1
  O  O618  1  0.57325939  0.52015335  0.57371497  1
  O  O619  1  0.57471947  0.51929648  0.82517442  1
  O  O620  1  0.57315374  0.85405095  0.07494972  1
  O  O621  1  0.57300951  0.85151492  0.32390534  1
  O  O622  1  0.57443988  0.85316549  0.57445114  1
  O  O623  1  0.57413528  0.85354586  0.82585963  1
  O  O624  1  0.32205216  0.18610447  0.05185647  1
  O  O625  1  0.32238579  0.18648397  0.30167882  1
  O  O626  1  0.32125619  0.18579603  0.55177533  1
  O  O627  1  0.32244103  0.18688722  0.80175299  1
  O  O628  1  0.32326680  0.52033246  0.04965419  1
  O  O629  1  0.32351614  0.51882075  0.29964074  1
  O  O630  1  0.32203444  0.51886846  0.55238736  1
  O  O631  1  0.32354114  0.52052447  0.79993151  1
  O  O632  1  0.32389190  0.85356176  0.04875582  1
  O  O633  1  0.32190231  0.85271165  0.30110824  1
  O  O634  1  0.32391419  0.85356671  0.54877484  1
  O  O635  1  0.32368312  0.85452905  0.79947038  1
  O  O636  1  0.82301597  0.18808307  0.05018846  1
  O  O637  1  0.82296614  0.18801752  0.30055360  1
  O  O638  1  0.82259639  0.18756140  0.55153049  1
  O  O639  1  0.82263202  0.18838288  0.79980712  1
  O  O640  1  0.82351074  0.52057278  0.04983159  1
  O  O641  1  0.82103753  0.51898928  0.30145049  1
  O  O642  1  0.82330251  0.51910790  0.54982906  1
  O  O643  1  0.82368525  0.52140814  0.80013728  1
  O  O644  1  0.82427414  0.85278590  0.04958708  1
  O  O645  1  0.82260642  0.85127355  0.30160530  1
  O  O646  1  0.82258445  0.85291286  0.55178537  1
  O  O647  1  0.82402708  0.85371411  0.79904281  1
  O  O648  1  0.17654331  0.14799029  0.19910075  1
  O  O649  1  0.17654058  0.14696364  0.44835305  1
  O  O650  1  0.17703873  0.14835211  0.69940502  1
  O  O651  1  0.17751023  0.14730416  0.94819262  1
  O  O652  1  0.17684385  0.47813782  0.20052637  1
  O  O653  1  0.17703291  0.47857492  0.45101068  1
  O  O654  1  0.17913561  0.48026883  0.69894143  1
  O  O655  1  0.17683070  0.47852042  0.95031787  1
  O  O656  1  0.17735599  0.81251758  0.19911339  1
  O  O657  1  0.17707150  0.81386636  0.44904815  1
  O  O658  1  0.17747031  0.81255232  0.69983592  1
  O  O659  1  0.17668445  0.81183802  0.94956341  1
  O  O660  1  0.67554105  0.14693239  0.20095567  1
  O  O661  1  0.67623319  0.14735442  0.45126900  1
  O  O662  1  0.67703946  0.14794137  0.69827815  1
  O  O663  1  0.67557856  0.14734571  0.95018400  1
  O  O664  1  0.67706723  0.47939569  0.19998445  1
  O  O665  1  0.67803572  0.48061499  0.44787966  1
  O  O666  1  0.67769978  0.48152327  0.69815098  1
  O  O667  1  0.67735893  0.47940352  0.95000532  1
  O  O668  1  0.67721444  0.81124980  0.20022467  1
  O  O669  1  0.67807693  0.81343078  0.44791916  1
  O  O670  1  0.67666083  0.81429106  0.69921672  1
  O  O671  1  0.67693220  0.81176357  0.95031279  1
