# generated using pymatgen
data_Na2MnFe(PO4)2
_symmetry_space_group_name_H-M   'P 1'
_cell_length_a   22.34423058
_cell_length_b   20.09177591
_cell_length_c   19.44895227
_cell_angle_alpha   89.94492824
_cell_angle_beta   90.04245371
_cell_angle_gamma   90.01311200
_symmetry_Int_Tables_number   1
_chemical_formula_structural   Na2MnFe(PO4)2
_chemical_formula_sum   'Na96 Mn48 Fe48 P96 O384'
_cell_volume   8731.31405237
_cell_formula_units_Z   48
loop_
 _symmetry_equiv_pos_site_id
 _symmetry_equiv_pos_as_xyz
  1  'x, y, z'
loop_
 _atom_site_type_symbol
 _atom_site_label
 _atom_site_symmetry_multiplicity
 _atom_site_fract_x
 _atom_site_fract_y
 _atom_site_fract_z
 _atom_site_occupancy
  Na  Na0  1  0.13983081  0.25240254  0.24334835  1
  Na  Na1  1  0.14010497  0.25206126  0.49331569  1
  Na  Na2  1  0.13962195  0.24984397  0.74317212  1
  Na  Na3  1  0.13907715  0.25003648  0.99313641  1
  Na  Na4  1  0.14015805  0.58405467  0.24431243  1
  Na  Na5  1  0.14005290  0.58377266  0.49307829  1
  Na  Na6  1  0.13982835  0.58378473  0.74221667  1
  Na  Na7  1  0.14033929  0.58317377  0.99539972  1
  Na  Na8  1  0.14068740  0.91758470  0.24487123  1
  Na  Na9  1  0.14039440  0.91782441  0.49507130  1
  Na  Na10  1  0.14075643  0.91694339  0.74351719  1
  Na  Na11  1  0.14094464  0.91719498  0.99400593  1
  Na  Na12  1  0.64010903  0.24958354  0.24431651  1
  Na  Na13  1  0.63983892  0.24919165  0.49245758  1
  Na  Na14  1  0.63984521  0.24760459  0.74311488  1
  Na  Na15  1  0.63999211  0.24975021  0.99332085  1
  Na  Na16  1  0.64021192  0.58404186  0.24368943  1
  Na  Na17  1  0.64014866  0.58381188  0.49298680  1
  Na  Na18  1  0.64005885  0.58345903  0.74489685  1
  Na  Na19  1  0.64039337  0.58434797  0.99415133  1
  Na  Na20  1  0.64047969  0.91444383  0.24362013  1
  Na  Na21  1  0.64060655  0.91595859  0.49351942  1
  Na  Na22  1  0.64053067  0.91493136  0.74459137  1
  Na  Na23  1  0.64027296  0.91572792  0.99284583  1
  Na  Na24  1  0.36015064  0.08324001  0.00668694  1
  Na  Na25  1  0.35964006  0.08483026  0.25577512  1
  Na  Na26  1  0.35983004  0.08429016  0.50575884  1
  Na  Na27  1  0.36041715  0.08329146  0.75644997  1
  Na  Na28  1  0.35909167  0.41590584  0.00573453  1
  Na  Na29  1  0.35939216  0.41734695  0.25624378  1
  Na  Na30  1  0.35948087  0.41761640  0.50555841  1
  Na  Na31  1  0.35918336  0.41663290  0.75487930  1
  Na  Na32  1  0.36047772  0.74974307  0.00759605  1
  Na  Na33  1  0.36069921  0.75031071  0.25726287  1
  Na  Na34  1  0.36035073  0.75080130  0.50722734  1
  Na  Na35  1  0.36043821  0.74955447  0.75620298  1
  Na  Na36  1  0.85992118  0.08418151  0.00509172  1
  Na  Na37  1  0.85944667  0.08343566  0.25672378  1
  Na  Na38  1  0.85969598  0.08343229  0.50662585  1
  Na  Na39  1  0.86001813  0.08184910  0.75673078  1
  Na  Na40  1  0.85940367  0.41715733  0.00662181  1
  Na  Na41  1  0.85985598  0.41692727  0.25749240  1
  Na  Na42  1  0.86014744  0.41587671  0.50589556  1
  Na  Na43  1  0.85930536  0.41567844  0.75665169  1
  Na  Na44  1  0.85986387  0.74872151  0.00568987  1
  Na  Na45  1  0.85984833  0.74881581  0.25674405  1
  Na  Na46  1  0.85982183  0.74972031  0.50594141  1
  Na  Na47  1  0.85991620  0.74849548  0.75689882  1
  Na  Na48  1  0.10928638  0.08537879  0.11818839  1
  Na  Na49  1  0.10898412  0.08418588  0.36919910  1
  Na  Na50  1  0.10957834  0.08447861  0.61949859  1
  Na  Na51  1  0.10952092  0.08550855  0.86798609  1
  Na  Na52  1  0.10935689  0.41677579  0.11983098  1
  Na  Na53  1  0.10978070  0.41778311  0.36819242  1
  Na  Na54  1  0.10883385  0.41786017  0.61769999  1
  Na  Na55  1  0.10896691  0.41646280  0.86857809  1
  Na  Na56  1  0.10998804  0.74980772  0.12006764  1
  Na  Na57  1  0.10977527  0.74944542  0.36928804  1
  Na  Na58  1  0.10922707  0.74935576  0.61816426  1
  Na  Na59  1  0.10993076  0.75051675  0.86842529  1
  Na  Na60  1  0.60901653  0.08246173  0.11847745  1
  Na  Na61  1  0.60954839  0.08266793  0.36877850  1
  Na  Na62  1  0.60963316  0.08288650  0.61797881  1
  Na  Na63  1  0.60953109  0.08204509  0.86811048  1
  Na  Na64  1  0.60946953  0.41708717  0.11821290  1
  Na  Na65  1  0.60919297  0.41545475  0.36801281  1
  Na  Na66  1  0.60909170  0.41636057  0.61818333  1
  Na  Na67  1  0.60925857  0.41713751  0.86835663  1
  Na  Na68  1  0.60984302  0.75032921  0.11872268  1
  Na  Na69  1  0.61005358  0.74959674  0.36849052  1
  Na  Na70  1  0.60967097  0.74992646  0.61964048  1
  Na  Na71  1  0.60981717  0.74980610  0.86942827  1
  Na  Na72  1  0.39010959  0.24910511  0.13039112  1
  Na  Na73  1  0.39054827  0.25001291  0.38075631  1
  Na  Na74  1  0.39056455  0.25011849  0.63026956  1
  Na  Na75  1  0.39024609  0.24812481  0.88121285  1
  Na  Na76  1  0.39061750  0.58428151  0.13200931  1
  Na  Na77  1  0.39048436  0.58373057  0.38222697  1
  Na  Na78  1  0.39009491  0.58469687  0.63101365  1
  Na  Na79  1  0.39021964  0.58471656  0.88068365  1
  Na  Na80  1  0.39097783  0.91626419  0.13192271  1
  Na  Na81  1  0.39071773  0.91580464  0.38159253  1
  Na  Na82  1  0.39105976  0.91665528  0.63155228  1
  Na  Na83  1  0.39144990  0.91608938  0.88218359  1
  Na  Na84  1  0.89011602  0.25085033  0.13095879  1
  Na  Na85  1  0.88988137  0.25067689  0.38210563  1
  Na  Na86  1  0.89065420  0.24975536  0.63096210  1
  Na  Na87  1  0.89039442  0.24977991  0.88073329  1
  Na  Na88  1  0.88995189  0.58226606  0.13263775  1
  Na  Na89  1  0.89058247  0.58245475  0.38105645  1
  Na  Na90  1  0.89029073  0.58223869  0.63097227  1
  Na  Na91  1  0.88992373  0.58307069  0.88197283  1
  Na  Na92  1  0.89089514  0.91582074  0.13085442  1
  Na  Na93  1  0.89052787  0.91546327  0.38216695  1
  Na  Na94  1  0.89051424  0.91749249  0.63167171  1
  Na  Na95  1  0.89091690  0.91739233  0.88066516  1
  Mn  Mn96  1  0.49963253  0.33211977  -0.00132822  1
  Mn  Mn97  1  0.49942925  0.33190416  0.24869982  1
  Mn  Mn98  1  0.25000051  0.66620782  0.87564069  1
  Mn  Mn99  1  0.24899258  0.16828388  0.37527250  1
  Mn  Mn100  1  0.75009398  0.66626498  0.62521649  1
  Mn  Mn101  1  0.00018363  0.66641945  0.00027579  1
  Mn  Mn102  1  0.49992705  -0.00058495  0.49993621  1
  Mn  Mn103  1  0.00100083  0.83219875  0.25127867  1
  Mn  Mn104  1  0.74963693  0.49987855  0.37500217  1
  Mn  Mn105  1  0.25063684  0.83396363  0.62539637  1
  Mn  Mn106  1  0.75100828  0.83176699  0.12420041  1
  Mn  Mn107  1  0.49969036  0.33243148  0.74912531  1
  Mn  Mn108  1  0.25021744  0.83291897  0.87465541  1
  Mn  Mn109  1  0.25039593  0.66690862  0.12592399  1
  Mn  Mn110  1  0.24962582  0.33378041  0.12463205  1
  Mn  Mn111  1  0.00034206  0.49921017  0.00052976  1
  Mn  Mn112  1  0.74943780  0.33223021  0.62568218  1
  Mn  Mn113  1  0.00013784  0.83306395  0.50077489  1
  Mn  Mn114  1  0.74933271  0.49939280  0.62485769  1
  Mn  Mn115  1  0.00082340  0.00144979  0.00023656  1
  Mn  Mn116  1  0.25016893  0.33439625  0.62449569  1
  Mn  Mn117  1  0.00023771  0.83361158  -0.00032154  1
  Mn  Mn118  1  0.75009256  -0.00056013  0.12496178  1
  Mn  Mn119  1  0.50050666  -0.00060781  0.74992440  1
  Mn  Mn120  1  0.25046059  0.16655812  0.62398489  1
  Mn  Mn121  1  0.75021147  -0.00068984  0.87504377  1
  Mn  Mn122  1  0.74967443  0.16701545  0.12563857  1
  Mn  Mn123  1  0.75022998  0.33428047  0.12468465  1
  Mn  Mn124  1  -0.00080390  0.16790354  0.25020547  1
  Mn  Mn125  1  0.74894510  0.33316150  0.87534692  1
  Mn  Mn126  1  0.74994136  0.83314033  0.62520276  1
  Mn  Mn127  1  0.24975910  0.00051324  0.12523845  1
  Mn  Mn128  1  0.25110945  0.00041745  0.87577775  1
  Mn  Mn129  1  0.24997740  0.50000618  0.87441277  1
  Mn  Mn130  1  0.50018230  -0.00055718  0.25003319  1
  Mn  Mn131  1  0.24969237  0.00053421  0.37461250  1
  Mn  Mn132  1  0.24895563  0.33246890  0.87524596  1
  Mn  Mn133  1  0.49921873  0.50125894  0.74896395  1
  Mn  Mn134  1  -0.00011102  0.83374694  0.74955369  1
  Mn  Mn135  1  0.25044220  0.66756269  0.37495353  1
  Mn  Mn136  1  0.50028679  0.50052516  0.49969364  1
  Mn  Mn137  1  0.00004784  0.16723004  0.50044203  1
  Mn  Mn138  1  0.75046783  -0.00064330  0.37471907  1
  Mn  Mn139  1  0.49967398  0.50051358  0.24971061  1
  Mn  Mn140  1  0.75049128  0.16515905  0.62435789  1
  Mn  Mn141  1  0.49940301  0.50103058  -0.00066084  1
  Mn  Mn142  1  -0.00053153  0.49987548  0.74965658  1
  Mn  Mn143  1  -0.00024917  0.00011277  0.24977466  1
  Fe  Fe144  1  -0.00035379  0.33365053  0.74974146  1
  Fe  Fe145  1  -0.00013216  0.33384368  0.25053887  1
  Fe  Fe146  1  -0.00014106  0.50004969  0.49930990  1
  Fe  Fe147  1  -0.00026415  0.16780260  0.74952830  1
  Fe  Fe148  1  0.75099312  0.83251395  0.87488994  1
  Fe  Fe149  1  0.25057085  0.83428269  0.37603571  1
  Fe  Fe150  1  0.50024323  0.66763726  0.75040445  1
  Fe  Fe151  1  0.50031628  0.83281363  0.00049447  1
  Fe  Fe152  1  0.50012690  0.66762543  0.00041118  1
  Fe  Fe153  1  0.75003984  -0.00081854  0.62481080  1
  Fe  Fe154  1  0.24996352  0.66718469  0.62452321  1
  Fe  Fe155  1  -0.00065450  0.16795258  -0.00070426  1
  Fe  Fe156  1  -0.00082074  0.33332703  -0.00016745  1
  Fe  Fe157  1  0.74946484  0.16638981  0.37523896  1
  Fe  Fe158  1  0.50015292  -0.00064515  0.00027281  1
  Fe  Fe159  1  0.50033571  0.83285364  0.25025167  1
  Fe  Fe160  1  0.24963711  0.16758368  0.12525528  1
  Fe  Fe161  1  0.75048874  0.66641673  0.37437526  1
  Fe  Fe162  1  -0.00009209  0.49959497  0.25064438  1
  Fe  Fe163  1  0.25024983  0.33491383  0.37408669  1
  Fe  Fe164  1  0.50072637  0.83252149  0.50045106  1
  Fe  Fe165  1  0.50036539  0.83274220  0.75099109  1
  Fe  Fe166  1  0.00049567  0.00127864  0.75053932  1
  Fe  Fe167  1  0.24986847  0.16639921  0.87452274  1
  Fe  Fe168  1  0.25025677  0.83352542  0.12562504  1
  Fe  Fe169  1  0.50024267  0.66743485  0.25074911  1
  Fe  Fe170  1  0.75022270  0.66559968  0.87565348  1
  Fe  Fe171  1  -0.00007449  0.66623883  0.74941982  1
  Fe  Fe172  1  0.74951635  0.49985711  0.87583934  1
  Fe  Fe173  1  0.75000391  0.66620244  0.12474675  1
  Fe  Fe174  1  0.50020063  0.16612523  0.74943324  1
  Fe  Fe175  1  0.49985121  0.16644995  0.49936107  1
  Fe  Fe176  1  0.49982975  0.33282134  0.49920500  1
  Fe  Fe177  1  0.25044780  0.00039193  0.62517133  1
  Fe  Fe178  1  0.74965251  0.16593056  0.87478657  1
  Fe  Fe179  1  0.25030530  0.50113117  0.37512511  1
  Fe  Fe180  1  -0.00034182  0.66585156  0.25024932  1
  Fe  Fe181  1  -0.00024235  0.00062443  0.50073257  1
  Fe  Fe182  1  0.74945441  0.33348578  0.37495640  1
  Fe  Fe183  1  -0.00034040  0.66592109  0.49957350  1
  Fe  Fe184  1  0.24937442  0.50058419  0.62441445  1
  Fe  Fe185  1  0.25003644  0.50015606  0.12536713  1
  Fe  Fe186  1  0.50036995  0.66738345  0.50058428  1
  Fe  Fe187  1  0.75059251  0.83287770  0.37460027  1
  Fe  Fe188  1  0.50009684  0.16602616  0.24963355  1
  Fe  Fe189  1  0.50041875  0.16542296  -0.00021794  1
  Fe  Fe190  1  0.74957160  0.50056129  0.12577838  1
  Fe  Fe191  1  0.00030470  0.33398623  0.50017646  1
  P  P192  1  0.04094258  0.25106652  0.10179057  1
  P  P193  1  0.04208779  0.25208579  0.35306084  1
  P  P194  1  0.04230896  0.25198232  0.60295415  1
  P  P195  1  0.04092340  0.25074652  0.85184901  1
  P  P196  1  0.04232633  0.58286671  0.10450889  1
  P  P197  1  0.04115199  0.58314419  0.35239476  1
  P  P198  1  0.04086069  0.58322227  0.60137504  1
  P  P199  1  0.04229395  0.58415144  0.85206761  1
  P  P200  1  0.04325359  0.91675697  0.10332452  1
  P  P201  1  0.04270602  0.91715642  0.35432304  1
  P  P202  1  0.04188067  0.91875610  0.60335169  1
  P  P203  1  0.04275533  0.91858642  0.85223498  1
  P  P204  1  0.54211818  0.24787572  0.10204627  1
  P  P205  1  0.54171116  0.24816748  0.35270670  1
  P  P206  1  0.54139328  0.24938635  0.60106257  1
  P  P207  1  0.54202002  0.24771949  0.85222016  1
  P  P208  1  0.54185079  0.58543164  0.10284129  1
  P  P209  1  0.54200564  0.58486499  0.35287468  1
  P  P210  1  0.54243066  0.58540396  0.60273239  1
  P  P211  1  0.54171123  0.58527729  0.85272978  1
  P  P212  1  0.54175944  0.91587203  0.10200994  1
  P  P213  1  0.54225295  0.91460001  0.35285220  1
  P  P214  1  0.54245608  0.91481366  0.60279766  1
  P  P215  1  0.54232338  0.91491509  0.85349418  1
  P  P216  1  0.45790813  0.08382484  0.14688179  1
  P  P217  1  0.45796161  0.08402105  0.39704657  1
  P  P218  1  0.45821727  0.08432450  0.64702461  1
  P  P219  1  0.45896075  0.08252717  0.89810375  1
  P  P220  1  0.45701034  0.41663450  0.14626690  1
  P  P221  1  0.45797503  0.41557904  0.39721364  1
  P  P222  1  0.45743814  0.41659039  0.64553148  1
  P  P223  1  0.45680066  0.41674561  0.89607209  1
  P  P224  1  0.45905673  0.75018499  0.14827503  1
  P  P225  1  0.45875739  0.74977538  0.39837708  1
  P  P226  1  0.45884911  0.75047728  0.64822890  1
  P  P227  1  0.45846865  0.75031913  0.89828662  1
  P  P228  1  0.95694736  0.08458983  0.14641671  1
  P  P229  1  0.95739897  0.08269145  0.39808402  1
  P  P230  1  0.95868851  0.08358170  0.64833589  1
  P  P231  1  0.95828062  0.08529352  0.89657016  1
  P  P232  1  0.95823123  0.41614237  0.14865330  1
  P  P233  1  0.95888611  0.41653094  0.39768963  1
  P  P234  1  0.95736545  0.41538881  0.64681378  1
  P  P235  1  0.95738925  0.41529432  0.89731550  1
  P  P236  1  0.95773085  0.74855884  0.14804705  1
  P  P237  1  0.95818318  0.74806471  0.39746297  1
  P  P238  1  0.95776030  0.74831951  0.64703685  1
  P  P239  1  0.95760901  0.74978144  0.89613223  1
  P  P240  1  0.20715535  0.08543966  0.22732398  1
  P  P241  1  0.20693638  0.08352889  0.47838858  1
  P  P242  1  0.20838645  0.08262775  0.72761198  1
  P  P243  1  0.20785316  0.08507026  0.97781111  1
  P  P244  1  0.20802808  0.41852565  0.22817542  1
  P  P245  1  0.20866044  0.41813412  0.47633381  1
  P  P246  1  0.20698050  0.41799482  0.72677651  1
  P  P247  1  0.20670695  0.41698215  0.97837101  1
  P  P248  1  0.20841664  0.75201857  0.22858150  1
  P  P249  1  0.20841675  0.75154891  0.47812005  1
  P  P250  1  0.20761453  0.74904007  0.72703523  1
  P  P251  1  0.20743951  0.75024090  0.97906159  1
  P  P252  1  0.70703153  0.08297900  0.22872953  1
  P  P253  1  0.70786731  0.08329616  0.47745326  1
  P  P254  1  0.70780355  0.08101055  0.72740937  1
  P  P255  1  0.70749008  0.08398023  0.97731081  1
  P  P256  1  0.70767057  0.41759989  0.22790969  1
  P  P257  1  0.70709736  0.41524331  0.47728755  1
  P  P258  1  0.70641801  0.41636756  0.72885970  1
  P  P259  1  0.70708673  0.41849543  0.97824912  1
  P  P260  1  0.70846828  0.74819783  0.22776118  1
  P  P261  1  0.70900700  0.74981225  0.47608017  1
  P  P262  1  0.70788159  0.74928407  0.72930299  1
  P  P263  1  0.70921345  0.74924120  0.97658890  1
  P  P264  1  0.29166916  0.24851863  0.02199217  1
  P  P265  1  0.29180019  0.25185565  0.27199894  1
  P  P266  1  0.29257808  0.25153367  0.52080125  1
  P  P267  1  0.29215098  0.24891190  0.77225418  1
  P  P268  1  0.29276341  0.58208653  0.02321621  1
  P  P269  1  0.29250261  0.58261444  0.27259461  1
  P  P270  1  0.29120284  0.58355862  0.52285614  1
  P  P271  1  0.29242702  0.58372643  0.77056761  1
  P  P272  1  0.29268866  0.91577391  0.02322015  1
  P  P273  1  0.29257696  0.91576122  0.27246461  1
  P  P274  1  0.29282068  0.91835669  0.52252439  1
  P  P275  1  0.29355524  0.91708595  0.77181968  1
  P  P276  1  0.79218837  0.24996856  0.02139743  1
  P  P277  1  0.79121219  0.25009359  0.27381592  1
  P  P278  1  0.79236640  0.24982072  0.52101402  1
  P  P279  1  0.79176906  0.24810500  0.77274312  1
  P  P280  1  0.79148847  0.58292683  0.02320026  1
  P  P281  1  0.79201929  0.58402257  0.27197032  1
  P  P282  1  0.79247114  0.58318592  0.52130987  1
  P  P283  1  0.79133273  0.58228929  0.77396952  1
  P  P284  1  0.79314870  0.91603393  0.02114500  1
  P  P285  1  0.79295580  0.91480227  0.27229779  1
  P  P286  1  0.79255372  0.91730377  0.52223524  1
  P  P287  1  0.79266940  0.91494445  0.77233060  1
  O  O288  1  0.03602217  0.25114601  0.18176659  1
  O  O289  1  0.03711624  0.25194958  0.43299132  1
  O  O290  1  0.03701507  0.25187435  0.68280193  1
  O  O291  1  0.03566761  0.25037403  0.93173656  1
  O  O292  1  0.03686556  0.58283229  0.18438487  1
  O  O293  1  0.03616256  0.58299663  0.43231279  1
  O  O294  1  0.03606297  0.58324870  0.68134479  1
  O  O295  1  0.03748155  0.58358205  0.93206740  1
  O  O296  1  0.03809669  0.91643467  0.18330364  1
  O  O297  1  0.03713745  0.91765276  0.43426798  1
  O  O298  1  0.03639196  0.91877983  0.68326870  1
  O  O299  1  0.03777889  0.91817833  0.93224045  1
  O  O300  1  0.53674005  0.24781090  0.18198672  1
  O  O301  1  0.53601940  0.24879315  0.43257004  1
  O  O302  1  0.53667164  0.24916541  0.68107284  1
  O  O303  1  0.53676267  0.24751058  0.93214779  1
  O  O304  1  0.53648047  0.58542194  0.18279309  1
  O  O305  1  0.53690869  0.58484646  0.43283348  1
  O  O306  1  0.53690598  0.58548849  0.68263859  1
  O  O307  1  0.53631275  0.58522159  0.93265803  1
  O  O308  1  0.53697363  0.91601066  0.18199613  1
  O  O309  1  0.53704903  0.91458717  0.43277211  1
  O  O310  1  0.53714266  0.91491243  0.68273955  1
  O  O311  1  0.53694163  0.91519643  0.93335088  1
  O  O312  1  0.46356681  0.08342972  0.06703249  1
  O  O313  1  0.46327443  0.08390202  0.31713987  1
  O  O314  1  0.46349144  0.08437379  0.56711155  1
  O  O315  1  0.46362027  0.08231514  0.81811609  1
  O  O316  1  0.46206144  0.41678083  0.06632306  1
  O  O317  1  0.46283469  0.41571133  0.31722950  1
  O  O318  1  0.46316088  0.41599766  0.56561736  1
  O  O319  1  0.46200021  0.41679845  0.81607688  1
  O  O320  1  0.46407291  0.75040570  0.06839120  1
  O  O321  1  0.46377451  0.74954485  0.31848824  1
  O  O322  1  0.46421278  0.75052791  0.56836357  1
  O  O323  1  0.46378737  0.75040179  0.81842296  1
  O  O324  1  0.96240433  0.08545018  0.06647161  1
  O  O325  1  0.96230324  0.08309152  0.31810337  1
  O  O326  1  0.96354729  0.08336405  0.56834579  1
  O  O327  1  0.96362300  0.08492143  0.81668735  1
  O  O328  1  0.96289351  0.41609168  0.06867416  1
  O  O329  1  0.96380735  0.41674186  0.31779237  1
  O  O330  1  0.96268690  0.41567714  0.56695913  1
  O  O331  1  0.96256817  0.41550513  0.81738979  1
  O  O332  1  0.96269436  0.74917513  0.06804908  1
  O  O333  1  0.96376148  0.74798994  0.31757197  1
  O  O334  1  0.96330440  0.74826030  0.56708942  1
  O  O335  1  0.96278466  0.74932940  0.81616171  1
  O  O336  1  0.21282233  0.08531106  0.05779335  1
  O  O337  1  0.21221615  0.08505245  0.30728405  1
  O  O338  1  0.21245041  0.08286077  0.55830543  1
  O  O339  1  0.21373847  0.08332897  0.80757048  1
  O  O340  1  0.21211128  0.41732760  0.05831456  1
  O  O341  1  0.21374304  0.41812717  0.30803673  1
  O  O342  1  0.21355941  0.41846481  0.55631026  1
  O  O343  1  0.21182880  0.41740688  0.80674459  1
  O  O344  1  0.21271672  0.75079577  0.05905914  1
  O  O345  1  0.21381644  0.75218303  0.30853482  1
  O  O346  1  0.21389946  0.75047626  0.55803630  1
  O  O347  1  0.21237608  0.74898789  0.80707447  1
  O  O348  1  0.71246568  0.08374898  0.05728334  1
  O  O349  1  0.71232165  0.08323790  0.30869935  1
  O  O350  1  0.71317989  0.08244468  0.55740102  1
  O  O351  1  0.71282347  0.08173213  0.80735954  1
  O  O352  1  0.71260043  0.41872960  0.05820666  1
  O  O353  1  0.71277915  0.41657441  0.30790342  1
  O  O354  1  0.71178795  0.41533251  0.55731241  1
  O  O355  1  0.71149580  0.41690742  0.80885748  1
  O  O356  1  0.71410686  0.74862335  0.05654650  1
  O  O357  1  0.71380385  0.74852148  0.30763268  1
  O  O358  1  0.71386125  0.74985149  0.55608187  1
  O  O359  1  0.71333700  0.74941018  0.80912803  1
  O  O360  1  0.28654306  0.25116749  0.19201715  1
  O  O361  1  0.28702644  0.25228220  0.44090788  1
  O  O362  1  0.28733290  0.24940994  0.69223960  1
  O  O363  1  0.28640239  0.24820765  0.94202797  1
  O  O364  1  0.28725518  0.58255294  0.19269877  1
  O  O365  1  0.28635419  0.58356945  0.44282521  1
  O  O366  1  0.28703374  0.58413306  0.69062432  1
  O  O367  1  0.28760316  0.58257157  0.94322338  1
  O  O368  1  0.28706134  0.91562091  0.19252168  1
  O  O369  1  0.28724824  0.91760291  0.44261058  1
  O  O370  1  0.28841530  0.91775501  0.69185600  1
  O  O371  1  0.28779091  0.91607974  0.94322253  1
  O  O372  1  0.78643004  0.25051900  0.19377155  1
  O  O373  1  0.78702604  0.24997688  0.44109880  1
  O  O374  1  0.78679540  0.24808410  0.69274213  1
  O  O375  1  0.78667768  0.24945677  0.94150019  1
  O  O376  1  0.78672455  0.58372223  0.19208847  1
  O  O377  1  0.78734696  0.58365895  0.44136684  1
  O  O378  1  0.78659833  0.58252938  0.69396586  1
  O  O379  1  0.78642178  0.58255547  0.94326167  1
  O  O380  1  0.78798412  0.91506108  0.19230431  1
  O  O381  1  0.78751879  0.91671588  0.44228797  1
  O  O382  1  0.78726206  0.91578846  0.69239379  1
  O  O383  1  0.78785850  0.91567226  0.94119181  1
  O  O384  1  0.22741437  0.24887364  0.05770506  1
  O  O385  1  0.22753993  0.25265507  0.30759834  1
  O  O386  1  0.22837402  0.25091213  0.55634908  1
  O  O387  1  0.22767865  0.24827669  0.80743670  1
  O  O388  1  0.22842550  0.58223439  0.05868547  1
  O  O389  1  0.22822278  0.58286420  0.30823107  1
  O  O390  1  0.22703185  0.58348275  0.55872875  1
  O  O391  1  0.22814213  0.58359645  0.80614950  1
  O  O392  1  0.22830448  0.91569159  0.05848458  1
  O  O393  1  0.22836138  0.91536079  0.30836919  1
  O  O394  1  0.22864727  0.91877501  0.55851376  1
  O  O395  1  0.22915907  0.91723818  0.80694507  1
  O  O396  1  0.72796529  0.25057524  0.05693609  1
  O  O397  1  0.72697095  0.24961262  0.30942206  1
  O  O398  1  0.72811349  0.24912225  0.55660027  1
  O  O399  1  0.72741822  0.24810291  0.80810121  1
  O  O400  1  0.72737789  0.58330571  0.05950239  1
  O  O401  1  0.72786558  0.58432908  0.30795849  1
  O  O402  1  0.72807731  0.58303941  0.55648838  1
  O  O403  1  0.72712515  0.58198873  0.80962151  1
  O  O404  1  0.72879696  0.91568454  0.05641891  1
  O  O405  1  0.72855945  0.91473423  0.30754591  1
  O  O406  1  0.72819252  0.91762276  0.55772824  1
  O  O407  1  0.72850804  0.91425409  0.80820905  1
  O  O408  1  0.27152674  0.08550711  0.19197940  1
  O  O409  1  0.27119372  0.08422431  0.44297037  1
  O  O410  1  0.27261250  0.08208617  0.69174532  1
  O  O411  1  0.27228451  0.08547537  0.94243804  1
  O  O412  1  0.27203684  0.41839307  0.19176260  1
  O  O413  1  0.27284363  0.41816556  0.44043528  1
  O  O414  1  0.27142414  0.41905592  0.69157180  1
  O  O415  1  0.27098766  0.41632922  0.94293368  1
  O  O416  1  0.27260743  0.75159466  0.19269924  1
  O  O417  1  0.27260216  0.75188063  0.44220034  1
  O  O418  1  0.27208344  0.74904948  0.69206258  1
  O  O419  1  0.27184053  0.74983743  0.94386311  1
  O  O420  1  0.77142197  0.08293517  0.19354745  1
  O  O421  1  0.77207643  0.08397683  0.44173079  1
  O  O422  1  0.77216639  0.08053318  0.69193128  1
  O  O423  1  0.77184441  0.08421820  0.94190983  1
  O  O424  1  0.77199260  0.41831209  0.19241328  1
  O  O425  1  0.77155824  0.41531020  0.44226732  1
  O  O426  1  0.77086054  0.41616872  0.69377171  1
  O  O427  1  0.77127630  0.41799378  0.94235979  1
  O  O428  1  0.77262218  0.74748282  0.19170918  1
  O  O429  1  0.77320342  0.74997605  0.44032641  1
  O  O430  1  0.77203568  0.74950671  0.69341462  1
  O  O431  1  0.77329926  0.74965931  0.94061386  1
  O  O432  1  0.02122931  0.08454656  0.18196390  1
  O  O433  1  0.02175250  0.08250077  0.43355904  1
  O  O434  1  0.02282177  0.08379729  0.68429968  1
  O  O435  1  0.02234983  0.08605826  0.93291563  1
  O  O436  1  0.02242365  0.41581897  0.18460619  1
  O  O437  1  0.02291126  0.41641388  0.43406385  1
  O  O438  1  0.02155077  0.41548541  0.68294267  1
  O  O439  1  0.02165678  0.41479237  0.93317070  1
  O  O440  1  0.02212918  0.74778937  0.18349087  1
  O  O441  1  0.02230624  0.74832050  0.43359326  1
  O  O442  1  0.02195251  0.74844926  0.68303148  1
  O  O443  1  0.02196809  0.74993084  0.93150366  1
  O  O444  1  0.52198282  0.08416125  0.18335753  1
  O  O445  1  0.52211996  0.08387915  0.43306482  1
  O  O446  1  0.52245074  0.08425452  0.68297317  1
  O  O447  1  0.52312791  0.08284393  0.93398245  1
  O  O448  1  0.52137535  0.41637109  0.18148696  1
  O  O449  1  0.52225326  0.41585231  0.43269642  1
  O  O450  1  0.52151837  0.41675374  0.68149297  1
  O  O451  1  0.52115671  0.41667634  0.93133911  1
  O  O452  1  0.52314556  0.74983037  0.18462000  1
  O  O453  1  0.52297450  0.74960251  0.43455837  1
  O  O454  1  0.52284366  0.75034434  0.68491770  1
  O  O455  1  0.52258022  0.75027244  0.93480773  1
  O  O456  1  0.47789464  0.24769185  0.06615504  1
  O  O457  1  0.47766485  0.24752317  0.31619785  1
  O  O458  1  0.47719013  0.24925437  0.56523750  1
  O  O459  1  0.47776055  0.24770252  0.81636791  1
  O  O460  1  0.47766665  0.58570253  0.06687268  1
  O  O461  1  0.47774827  0.58511015  0.31714146  1
  O  O462  1  0.47822845  0.58534115  0.56674475  1
  O  O463  1  0.47757060  0.58575018  0.81660668  1
  O  O464  1  0.47761591  0.91528588  0.06605133  1
  O  O465  1  0.47805919  0.91477004  0.31692939  1
  O  O466  1  0.47826567  0.91463947  0.56684511  1
  O  O467  1  0.47830200  0.91496671  0.81703533  1
  O  O468  1  0.97677611  0.25098004  0.06562727  1
  O  O469  1  0.97768902  0.25231820  0.31755304  1
  O  O470  1  0.97814670  0.25205373  0.56684187  1
  O  O471  1  0.97692143  0.25108128  0.81533781  1
  O  O472  1  0.97818042  0.58269473  0.06852902  1
  O  O473  1  0.97714666  0.58346804  0.31598488  1
  O  O474  1  0.97672420  0.58337785  0.56542035  1
  O  O475  1  0.97783139  0.58457036  0.81674643  1
  O  O476  1  0.97887036  0.91726022  0.06809219  1
  O  O477  1  0.97849604  0.91636741  0.31860997  1
  O  O478  1  0.97777015  0.91821534  0.56718916  1
  O  O479  1  0.97840350  0.91848613  0.81678496  1
  O  O480  1  0.07191410  0.31463968  0.07353478  1
  O  O481  1  0.07310944  0.31530829  0.32421732  1
  O  O482  1  0.07337483  0.31524385  0.57399974  1
  O  O483  1  0.07225358  0.31421581  0.82369586  1
  O  O484  1  0.07365822  0.64622450  0.07616581  1
  O  O485  1  0.07252216  0.64655997  0.32417184  1
  O  O486  1  0.07225160  0.64652025  0.57308622  1
  O  O487  1  0.07314968  0.64761782  0.82357677  1
  O  O488  1  0.07448269  0.98032168  0.07554455  1
  O  O489  1  0.07365168  0.98050171  0.32558263  1
  O  O490  1  0.07257279  0.98221522  0.57464332  1
  O  O491  1  0.07329938  0.98242613  0.82417799  1
  O  O492  1  0.57294334  0.31186060  0.07440944  1
  O  O493  1  0.57259180  0.31186752  0.32435259  1
  O  O494  1  0.57170952  0.31347882  0.57275562  1
  O  O495  1  0.57296881  0.31163264  0.82467478  1
  O  O496  1  0.57301227  0.64867209  0.07412305  1
  O  O497  1  0.57315651  0.64809189  0.32423162  1
  O  O498  1  0.57349703  0.64873078  0.57415251  1
  O  O499  1  0.57301548  0.64854566  0.82440000  1
  O  O500  1  0.57174709  0.98004654  0.07342524  1
  O  O501  1  0.57335940  0.97833632  0.32512642  1
  O  O502  1  0.57321164  0.97868919  0.57483044  1
  O  O503  1  0.57366800  0.97835688  0.82520848  1
  O  O504  1  0.42693116  0.02009304  0.17498765  1
  O  O505  1  0.42695333  0.02017711  0.42478568  1
  O  O506  1  0.42732778  0.02050272  0.67484616  1
  O  O507  1  0.42879012  0.01849168  0.92686139  1
  O  O508  1  0.42581137  0.35307235  0.17406187  1
  O  O509  1  0.42753540  0.35181272  0.42562688  1
  O  O510  1  0.42595830  0.35343059  0.67397386  1
  O  O511  1  0.42582238  0.35306389  0.92393734  1
  O  O512  1  0.42775289  0.68682299  0.17675645  1
  O  O513  1  0.42765877  0.68636040  0.42720593  1
  O  O514  1  0.42783235  0.68681168  0.67645903  1
  O  O515  1  0.42754534  0.68669065  0.92673247  1
  O  O516  1  0.92605286  0.02066829  0.17392334  1
  O  O517  1  0.92659826  0.01918823  0.42656197  1
  O  O518  1  0.92764552  0.02019566  0.67687773  1
  O  O519  1  0.92739638  0.02153312  0.92473289  1
  O  O520  1  0.92682901  0.35288603  0.17704166  1
  O  O521  1  0.92766183  0.35316608  0.42613695  1
  O  O522  1  0.92651592  0.35201092  0.67573816  1
  O  O523  1  0.92610424  0.35215445  0.92594220  1
  O  O524  1  0.92668632  0.68506664  0.17619930  1
  O  O525  1  0.92717125  0.68463607  0.42580903  1
  O  O526  1  0.92684874  0.68491999  0.67570961  1
  O  O527  1  0.92636922  0.68658781  0.92482686  1
  O  O528  1  0.17618135  0.02173929  0.19951118  1
  O  O529  1  0.17593590  0.02030629  0.44962821  1
  O  O530  1  0.17754215  0.01898043  0.69950841  1
  O  O531  1  0.17740836  0.02088718  0.95023916  1
  O  O532  1  0.17647946  0.35521909  0.19998941  1
  O  O533  1  0.17818466  0.35419852  0.44817199  1
  O  O534  1  0.17674264  0.35396813  0.69872052  1
  O  O535  1  0.17550690  0.35339154  0.95047175  1
  O  O536  1  0.17722538  0.68815768  0.20129317  1
  O  O537  1  0.17711215  0.68824991  0.44970174  1
  O  O538  1  0.17691835  0.68574053  0.69794720  1
  O  O539  1  0.17633210  0.68654521  0.95132598  1
  O  O540  1  0.67622852  0.01923219  0.20058642  1
  O  O541  1  0.67663881  0.01988715  0.44933133  1
  O  O542  1  0.67714797  0.01726934  0.69917113  1
  O  O543  1  0.67658335  0.02023137  0.94958474  1
  O  O544  1  0.67657170  0.35422898  0.19939056  1
  O  O545  1  0.67653923  0.35172305  0.44854623  1
  O  O546  1  0.67551072  0.35259413  0.70102895  1
  O  O547  1  0.67568941  0.35485734  0.95078843  1
  O  O548  1  0.67713015  0.68513668  0.19886855  1
  O  O549  1  0.67832688  0.68603973  0.44801956  1
  O  O550  1  0.67684035  0.68580369  0.70086071  1
  O  O551  1  0.67861284  0.68550426  0.94805750  1
  O  O552  1  0.32287554  0.31231856  0.04935994  1
  O  O553  1  0.32282597  0.31543455  0.30010496  1
  O  O554  1  0.32365608  0.31472671  0.54953905  1
  O  O555  1  0.32267965  0.31278902  0.80028980  1
  O  O556  1  0.32398498  0.64557997  0.05119552  1
  O  O557  1  0.32356319  0.64637501  0.30033772  1
  O  O558  1  0.32173386  0.64757054  0.55086186  1
  O  O559  1  0.32361325  0.64688283  0.79965640  1
  O  O560  1  0.32357477  0.97956113  0.05094566  1
  O  O561  1  0.32322583  0.97998739  0.29966682  1
  O  O562  1  0.32367692  0.98199543  0.55055354  1
  O  O563  1  0.32512922  0.97997376  0.80068903  1
  O  O564  1  0.82343208  0.31359771  0.04915642  1
  O  O565  1  0.82157444  0.31408328  0.30196785  1
  O  O566  1  0.82318484  0.31322673  0.54991238  1
  O  O567  1  0.82280396  0.31180552  0.80027605  1
  O  O568  1  0.82256084  0.64657279  0.05127577  1
  O  O569  1  0.82308031  0.64730482  0.30074398  1
  O  O570  1  0.82365869  0.64635844  0.54998200  1
  O  O571  1  0.82168230  0.64620443  0.80241030  1
  O  O572  1  0.82374320  0.97990094  0.04912702  1
  O  O573  1  0.82417393  0.97830872  0.30012469  1
  O  O574  1  0.82305612  0.98099694  0.55081527  1
  O  O575  1  0.82368983  0.97849311  0.80048305  1
  O  O576  1  0.42672390  0.14710048  0.17533599  1
  O  O577  1  0.42693824  0.14730580  0.42556505  1
  O  O578  1  0.42730395  0.14764328  0.67571098  1
  O  O579  1  0.42760469  0.14583317  0.92619526  1
  O  O580  1  0.42622709  0.48014197  0.17462955  1
  O  O581  1  0.42672090  0.47915472  0.42481782  1
  O  O582  1  0.42637224  0.48038839  0.67286131  1
  O  O583  1  0.42572852  0.48021508  0.92402945  1
  O  O584  1  0.42851349  0.81392530  0.17697207  1
  O  O585  1  0.42808403  0.81347839  0.42679987  1
  O  O586  1  0.42791301  0.81397601  0.67676885  1
  O  O587  1  0.42752012  0.81376365  0.92687604  1
  O  O588  1  0.92553163  0.14758156  0.17526122  1
  O  O589  1  0.92666616  0.14650688  0.42589363  1
  O  O590  1  0.92815822  0.14763674  0.67623628  1
  O  O591  1  0.92693850  0.14851527  0.92507230  1
  O  O592  1  0.92815536  0.48015846  0.17726939  1
  O  O593  1  0.92829373  0.48037364  0.42618470  1
  O  O594  1  0.92609449  0.47890315  0.67493633  1
  O  O595  1  0.92691924  0.47925853  0.92533286  1
  O  O596  1  0.92715636  0.81233158  0.17617155  1
  O  O597  1  0.92702501  0.81172269  0.42511393  1
  O  O598  1  0.92672325  0.81219117  0.67434701  1
  O  O599  1  0.92678709  0.81354274  0.92398865  1
  O  O600  1  0.07153288  0.18732521  0.07337998  1
  O  O601  1  0.07277272  0.18822626  0.32512882  1
  O  O602  1  0.07334842  0.18828357  0.57503500  1
  O  O603  1  0.07148137  0.18709761  0.82291500  1
  O  O604  1  0.07351772  0.51949852  0.07606468  1
  O  O605  1  0.07152580  0.51925464  0.32381308  1
  O  O606  1  0.07112825  0.51924709  0.57292004  1
  O  O607  1  0.07294741  0.52036655  0.82403651  1
  O  O608  1  0.07393693  0.85318145  0.07503850  1
  O  O609  1  0.07415050  0.85354884  0.32694224  1
  O  O610  1  0.07323802  0.85497946  0.57614386  1
  O  O611  1  0.07392786  0.85510589  0.82425072  1
  O  O612  1  0.57331252  0.18469809  0.07351770  1
  O  O613  1  0.57298829  0.18485337  0.32452368  1
  O  O614  1  0.57261171  0.18600860  0.57280743  1
  O  O615  1  0.57289211  0.18443625  0.82335224  1
  O  O616  1  0.57265327  0.52153273  0.07521579  1
  O  O617  1  0.57276308  0.52095899  0.32510473  1
  O  O618  1  0.57351718  0.52168900  0.57507354  1
  O  O619  1  0.57237520  0.52138266  0.82491543  1
  O  O620  1  0.57343272  0.85272118  0.07399762  1
  O  O621  1  0.57309227  0.85129661  0.32401156  1
  O  O622  1  0.57368039  0.85162608  0.57429583  1
  O  O623  1  0.57318948  0.85145589  0.82495400  1
  O  O624  1  0.32254329  0.18534263  0.05121653  1
  O  O625  1  0.32272617  0.18827387  0.30023189  1
  O  O626  1  0.32385437  0.18786582  0.54834555  1
  O  O627  1  0.32312789  0.18546471  0.80060670  1
  O  O628  1  0.32321370  0.51828972  0.05139202  1
  O  O629  1  0.32342903  0.51935765  0.30148080  1
  O  O630  1  0.32223842  0.52006816  0.55111864  1
  O  O631  1  0.32363798  0.52018379  0.79867616  1
  O  O632  1  0.32336911  0.85221793  0.05173401  1
  O  O633  1  0.32384958  0.85277776  0.30154232  1
  O  O634  1  0.32398356  0.85485333  0.55070598  1
  O  O635  1  0.32405903  0.85303832  0.79962187  1
  O  O636  1  0.82325734  0.18675335  0.05017387  1
  O  O637  1  0.82221139  0.18641181  0.30173409  1
  O  O638  1  0.82401959  0.18657639  0.54934279  1
  O  O639  1  0.82230730  0.18438660  0.80114993  1
  O  O640  1  0.82217874  0.51931203  0.05210429  1
  O  O641  1  0.82310348  0.52041316  0.30022758  1
  O  O642  1  0.82323474  0.51940677  0.54937622  1
  O  O643  1  0.82242223  0.51874410  0.80204985  1
  O  O644  1  0.82472877  0.85290396  0.04949409  1
  O  O645  1  0.82342341  0.85111950  0.30088110  1
  O  O646  1  0.82370312  0.85382941  0.55044404  1
  O  O647  1  0.82373051  0.85140746  0.80044229  1
  O  O648  1  0.17644139  0.14910010  0.19908440  1
  O  O649  1  0.17551133  0.14715233  0.45084675  1
  O  O650  1  0.17729304  0.14614450  0.69937517  1
  O  O651  1  0.17660214  0.14799692  0.94849517  1
  O  O652  1  0.17731238  0.48219539  0.19976441  1
  O  O653  1  0.17757522  0.48161656  0.44787274  1
  O  O654  1  0.17579589  0.48124759  0.69823506  1
  O  O655  1  0.17569940  0.48033365  0.94985917  1
  O  O656  1  0.17759173  0.81533428  0.19966339  1
  O  O657  1  0.17767649  0.81545212  0.45054002  1
  O  O658  1  0.17662579  0.81288153  0.69952523  1
  O  O659  1  0.17641310  0.81346698  0.95007853  1
  O  O660  1  0.67579496  0.14626357  0.20034552  1
  O  O661  1  0.67704098  0.14700481  0.44930991  1
  O  O662  1  0.67676405  0.14445593  0.69896199  1
  O  O663  1  0.67687183  0.14751067  0.94862242  1
  O  O664  1  0.67677674  0.48135356  0.19998837  1
  O  O665  1  0.67599803  0.47887981  0.44943102  1
  O  O666  1  0.67532197  0.47957037  0.69993963  1
  O  O667  1  0.67635793  0.48193549  0.94948762  1
  O  O668  1  0.67775727  0.81201673  0.19942474  1
  O  O669  1  0.67827723  0.81363588  0.44799547  1
  O  O670  1  0.67652523  0.81248466  0.70053562  1
  O  O671  1  0.67827205  0.81299106  0.94873444  1
