# generated using pymatgen
data_Na2MnFe(PO4)2
_symmetry_space_group_name_H-M   'P 1'
_cell_length_a   22.33948825
_cell_length_b   20.08860078
_cell_length_c   19.45120693
_cell_angle_alpha   89.95576968
_cell_angle_beta   89.98511520
_cell_angle_gamma   89.94438019
_symmetry_Int_Tables_number   1
_chemical_formula_structural   Na2MnFe(PO4)2
_chemical_formula_sum   'Na96 Mn48 Fe48 P96 O384'
_cell_volume   8729.09286629
_cell_formula_units_Z   48
loop_
 _symmetry_equiv_pos_site_id
 _symmetry_equiv_pos_as_xyz
  1  'x, y, z'
loop_
 _atom_site_type_symbol
 _atom_site_label
 _atom_site_symmetry_multiplicity
 _atom_site_fract_x
 _atom_site_fract_y
 _atom_site_fract_z
 _atom_site_occupancy
  Na  Na0  1  0.13965488  0.25166621  0.24358303  1
  Na  Na1  1  0.14010226  0.24852360  0.49364950  1
  Na  Na2  1  0.14016497  0.24921953  0.74308103  1
  Na  Na3  1  0.14039759  0.25060283  0.99244873  1
  Na  Na4  1  0.14085776  0.58518706  0.24394038  1
  Na  Na5  1  0.14032201  0.58330173  0.49385469  1
  Na  Na6  1  0.14054860  0.58208120  0.74377512  1
  Na  Na7  1  0.14052305  0.58184628  0.99410850  1
  Na  Na8  1  0.14071959  0.91758124  0.24492538  1
  Na  Na9  1  0.14075794  0.91669186  0.49452985  1
  Na  Na10  1  0.14079485  0.91741942  0.74299564  1
  Na  Na11  1  0.14036614  0.91693555  0.99360341  1
  Na  Na12  1  0.63986982  0.25197631  0.24438774  1
  Na  Na13  1  0.64013805  0.25194958  0.49322403  1
  Na  Na14  1  0.63990892  0.25048949  0.74288305  1
  Na  Na15  1  0.63987944  0.25075513  0.99334099  1
  Na  Na16  1  0.64057016  0.58447286  0.24465471  1
  Na  Na17  1  0.64021255  0.58245872  0.49378575  1
  Na  Na18  1  0.64026999  0.58337148  0.74224944  1
  Na  Na19  1  0.64036737  0.58391169  0.99457516  1
  Na  Na20  1  0.64046649  0.91559226  0.24376587  1
  Na  Na21  1  0.64041140  0.91506683  0.49326047  1
  Na  Na22  1  0.64044827  0.91546861  0.74335810  1
  Na  Na23  1  0.64071339  0.91616661  0.99438949  1
  Na  Na24  1  0.35903067  0.08314916  0.00436752  1
  Na  Na25  1  0.35910688  0.08480981  0.25616172  1
  Na  Na26  1  0.35911922  0.08433619  0.50685150  1
  Na  Na27  1  0.35935623  0.08434010  0.75606407  1
  Na  Na28  1  0.35987090  0.41612546  0.00553711  1
  Na  Na29  1  0.35976874  0.41817780  0.25688325  1
  Na  Na30  1  0.35961213  0.41591391  0.50692902  1
  Na  Na31  1  0.35946667  0.41486640  0.75633050  1
  Na  Na32  1  0.35995314  0.74984752  0.00724831  1
  Na  Na33  1  0.36003881  0.75226777  0.25691791  1
  Na  Na34  1  0.36030214  0.75021808  0.50757980  1
  Na  Na35  1  0.36009517  0.74882047  0.75693478  1
  Na  Na36  1  0.85914416  0.08328698  0.00571557  1
  Na  Na37  1  0.85945884  0.08445677  0.25724380  1
  Na  Na38  1  0.85970749  0.08367467  0.50655838  1
  Na  Na39  1  0.85953184  0.08263642  0.75525930  1
  Na  Na40  1  0.86036943  0.41710541  0.00685344  1
  Na  Na41  1  0.85914235  0.41662941  0.25675494  1
  Na  Na42  1  0.85932755  0.41674613  0.50566796  1
  Na  Na43  1  0.85948240  0.41530073  0.75559708  1
  Na  Na44  1  0.85956063  0.74896414  0.00710564  1
  Na  Na45  1  0.85998477  0.74839138  0.25623636  1
  Na  Na46  1  0.85957023  0.74788317  0.50684419  1
  Na  Na47  1  0.85975374  0.74902030  0.75473445  1
  Na  Na48  1  0.10936783  0.08503235  0.11885893  1
  Na  Na49  1  0.10964640  0.08359198  0.36964002  1
  Na  Na50  1  0.11011265  0.08243698  0.61846477  1
  Na  Na51  1  0.10993557  0.08401361  0.86704582  1
  Na  Na52  1  0.10968805  0.41642876  0.11838655  1
  Na  Na53  1  0.10983185  0.41601397  0.36812367  1
  Na  Na54  1  0.10968933  0.41522124  0.61890057  1
  Na  Na55  1  0.10999343  0.41731561  0.86853482  1
  Na  Na56  1  0.11012916  0.74916985  0.11922060  1
  Na  Na57  1  0.11023306  0.74912283  0.36938447  1
  Na  Na58  1  0.10987908  0.74936875  0.61870642  1
  Na  Na59  1  0.10965213  0.75042452  0.86891996  1
  Na  Na60  1  0.60917645  0.08376178  0.11887972  1
  Na  Na61  1  0.60933922  0.08402907  0.36829424  1
  Na  Na62  1  0.60916388  0.08440851  0.61836914  1
  Na  Na63  1  0.60955430  0.08436110  0.86798539  1
  Na  Na64  1  0.60960572  0.41783849  0.11933684  1
  Na  Na65  1  0.61009072  0.41740716  0.36935123  1
  Na  Na66  1  0.60961208  0.41730217  0.61725688  1
  Na  Na67  1  0.60946171  0.41661556  0.86811824  1
  Na  Na68  1  0.60997581  0.75033105  0.11874813  1
  Na  Na69  1  0.61015546  0.74936290  0.36951673  1
  Na  Na70  1  0.60978364  0.74861274  0.61762426  1
  Na  Na71  1  0.60978133  0.74987466  0.87002782  1
  Na  Na72  1  0.39007232  0.25119807  0.13019336  1
  Na  Na73  1  0.38987746  0.25190496  0.38194517  1
  Na  Na74  1  0.38981838  0.25078274  0.63211649  1
  Na  Na75  1  0.38967683  0.25034599  0.88032665  1
  Na  Na76  1  0.39048730  0.58424095  0.13164992  1
  Na  Na77  1  0.39057681  0.58411063  0.38297128  1
  Na  Na78  1  0.39038325  0.58264980  0.63138493  1
  Na  Na79  1  0.39085760  0.58344240  0.88155975  1
  Na  Na80  1  0.39012172  0.91665092  0.13102563  1
  Na  Na81  1  0.39062895  0.91660206  0.38152209  1
  Na  Na82  1  0.39072011  0.91656128  0.63156290  1
  Na  Na83  1  0.39038988  0.91650198  0.88150751  1
  Na  Na84  1  0.89053294  0.25044513  0.13118335  1
  Na  Na85  1  0.88974297  0.24892728  0.38159546  1
  Na  Na86  1  0.89004292  0.24871115  0.63087383  1
  Na  Na87  1  0.89002491  0.25077251  0.88102463  1
  Na  Na88  1  0.89013157  0.58156268  0.13207448  1
  Na  Na89  1  0.88976544  0.58300174  0.38125052  1
  Na  Na90  1  0.88977944  0.58258583  0.63103644  1
  Na  Na91  1  0.89039007  0.58289489  0.88048083  1
  Na  Na92  1  0.89039712  0.91624724  0.13200342  1
  Na  Na93  1  0.89071415  0.91590102  0.38157657  1
  Na  Na94  1  0.89044615  0.91563549  0.63088565  1
  Na  Na95  1  0.89059840  0.91693048  0.88026941  1
  Mn  Mn96  1  -0.00002720  0.49975102  0.49954105  1
  Mn  Mn97  1  0.25042698  0.83318564  0.62535816  1
  Mn  Mn98  1  0.25032966  0.83413313  0.37623877  1
  Mn  Mn99  1  0.25048084  0.33492038  0.12400948  1
  Mn  Mn100  1  0.75034555  0.83245588  0.87486155  1
  Mn  Mn101  1  0.75075999  0.83184454  0.37437604  1
  Mn  Mn102  1  0.49978775  0.50049005  -0.00001300  1
  Mn  Mn103  1  0.74922578  -0.00015192  0.12538523  1
  Mn  Mn104  1  0.00023850  0.83330693  0.74952676  1
  Mn  Mn105  1  0.75011480  -0.00005271  0.87454434  1
  Mn  Mn106  1  0.49972461  -0.00016611  -0.00058772  1
  Mn  Mn107  1  0.00001217  0.83333513  -0.00018683  1
  Mn  Mn108  1  0.50028758  0.83215222  0.75067040  1
  Mn  Mn109  1  0.74922167  -0.00073755  0.62487463  1
  Mn  Mn110  1  0.74918916  0.33296409  0.87517406  1
  Mn  Mn111  1  -0.00049327  0.66547203  -0.00039587  1
  Mn  Mn112  1  0.49971256  0.16808034  -0.00059738  1
  Mn  Mn113  1  0.00009017  0.00082685  0.00076875  1
  Mn  Mn114  1  0.00039224  0.49929327  0.25002056  1
  Mn  Mn115  1  0.24981099  0.49897893  0.62462393  1
  Mn  Mn116  1  0.50020601  0.50005529  0.25060011  1
  Mn  Mn117  1  -0.00048112  0.16655166  0.74979973  1
  Mn  Mn118  1  -0.00008811  0.49983026  0.74969887  1
  Mn  Mn119  1  0.75035464  0.33450269  0.12513976  1
  Mn  Mn120  1  0.00020849  0.00065327  0.25085458  1
  Mn  Mn121  1  0.24989589  0.83329546  0.87473490  1
  Mn  Mn122  1  0.50067664  0.00037420  0.75009108  1
  Mn  Mn123  1  0.24913829  0.00007032  0.12496532  1
  Mn  Mn124  1  0.75044055  0.00014484  0.37476766  1
  Mn  Mn125  1  -0.00026558  0.33176221  0.49917211  1
  Mn  Mn126  1  0.25063131  0.66710274  0.12506013  1
  Mn  Mn127  1  0.75006001  0.66596523  0.87455806  1
  Mn  Mn128  1  0.75020287  0.49967620  0.87454998  1
  Mn  Mn129  1  0.49944889  0.16808912  0.49912746  1
  Mn  Mn130  1  0.00000327  0.83237911  0.50035932  1
  Mn  Mn131  1  0.49964824  -0.00037430  0.49945995  1
  Mn  Mn132  1  0.24980424  0.16736989  0.37530806  1
  Mn  Mn133  1  -0.00030105  0.16809083  -0.00094031  1
  Mn  Mn134  1  0.74918400  0.16729676  0.62487271  1
  Mn  Mn135  1  0.49937704  0.16838764  0.24900969  1
  Mn  Mn136  1  0.24978338  0.66518680  0.87622156  1
  Mn  Mn137  1  0.00079872  0.83184271  0.25117748  1
  Mn  Mn138  1  0.50031333  0.50028183  0.75012559  1
  Mn  Mn139  1  0.49956375  -0.00068115  0.24931764  1
  Mn  Mn140  1  0.74954317  0.16732005  0.12548309  1
  Mn  Mn141  1  0.49989474  0.66791070  0.25127824  1
  Mn  Mn142  1  0.24957222  0.16738196  0.12453944  1
  Mn  Mn143  1  0.25001526  0.50073043  0.37584190  1
  Fe  Fe144  1  0.50014392  0.66666249  0.75008959  1
  Fe  Fe145  1  0.50012391  0.66733172  0.00066831  1
  Fe  Fe146  1  0.25026714  0.50050300  0.12543566  1
  Fe  Fe147  1  0.25031850  0.66582041  0.62576707  1
  Fe  Fe148  1  0.74986533  0.33424705  0.37509017  1
  Fe  Fe149  1  0.24969529  0.33380310  0.37539357  1
  Fe  Fe150  1  0.75031196  0.66617493  0.12552596  1
  Fe  Fe151  1  0.75027444  0.83223724  0.62405470  1
  Fe  Fe152  1  0.24990661  0.16665300  0.62525078  1
  Fe  Fe153  1  0.49941563  0.33462299  0.25031581  1
  Fe  Fe154  1  0.50021324  0.83320453  0.00023390  1
  Fe  Fe155  1  0.74979149  0.66588003  0.37502464  1
  Fe  Fe156  1  -0.00026036  0.33365353  0.75024094  1
  Fe  Fe157  1  -0.00034945  0.16675416  0.25010774  1
  Fe  Fe158  1  0.74950173  0.50074871  0.12609611  1
  Fe  Fe159  1  0.50035673  0.83299489  0.50065761  1
  Fe  Fe160  1  0.25066501  0.00040840  0.62503329  1
  Fe  Fe161  1  0.25006655  0.83409832  0.12543294  1
  Fe  Fe162  1  0.24935169  0.16626268  0.87364318  1
  Fe  Fe163  1  0.00033931  0.49955380  -0.00002136  1
  Fe  Fe164  1  0.00008167  -0.00033546  0.50014042  1
  Fe  Fe165  1  0.75000272  0.50045187  0.37522808  1
  Fe  Fe166  1  0.75026515  0.33355858  0.62410151  1
  Fe  Fe167  1  0.49969065  0.16776118  0.74925999  1
  Fe  Fe168  1  0.25075470  0.49892663  0.87436750  1
  Fe  Fe169  1  0.24949843  0.33288427  0.87469864  1
  Fe  Fe170  1  0.75090359  0.83269178  0.12512681  1
  Fe  Fe171  1  0.00018607  0.00004229  0.74954088  1
  Fe  Fe172  1  0.49997161  0.33399608  0.50042494  1
  Fe  Fe173  1  0.50029471  0.83316583  0.25028595  1
  Fe  Fe174  1  0.00031260  0.33389357  0.00016875  1
  Fe  Fe175  1  0.74993827  0.49948199  0.62395906  1
  Fe  Fe176  1  0.75002939  0.66565093  0.62434539  1
  Fe  Fe177  1  0.00025315  0.16583031  0.50023751  1
  Fe  Fe178  1  0.00033952  0.66635793  0.75021609  1
  Fe  Fe179  1  0.74918024  0.16743337  0.37571686  1
  Fe  Fe180  1  0.74978066  0.16664514  0.87466966  1
  Fe  Fe181  1  0.00022566  0.66587139  0.50019055  1
  Fe  Fe182  1  0.25014463  -0.00000097  0.87445920  1
  Fe  Fe183  1  0.49999904  0.33371015  0.74938763  1
  Fe  Fe184  1  0.25069929  0.66755165  0.37515042  1
  Fe  Fe185  1  0.50027663  0.33386352  -0.00075582  1
  Fe  Fe186  1  0.49997807  0.66677814  0.50036732  1
  Fe  Fe187  1  -0.00048849  0.33267206  0.24962383  1
  Fe  Fe188  1  0.25025072  0.00066710  0.37531448  1
  Fe  Fe189  1  0.00001877  0.66547157  0.24986519  1
  Fe  Fe190  1  0.49957482  0.49996909  0.50062279  1
  Fe  Fe191  1  0.24930692  0.33246018  0.62572649  1
  P  P192  1  0.04243537  0.25155493  0.10266854  1
  P  P193  1  0.04117326  0.24917492  0.35177201  1
  P  P194  1  0.04210545  0.24810912  0.60258602  1
  P  P195  1  0.04201182  0.25190733  0.85237411  1
  P  P196  1  0.04225793  0.58151022  0.10269963  1
  P  P197  1  0.04241498  0.58422756  0.35279246  1
  P  P198  1  0.04215246  0.58379638  0.60280548  1
  P  P199  1  0.04254403  0.58386524  0.85261149  1
  P  P200  1  0.04302280  0.91645341  0.10364966  1
  P  P201  1  0.04275609  0.91660217  0.35430407  1
  P  P202  1  0.04224805  0.91748174  0.60274006  1
  P  P203  1  0.04269164  0.91806683  0.85196383  1
  P  P204  1  0.54209540  0.25255047  0.10245688  1
  P  P205  1  0.54162376  0.25249438  0.35265821  1
  P  P206  1  0.54178576  0.25171822  0.60286545  1
  P  P207  1  0.54129703  0.25094237  0.85124837  1
  P  P208  1  0.54209280  0.58494655  0.10278091  1
  P  P209  1  0.54222855  0.58360903  0.35463066  1
  P  P210  1  0.54119071  0.58339263  0.60177543  1
  P  P211  1  0.54254208  0.58521159  0.85275431  1
  P  P212  1  0.54213477  0.91530923  0.10264606  1
  P  P213  1  0.54234630  0.91501749  0.35282553  1
  P  P214  1  0.54257347  0.91536451  0.60244025  1
  P  P215  1  0.54299186  0.91600968  0.85360385  1
  P  P216  1  0.45664381  0.08382526  0.14641618  1
  P  P217  1  0.45666878  0.08386001  0.39647715  1
  P  P218  1  0.45788339  0.08481105  0.64745023  1
  P  P219  1  0.45753981  0.08443786  0.89584245  1
  P  P220  1  0.45739214  0.41629210  0.14727537  1
  P  P221  1  0.45857673  0.41676298  0.39867719  1
  P  P222  1  0.45797799  0.41610246  0.64702833  1
  P  P223  1  0.45818161  0.41574644  0.89680869  1
  P  P224  1  0.45794537  0.75158516  0.14734144  1
  P  P225  1  0.45873388  0.75076526  0.39885716  1
  P  P226  1  0.45812659  0.74821667  0.64713252  1
  P  P227  1  0.45832935  0.74975077  0.89866214  1
  P  P228  1  0.95738337  0.08498749  0.14790627  1
  P  P229  1  0.95835807  0.08343659  0.39839680  1
  P  P230  1  0.95789941  0.08159871  0.64656571  1
  P  P231  1  0.95727316  0.08346635  0.89626505  1
  P  P232  1  0.95781182  0.41497732  0.14703562  1
  P  P233  1  0.95744549  0.41577521  0.39605640  1
  P  P234  1  0.95761882  0.41490701  0.64724054  1
  P  P235  1  0.95860826  0.41678632  0.89801028  1
  P  P236  1  0.95803431  0.74799849  0.14785351  1
  P  P237  1  0.95788530  0.74760806  0.39756379  1
  P  P238  1  0.95833601  0.74775635  0.64709346  1
  P  P239  1  0.95711286  0.74967758  0.89632878  1
  P  P240  1  0.20690797  0.08413602  0.22851213  1
  P  P241  1  0.20823866  0.08222444  0.47835301  1
  P  P242  1  0.20882912  0.08322019  0.72695299  1
  P  P243  1  0.20801500  0.08322449  0.97565178  1
  P  P244  1  0.20785658  0.41870206  0.22779257  1
  P  P245  1  0.20748282  0.41509522  0.47809625  1
  P  P246  1  0.20778925  0.41477902  0.72815951  1
  P  P247  1  0.20882157  0.41695543  0.97644357  1
  P  P248  1  0.20839709  0.75186818  0.22805795  1
  P  P249  1  0.20846008  0.74846790  0.47849402  1
  P  P250  1  0.20815418  0.74835357  0.72767299  1
  P  P251  1  0.20724334  0.75004353  0.97881798  1
  P  P252  1  0.70666871  0.08409070  0.22901338  1
  P  P253  1  0.70730740  0.08445448  0.47737099  1
  P  P254  1  0.70673405  0.08343376  0.72825971  1
  P  P255  1  0.70731422  0.08452853  0.97723367  1
  P  P256  1  0.70780704  0.41863435  0.22868428  1
  P  P257  1  0.70901636  0.41732994  0.47716583  1
  P  P258  1  0.70836865  0.41642166  0.72562650  1
  P  P259  1  0.70701038  0.41747313  0.97855382  1
  P  P260  1  0.70884643  0.74924462  0.22691164  1
  P  P261  1  0.70841778  0.74781815  0.47795159  1
  P  P262  1  0.70862992  0.74931231  0.72568910  1
  P  P263  1  0.70797599  0.74918887  0.97909826  1
  P  P264  1  0.29222939  0.25025989  0.02035714  1
  P  P265  1  0.29205305  0.25237120  0.27276358  1
  P  P266  1  0.29091033  0.25026606  0.52358122  1
  P  P267  1  0.29049721  0.24991417  0.77244199  1
  P  P268  1  0.29258373  0.58135428  0.02251340  1
  P  P269  1  0.29281677  0.58525565  0.27295904  1
  P  P270  1  0.29206359  0.58441962  0.52258912  1
  P  P271  1  0.29241660  0.58157361  0.77243822  1
  P  P272  1  0.29204513  0.91603297  0.02217214  1
  P  P273  1  0.29238162  0.91846595  0.27279967  1
  P  P274  1  0.29252449  0.91818872  0.52270742  1
  P  P275  1  0.29250337  0.91814461  0.77205779  1
  P  P276  1  0.79260199  0.25008164  0.02168830  1
  P  P277  1  0.79083743  0.25053406  0.27396597  1
  P  P278  1  0.79176108  0.25140821  0.52145987  1
  P  P279  1  0.79190920  0.24901315  0.77212136  1
  P  P280  1  0.79179005  0.58289519  0.02388660  1
  P  P281  1  0.79149299  0.58323622  0.27294000  1
  P  P282  1  0.79117753  0.58249252  0.52230817  1
  P  P283  1  0.79255759  0.58253317  0.77038123  1
  P  P284  1  0.79246991  0.91554189  0.02285010  1
  P  P285  1  0.79326045  0.91594496  0.27135166  1
  P  P286  1  0.79230439  0.91503813  0.52223977  1
  P  P287  1  0.79262990  0.91555173  0.77091845  1
  O  O288  1  0.03710349  0.25113273  0.18253866  1
  O  O289  1  0.03626070  0.24838415  0.43174451  1
  O  O290  1  0.03689119  0.24875218  0.68243671  1
  O  O291  1  0.03692688  0.25230086  0.93231995  1
  O  O292  1  0.03715745  0.58188263  0.18265220  1
  O  O293  1  0.03714405  0.58434074  0.43276314  1
  O  O294  1  0.03704815  0.58385719  0.68275326  1
  O  O295  1  0.03711155  0.58274080  0.93250613  1
  O  O296  1  0.03800572  0.91631250  0.18364505  1
  O  O297  1  0.03713978  0.91694801  0.43422011  1
  O  O298  1  0.03715761  0.91773774  0.68269912  1
  O  O299  1  0.03752331  0.91775480  0.93193591  1
  O  O300  1  0.53660442  0.25269414  0.18237777  1
  O  O301  1  0.53646372  0.25250843  0.43262727  1
  O  O302  1  0.53643077  0.25119741  0.68275411  1
  O  O303  1  0.53673103  0.25121102  0.93125947  1
  O  O304  1  0.53699541  0.58460379  0.18272510  1
  O  O305  1  0.53671639  0.58354035  0.43447745  1
  O  O306  1  0.53689248  0.58344775  0.68177225  1
  O  O307  1  0.53707202  0.58521584  0.93266040  1
  O  O308  1  0.53685221  0.91516464  0.18261219  1
  O  O309  1  0.53701526  0.91499036  0.43278905  1
  O  O310  1  0.53755643  0.91559233  0.68239823  1
  O  O311  1  0.53752593  0.91569812  0.93352167  1
  O  O312  1  0.46193778  0.08381182  0.06644633  1
  O  O313  1  0.46155785  0.08386777  0.31652769  1
  O  O314  1  0.46262931  0.08469660  0.56745310  1
  O  O315  1  0.46306824  0.08487009  0.81592404  1
  O  O316  1  0.46264440  0.41648620  0.06732200  1
  O  O317  1  0.46331393  0.41672274  0.31868178  1
  O  O318  1  0.46319900  0.41639864  0.56715190  1
  O  O319  1  0.46368544  0.41590888  0.81691633  1
  O  O320  1  0.46337482  0.75112592  0.06748729  1
  O  O321  1  0.46358734  0.75134857  0.31888479  1
  O  O322  1  0.46349832  0.74848877  0.56726468  1
  O  O323  1  0.46331936  0.74921637  0.81868254  1
  O  O324  1  0.96247909  0.08497907  0.06794110  1
  O  O325  1  0.96333845  0.08414003  0.31842442  1
  O  O326  1  0.96354206  0.08181402  0.56669326  1
  O  O327  1  0.96244795  0.08279521  0.81630151  1
  O  O328  1  0.96313267  0.41531399  0.06712805  1
  O  O329  1  0.96275473  0.41552828  0.31615070  1
  O  O330  1  0.96272740  0.41510459  0.56731291  1
  O  O331  1  0.96364880  0.41643285  0.81801962  1
  O  O332  1  0.96291873  0.74849599  0.06788561  1
  O  O333  1  0.96305912  0.74744142  0.31761619  1
  O  O334  1  0.96385411  0.74748665  0.56715328  1
  O  O335  1  0.96263460  0.74945807  0.81639703  1
  O  O336  1  0.21253231  0.08370574  0.05565856  1
  O  O337  1  0.21228394  0.08391761  0.30842273  1
  O  O338  1  0.21381596  0.08234554  0.55818493  1
  O  O339  1  0.21383078  0.08307133  0.80684769  1
  O  O340  1  0.21391934  0.41759801  0.05637680  1
  O  O341  1  0.21274251  0.41814310  0.30774594  1
  O  O342  1  0.21264716  0.41468001  0.55803347  1
  O  O343  1  0.21348854  0.41497414  0.80797869  1
  O  O344  1  0.21252974  0.75076688  0.05875414  1
  O  O345  1  0.21376485  0.75137030  0.30801335  1
  O  O346  1  0.21372569  0.74802894  0.55842040  1
  O  O347  1  0.21285374  0.74859844  0.80766127  1
  O  O348  1  0.71229760  0.08421140  0.05725587  1
  O  O349  1  0.71197705  0.08449529  0.30897323  1
  O  O350  1  0.71235140  0.08408845  0.55736306  1
  O  O351  1  0.71215807  0.08390680  0.80818261  1
  O  O352  1  0.71189885  0.41779227  0.05850724  1
  O  O353  1  0.71332518  0.41842722  0.30854459  1
  O  O354  1  0.71399636  0.41673029  0.55704631  1
  O  O355  1  0.71310677  0.41624495  0.80563594  1
  O  O356  1  0.71338741  0.74928598  0.05897370  1
  O  O357  1  0.71383563  0.74858904  0.30689507  1
  O  O358  1  0.71382325  0.74828960  0.55779003  1
  O  O359  1  0.71338455  0.74904212  0.80569520  1
  O  O360  1  0.28718479  0.25233358  0.19280275  1
  O  O361  1  0.28615887  0.25066368  0.44360648  1
  O  O362  1  0.28556671  0.24974044  0.69253430  1
  O  O363  1  0.28662171  0.25018927  0.94050302  1
  O  O364  1  0.28771340  0.58460965  0.19304499  1
  O  O365  1  0.28699177  0.58498861  0.44265954  1
  O  O366  1  0.28702736  0.58230738  0.69250923  1
  O  O367  1  0.28746452  0.58084989  0.94257118  1
  O  O368  1  0.28681416  0.91751922  0.19289293  1
  O  O369  1  0.28716965  0.91817805  0.44279655  1
  O  O370  1  0.28715584  0.91805075  0.69211677  1
  O  O371  1  0.28692217  0.91649633  0.94222051  1
  O  O372  1  0.78623373  0.25087574  0.19398960  1
  O  O373  1  0.78632190  0.25110437  0.44160924  1
  O  O374  1  0.78676764  0.24989893  0.69219439  1
  O  O375  1  0.78736780  0.24943930  0.94173902  1
  O  O376  1  0.78603662  0.58337080  0.19307905  1
  O  O377  1  0.78598743  0.58308018  0.44244001  1
  O  O378  1  0.78748561  0.58224166  0.69048571  1
  O  O379  1  0.78704158  0.58284578  0.94386238  1
  O  O380  1  0.78799509  0.91575929  0.19140718  1
  O  O381  1  0.78739938  0.91539174  0.44224656  1
  O  O382  1  0.78707508  0.91504685  0.69099409  1
  O  O383  1  0.78737999  0.91584079  0.94283490  1
  O  O384  1  0.22807781  0.25088398  0.05638760  1
  O  O385  1  0.22764730  0.25222094  0.30817336  1
  O  O386  1  0.22669831  0.25010171  0.55939675  1
  O  O387  1  0.22650409  0.25041063  0.80875677  1
  O  O388  1  0.22831038  0.58204451  0.05827830  1
  O  O389  1  0.22849201  0.58549234  0.30864798  1
  O  O390  1  0.22781807  0.58375819  0.55828334  1
  O  O391  1  0.22818366  0.58099461  0.80833068  1
  O  O392  1  0.22774360  0.91538643  0.05791692  1
  O  O393  1  0.22823643  0.91878852  0.30895976  1
  O  O394  1  0.22832566  0.91802827  0.55860095  1
  O  O395  1  0.22821978  0.91822747  0.80783290  1
  O  O396  1  0.72822985  0.25090248  0.05696008  1
  O  O397  1  0.72662265  0.25006599  0.30961610  1
  O  O398  1  0.72759227  0.25197580  0.55754152  1
  O  O399  1  0.72760149  0.24835147  0.80791419  1
  O  O400  1  0.72751958  0.58325293  0.05968891  1
  O  O401  1  0.72747594  0.58322034  0.30957002  1
  O  O402  1  0.72718447  0.58187861  0.55878406  1
  O  O403  1  0.72820520  0.58268128  0.80585680  1
  O  O404  1  0.72813738  0.91490749  0.05840419  1
  O  O405  1  0.72893730  0.91608720  0.30672548  1
  O  O406  1  0.72791617  0.91440293  0.55758527  1
  O  O407  1  0.72840234  0.91595490  0.80657237  1
  O  O408  1  0.27116610  0.08395663  0.19289578  1
  O  O409  1  0.27226236  0.08237653  0.44185244  1
  O  O410  1  0.27287902  0.08356485  0.69064931  1
  O  O411  1  0.27227374  0.08274099  0.94000276  1
  O  O412  1  0.27226820  0.41886488  0.19230584  1
  O  O413  1  0.27180539  0.41537529  0.44244730  1
  O  O414  1  0.27185616  0.41466059  0.69179084  1
  O  O415  1  0.27294309  0.41635850  0.94026331  1
  O  O416  1  0.27255045  0.75210116  0.19198095  1
  O  O417  1  0.27269036  0.74895621  0.44260580  1
  O  O418  1  0.27257579  0.74886140  0.69256922  1
  O  O419  1  0.27160166  0.74966662  0.94347492  1
  O  O420  1  0.77105108  0.08348864  0.19378033  1
  O  O421  1  0.77170332  0.08509805  0.44202106  1
  O  O422  1  0.77101376  0.08322167  0.69276729  1
  O  O423  1  0.77167165  0.08489364  0.94166323  1
  O  O424  1  0.77192972  0.41909786  0.19239962  1
  O  O425  1  0.77295161  0.41784057  0.44069881  1
  O  O426  1  0.77267202  0.41696789  0.68998480  1
  O  O427  1  0.77146218  0.41648523  0.94344094  1
  O  O428  1  0.77301626  0.74901423  0.19088117  1
  O  O429  1  0.77253800  0.74724406  0.44173735  1
  O  O430  1  0.77285929  0.74968197  0.69000840  1
  O  O431  1  0.77218256  0.74897930  0.94322310  1
  O  O432  1  0.02180405  0.08533119  0.18323364  1
  O  O433  1  0.02256904  0.08337416  0.43434479  1
  O  O434  1  0.02198422  0.08180268  0.68289174  1
  O  O435  1  0.02167449  0.08388310  0.93145314  1
  O  O436  1  0.02200121  0.41457943  0.18302099  1
  O  O437  1  0.02170841  0.41592933  0.43154487  1
  O  O438  1  0.02193186  0.41500754  0.68277206  1
  O  O439  1  0.02278497  0.41726731  0.93404472  1
  O  O440  1  0.02241240  0.74746143  0.18333354  1
  O  O441  1  0.02221322  0.74816396  0.43308274  1
  O  O442  1  0.02245748  0.74799882  0.68321375  1
  O  O443  1  0.02142845  0.74948312  0.93175597  1
  O  O444  1  0.52100438  0.08386441  0.18163568  1
  O  O445  1  0.52113584  0.08399776  0.43142479  1
  O  O446  1  0.52224488  0.08491626  0.68266768  1
  O  O447  1  0.52170881  0.08414929  0.93156232  1
  O  O448  1  0.52171821  0.41568386  0.18300226  1
  O  O449  1  0.52275208  0.41652694  0.43451078  1
  O  O450  1  0.52218835  0.41585930  0.68297840  1
  O  O451  1  0.52231523  0.41595854  0.93288673  1
  O  O452  1  0.52216484  0.75184538  0.18342482  1
  O  O453  1  0.52293033  0.75074134  0.43472767  1
  O  O454  1  0.52237059  0.74807581  0.68307776  1
  O  O455  1  0.52252188  0.74978663  0.93464465  1
  O  O456  1  0.47786665  0.25273559  0.06654942  1
  O  O457  1  0.47733655  0.25282961  0.31695630  1
  O  O458  1  0.47753511  0.25217068  0.56699668  1
  O  O459  1  0.47704794  0.25135207  0.81550897  1
  O  O460  1  0.47784478  0.58518113  0.06706889  1
  O  O461  1  0.47811149  0.58370677  0.31866763  1
  O  O462  1  0.47698107  0.58355558  0.56616959  1
  O  O463  1  0.47828134  0.58492470  0.81689608  1
  O  O464  1  0.47788782  0.91530472  0.06686162  1
  O  O465  1  0.47807482  0.91476488  0.31703597  1
  O  O466  1  0.47816346  0.91500853  0.56708583  1
  O  O467  1  0.47871307  0.91630064  0.81813877  1
  O  O468  1  0.97817652  0.25197202  0.06675104  1
  O  O469  1  0.97696009  0.24919646  0.31580350  1
  O  O470  1  0.97783896  0.24751251  0.56682456  1
  O  O471  1  0.97771850  0.25156889  0.81668742  1
  O  O472  1  0.97794141  0.58087466  0.06708264  1
  O  O473  1  0.97814412  0.58403065  0.31707745  1
  O  O474  1  0.97784632  0.58364564  0.56718503  1
  O  O475  1  0.97829217  0.58455729  0.81673376  1
  O  O476  1  0.97851844  0.91674441  0.06869105  1
  O  O477  1  0.97860372  0.91624841  0.31856483  1
  O  O478  1  0.97802549  0.91710753  0.56701836  1
  O  O479  1  0.97833128  0.91807225  0.81650399  1
  O  O480  1  0.07348655  0.31486527  0.07382612  1
  O  O481  1  0.07154434  0.31332031  0.32394506  1
  O  O482  1  0.07304631  0.31162071  0.57420564  1
  O  O483  1  0.07260910  0.31531377  0.82336761  1
  O  O484  1  0.07324575  0.64507455  0.07463606  1
  O  O485  1  0.07322477  0.64752160  0.32383332  1
  O  O486  1  0.07305136  0.64709494  0.57397274  1
  O  O487  1  0.07352175  0.64751729  0.82473282  1
  O  O488  1  0.07404071  0.98007216  0.07568485  1
  O  O489  1  0.07393366  0.97991075  0.32595298  1
  O  O490  1  0.07297161  0.98079543  0.57371211  1
  O  O491  1  0.07331834  0.98160428  0.82335397  1
  O  O492  1  0.57323606  0.31567808  0.07359699  1
  O  O493  1  0.57273687  0.31576394  0.32412182  1
  O  O494  1  0.57283494  0.31515513  0.57431727  1
  O  O495  1  0.57271856  0.31418798  0.82284135  1
  O  O496  1  0.57288356  0.64849766  0.07455388  1
  O  O497  1  0.57347892  0.64701603  0.32629968  1
  O  O498  1  0.57228772  0.64672422  0.57316801  1
  O  O499  1  0.57326589  0.64854062  0.82374151  1
  O  O500  1  0.57310558  0.97921435  0.07509891  1
  O  O501  1  0.57300851  0.97898106  0.32500464  1
  O  O502  1  0.57327136  0.97916050  0.57442872  1
  O  O503  1  0.57412585  0.97953904  0.82559056  1
  O  O504  1  0.42566854  0.02030775  0.17451905  1
  O  O505  1  0.42600194  0.02025211  0.42487614  1
  O  O506  1  0.42693348  0.02110947  0.67524291  1
  O  O507  1  0.42642122  0.02076565  0.92360400  1
  O  O508  1  0.42604388  0.35325664  0.17598402  1
  O  O509  1  0.42727221  0.35352819  0.42716288  1
  O  O510  1  0.42696447  0.35273961  0.67575212  1
  O  O511  1  0.42737059  0.35228734  0.92524839  1
  O  O512  1  0.42690413  0.68802730  0.17579573  1
  O  O513  1  0.42836358  0.68659761  0.42669128  1
  O  O514  1  0.42737871  0.68476584  0.67605442  1
  O  O515  1  0.42731063  0.68634012  0.92726778  1
  O  O516  1  0.92666453  0.02119627  0.17584106  1
  O  O517  1  0.92782258  0.01935886  0.42617375  1
  O  O518  1  0.92713296  0.01809351  0.67526452  1
  O  O519  1  0.92612181  0.02033936  0.92518343  1
  O  O520  1  0.92669614  0.35170161  0.17591201  1
  O  O521  1  0.92620200  0.35252278  0.42440162  1
  O  O522  1  0.92707537  0.35125910  0.67573370  1
  O  O523  1  0.92783063  0.35323825  0.92652070  1
  O  O524  1  0.92727394  0.68427246  0.17590150  1
  O  O525  1  0.92732054  0.68416931  0.42660152  1
  O  O526  1  0.92739606  0.68450823  0.67585661  1
  O  O527  1  0.92561282  0.68650586  0.92466472  1
  O  O528  1  0.17549167  0.02098020  0.20019955  1
  O  O529  1  0.17748129  0.01879333  0.44964894  1
  O  O530  1  0.17803617  0.01964719  0.69841324  1
  O  O531  1  0.17705648  0.01959585  0.94779477  1
  O  O532  1  0.17667703  0.35543384  0.19936132  1
  O  O533  1  0.17668035  0.35185601  0.44905366  1
  O  O534  1  0.17668384  0.35147555  0.69958761  1
  O  O535  1  0.17774163  0.35326674  0.94868316  1
  O  O536  1  0.17723063  0.68835909  0.20009304  1
  O  O537  1  0.17774234  0.68530635  0.44919320  1
  O  O538  1  0.17807047  0.68445005  0.69924192  1
  O  O539  1  0.17631191  0.68617356  0.95133852  1
  O  O540  1  0.67546046  0.02057351  0.20102502  1
  O  O541  1  0.67670961  0.02056655  0.44962711  1
  O  O542  1  0.67571606  0.01975760  0.70046888  1
  O  O543  1  0.67653732  0.02070023  0.94956315  1
  O  O544  1  0.67695971  0.35496646  0.20054702  1
  O  O545  1  0.67855566  0.35361403  0.44820124  1
  O  O546  1  0.67813132  0.35246061  0.69744932  1
  O  O547  1  0.67558295  0.35425760  0.95016913  1
  O  O548  1  0.67745862  0.68603886  0.19856146  1
  O  O549  1  0.67725518  0.68448523  0.44949471  1
  O  O550  1  0.67836710  0.68535613  0.69726866  1
  O  O551  1  0.67678577  0.68586482  0.95052944  1
  O  O552  1  0.32386711  0.31338151  0.04866532  1
  O  O553  1  0.32251332  0.31592187  0.30152831  1
  O  O554  1  0.32195211  0.31356482  0.55221614  1
  O  O555  1  0.32199580  0.31311765  0.80073697  1
  O  O556  1  0.32385193  0.64507453  0.04990614  1
  O  O557  1  0.32345745  0.64900291  0.30114652  1
  O  O558  1  0.32265061  0.64766986  0.55189518  1
  O  O559  1  0.32340384  0.64498033  0.80089617  1
  O  O560  1  0.32287702  0.97973190  0.05018087  1
  O  O561  1  0.32309487  0.98224752  0.30064219  1
  O  O562  1  0.32355889  0.98143118  0.55128251  1
  O  O563  1  0.32343455  0.98143882  0.80064430  1
  O  O564  1  0.82384530  0.31357579  0.04964307  1
  O  O565  1  0.82108406  0.31458983  0.30208933  1
  O  O566  1  0.82287746  0.31474976  0.55007104  1
  O  O567  1  0.82277682  0.31260728  0.80037437  1
  O  O568  1  0.82286110  0.64638092  0.05197291  1
  O  O569  1  0.82240856  0.64679275  0.30131511  1
  O  O570  1  0.82153741  0.64620974  0.55131298  1
  O  O571  1  0.82360996  0.64588929  0.79896042  1
  O  O572  1  0.82306358  0.97946307  0.05057318  1
  O  O573  1  0.82428094  0.97949182  0.29951591  1
  O  O574  1  0.82282371  0.97897068  0.54997223  1
  O  O575  1  0.82373728  0.97915007  0.79877120  1
  O  O576  1  0.42554183  0.14744773  0.17426301  1
  O  O577  1  0.42548304  0.14733319  0.42458804  1
  O  O578  1  0.42724538  0.14852100  0.67590027  1
  O  O579  1  0.42619807  0.14770672  0.92414153  1
  O  O580  1  0.42700274  0.48035650  0.17539873  1
  O  O581  1  0.42819966  0.48081186  0.42698164  1
  O  O582  1  0.42687814  0.47967981  0.67525114  1
  O  O583  1  0.42700983  0.47946722  0.92453248  1
  O  O584  1  0.42690199  0.81493110  0.17601095  1
  O  O585  1  0.42743925  0.81397851  0.42751635  1
  O  O586  1  0.42686166  0.81173774  0.67532788  1
  O  O587  1  0.42768122  0.81378495  0.92639527  1
  O  O588  1  0.92640152  0.14842258  0.17636544  1
  O  O589  1  0.92727717  0.14678809  0.42710137  1
  O  O590  1  0.92633667  0.14509419  0.67438907  1
  O  O591  1  0.92625048  0.14726505  0.92389630  1
  O  O592  1  0.92674160  0.47856927  0.17526470  1
  O  O593  1  0.92645855  0.47946293  0.42399187  1
  O  O594  1  0.92644751  0.47850216  0.67501688  1
  O  O595  1  0.92773235  0.48062763  0.92596602  1
  O  O596  1  0.92725565  0.81165879  0.17603699  1
  O  O597  1  0.92649020  0.81123893  0.42522133  1
  O  O598  1  0.92722103  0.81175221  0.67411306  1
  O  O599  1  0.92633059  0.81346385  0.92439849  1
  O  O600  1  0.07347494  0.18798184  0.07418406  1
  O  O601  1  0.07236666  0.18587746  0.32316027  1
  O  O602  1  0.07304904  0.18452584  0.57428426  1
  O  O603  1  0.07312909  0.18810660  0.82489245  1
  O  O604  1  0.07311789  0.51797478  0.07417129  1
  O  O605  1  0.07358962  0.52042990  0.32531067  1
  O  O606  1  0.07315734  0.51991368  0.57511170  1
  O  O607  1  0.07352354  0.52040493  0.82407761  1
  O  O608  1  0.07375648  0.85287700  0.07522199  1
  O  O609  1  0.07404399  0.85292039  0.32674111  1
  O  O610  1  0.07347679  0.85360314  0.57546925  1
  O  O611  1  0.07388572  0.85442363  0.82417632  1
  O  O612  1  0.57293241  0.18852607  0.07488294  1
  O  O613  1  0.57234168  0.18853986  0.32490041  1
  O  O614  1  0.57290071  0.18824280  0.57440512  1
  O  O615  1  0.57135098  0.18676974  0.82287556  1
  O  O616  1  0.57302375  0.52124613  0.07484378  1
  O  O617  1  0.57346356  0.52029010  0.32605543  1
  O  O618  1  0.57155783  0.51936515  0.57343347  1
  O  O619  1  0.57372868  0.52146955  0.82502428  1
  O  O620  1  0.57317037  0.85203853  0.07389943  1
  O  O621  1  0.57358946  0.85176316  0.32428510  1
  O  O622  1  0.57346831  0.85180279  0.57421205  1
  O  O623  1  0.57421059  0.85261670  0.82530981  1
  O  O624  1  0.32307875  0.18662972  0.04887796  1
  O  O625  1  0.32321725  0.18873595  0.30060234  1
  O  O626  1  0.32153492  0.18629199  0.55177311  1
  O  O627  1  0.32087853  0.18588838  0.80098361  1
  O  O628  1  0.32317888  0.51798681  0.05177407  1
  O  O629  1  0.32398983  0.52181839  0.30141815  1
  O  O630  1  0.32329874  0.52047584  0.54973563  1
  O  O631  1  0.32339030  0.51779320  0.80028812  1
  O  O632  1  0.32296252  0.85254469  0.05078263  1
  O  O633  1  0.32371295  0.85511809  0.30122298  1
  O  O634  1  0.32352935  0.85430043  0.55040070  1
  O  O635  1  0.32346234  0.85421471  0.79973073  1
  O  O636  1  0.82357896  0.18673378  0.05047757  1
  O  O637  1  0.82199835  0.18699455  0.30204054  1
  O  O638  1  0.82275766  0.18775898  0.54974797  1
  O  O639  1  0.82285958  0.18536879  0.80023713  1
  O  O640  1  0.82216860  0.51897053  0.05219910  1
  O  O641  1  0.82256298  0.51964201  0.30127693  1
  O  O642  1  0.82275250  0.51904646  0.55019291  1
  O  O643  1  0.82370014  0.51915598  0.79922043  1
  O  O644  1  0.82359292  0.85207055  0.05114364  1
  O  O645  1  0.82454537  0.85258676  0.29966931  1
  O  O646  1  0.82340466  0.85151292  0.55035083  1
  O  O647  1  0.82392432  0.85224592  0.79931640  1
  O  O648  1  0.17615213  0.14792726  0.20030851  1
  O  O649  1  0.17684811  0.14583981  0.45046765  1
  O  O650  1  0.17773181  0.14689020  0.69863171  1
  O  O651  1  0.17775012  0.14718391  0.94694459  1
  O  O652  1  0.17748152  0.48261792  0.19932473  1
  O  O653  1  0.17648347  0.47904495  0.45063555  1
  O  O654  1  0.17654068  0.47836084  0.70001510  1
  O  O655  1  0.17810638  0.48056248  0.94776432  1
  O  O656  1  0.17759264  0.81557649  0.19987023  1
  O  O657  1  0.17722062  0.81242958  0.45137561  1
  O  O658  1  0.17667006  0.81181007  0.69977244  1
  O  O659  1  0.17591592  0.81306996  0.94979876  1
  O  O660  1  0.67556105  0.14746300  0.20045739  1
  O  O661  1  0.67617038  0.14802115  0.44938476  1
  O  O662  1  0.67538979  0.14664157  0.69967990  1
  O  O663  1  0.67648680  0.14813857  0.94890953  1
  O  O664  1  0.67658214  0.48201915  0.20013227  1
  O  O665  1  0.67752612  0.48078048  0.44922045  1
  O  O666  1  0.67715391  0.47993773  0.69751472  1
  O  O667  1  0.67639349  0.48104719  0.94980614  1
  O  O668  1  0.67861986  0.81349790  0.19904922  1
  O  O669  1  0.67748169  0.81148316  0.44956977  1
  O  O670  1  0.67743957  0.81284802  0.69769493  1
  O  O671  1  0.67682220  0.81258292  0.95045872  1
