# generated using pymatgen
data_Na2MnFe(PO4)2
_symmetry_space_group_name_H-M   'P 1'
_cell_length_a   22.34672123
_cell_length_b   20.09560021
_cell_length_c   19.44633795
_cell_angle_alpha   89.99607892
_cell_angle_beta   89.99832782
_cell_angle_gamma   89.94778176
_symmetry_Int_Tables_number   1
_chemical_formula_structural   Na2MnFe(PO4)2
_chemical_formula_sum   'Na96 Mn48 Fe48 P96 O384'
_cell_volume   8732.77841781
_cell_formula_units_Z   48
loop_
 _symmetry_equiv_pos_site_id
 _symmetry_equiv_pos_as_xyz
  1  'x, y, z'
loop_
 _atom_site_type_symbol
 _atom_site_label
 _atom_site_symmetry_multiplicity
 _atom_site_fract_x
 _atom_site_fract_y
 _atom_site_fract_z
 _atom_site_occupancy
  Na  Na0  1  0.14067766  0.24937463  0.24311293  1
  Na  Na1  1  0.14100217  0.25047000  0.49353317  1
  Na  Na2  1  0.14060878  0.24967117  0.74393484  1
  Na  Na3  1  0.14023110  0.24907666  0.99324205  1
  Na  Na4  1  0.13905040  0.58349151  0.24393834  1
  Na  Na5  1  0.13940483  0.58193127  0.49234886  1
  Na  Na6  1  0.14060826  0.58361721  0.74443598  1
  Na  Na7  1  0.14025147  0.58525530  0.99364047  1
  Na  Na8  1  0.14066342  0.91713617  0.24201421  1
  Na  Na9  1  0.14040286  0.91676689  0.49391771  1
  Na  Na10  1  0.13996822  0.91614534  0.74487471  1
  Na  Na11  1  0.14067282  0.91719601  0.99238303  1
  Na  Na12  1  0.64102136  0.24900411  0.24439724  1
  Na  Na13  1  0.64095396  0.24883710  0.49403779  1
  Na  Na14  1  0.64064033  0.25080526  0.74429424  1
  Na  Na15  1  0.64078140  0.24890617  0.99388724  1
  Na  Na16  1  0.63930914  0.58367029  0.24364000  1
  Na  Na17  1  0.63986277  0.58298005  0.49351981  1
  Na  Na18  1  0.64020278  0.58358771  0.74427361  1
  Na  Na19  1  0.63951833  0.58251245  0.99384830  1
  Na  Na20  1  0.64029754  0.91798320  0.24378792  1
  Na  Na21  1  0.64013904  0.91702950  0.49274425  1
  Na  Na22  1  0.64100622  0.91821813  0.74344353  1
  Na  Na23  1  0.64063100  0.91768765  0.99470943  1
  Na  Na24  1  0.35978877  0.08330357  0.00524717  1
  Na  Na25  1  0.35980782  0.08326837  0.25558560  1
  Na  Na26  1  0.36020856  0.08253340  0.50654141  1
  Na  Na27  1  0.36008436  0.08209806  0.75706720  1
  Na  Na28  1  0.35960370  0.41755147  0.00693434  1
  Na  Na29  1  0.35913747  0.41775208  0.25616076  1
  Na  Na30  1  0.35894184  0.41670144  0.50482919  1
  Na  Na31  1  0.35904107  0.41712058  0.75726532  1
  Na  Na32  1  0.35978662  0.75059672  0.00682248  1
  Na  Na33  1  0.35974938  0.74860196  0.25696847  1
  Na  Na34  1  0.35911387  0.74851051  0.50584539  1
  Na  Na35  1  0.35884560  0.74989426  0.75715981  1
  Na  Na36  1  0.86047300  0.08319358  0.00737067  1
  Na  Na37  1  0.86084505  0.08385460  0.25633939  1
  Na  Na38  1  0.86036910  0.08300498  0.50418763  1
  Na  Na39  1  0.85978449  0.08482265  0.75637611  1
  Na  Na40  1  0.85949173  0.41520621  0.00608706  1
  Na  Na41  1  0.85932378  0.41716283  0.25766345  1
  Na  Na42  1  0.85946881  0.41650124  0.50625157  1
  Na  Na43  1  0.85976723  0.41708504  0.75509007  1
  Na  Na44  1  0.85996352  0.75100611  0.00673115  1
  Na  Na45  1  0.85983483  0.75041327  0.25636138  1
  Na  Na46  1  0.85945863  0.74845408  0.50626246  1
  Na  Na47  1  0.85967244  0.75088158  0.75601791  1
  Na  Na48  1  0.11037884  0.08248001  0.11698531  1
  Na  Na49  1  0.10998644  0.08249249  0.36785389  1
  Na  Na50  1  0.11014144  0.08280005  0.61961823  1
  Na  Na51  1  0.11025283  0.08302448  0.86887179  1
  Na  Na52  1  0.10890699  0.41761610  0.11935819  1
  Na  Na53  1  0.10958619  0.41727338  0.36755160  1
  Na  Na54  1  0.10988778  0.41779936  0.61819743  1
  Na  Na55  1  0.10956117  0.41733462  0.86865457  1
  Na  Na56  1  0.10954529  0.75003924  0.11813698  1
  Na  Na57  1  0.10911549  0.74862716  0.36817818  1
  Na  Na58  1  0.10925783  0.75039749  0.61882372  1
  Na  Na59  1  0.10994403  0.75025633  0.86938456  1
  Na  Na60  1  0.61074657  0.08317739  0.11916589  1
  Na  Na61  1  0.61017710  0.08193124  0.36803496  1
  Na  Na62  1  0.61010852  0.08382286  0.61891171  1
  Na  Na63  1  0.61043804  0.08319971  0.86844242  1
  Na  Na64  1  0.60897821  0.41775354  0.11887312  1
  Na  Na65  1  0.60949180  0.41700905  0.36852113  1
  Na  Na66  1  0.60935902  0.41748774  0.61875137  1
  Na  Na67  1  0.60936606  0.41586579  0.86949022  1
  Na  Na68  1  0.60908930  0.74929477  0.12018315  1
  Na  Na69  1  0.60871568  0.74894118  0.36838066  1
  Na  Na70  1  0.60936757  0.75065598  0.61846055  1
  Na  Na71  1  0.60928842  0.75007038  0.86917278  1
  Na  Na72  1  0.39016360  0.25052197  0.13086295  1
  Na  Na73  1  0.39015097  0.24924936  0.38068222  1
  Na  Na74  1  0.39071352  0.24900827  0.63154389  1
  Na  Na75  1  0.39059118  0.24961549  0.88152790  1
  Na  Na76  1  0.39015708  0.58440340  0.13126074  1
  Na  Na77  1  0.38910487  0.58340626  0.38091856  1
  Na  Na78  1  0.38913055  0.58372431  0.63085762  1
  Na  Na79  1  0.38995400  0.58290882  0.88301329  1
  Na  Na80  1  0.39030523  0.91610134  0.13155477  1
  Na  Na81  1  0.39057590  0.91557079  0.38050808  1
  Na  Na82  1  0.39020665  0.91801287  0.63176527  1
  Na  Na83  1  0.39035815  0.91656861  0.88128348  1
  Na  Na84  1  0.89068528  0.24855367  0.13251900  1
  Na  Na85  1  0.89056811  0.24914948  0.38155599  1
  Na  Na86  1  0.89068878  0.25003952  0.63053833  1
  Na  Na87  1  0.89060515  0.25016675  0.88158278  1
  Na  Na88  1  0.89055517  0.58410949  0.13144204  1
  Na  Na89  1  0.88980321  0.58346273  0.38207213  1
  Na  Na90  1  0.88977411  0.58357395  0.63112836  1
  Na  Na91  1  0.89044635  0.58414646  0.88052121  1
  Na  Na92  1  0.89091975  0.91704329  0.13108555  1
  Na  Na93  1  0.89100299  0.91680886  0.38014980  1
  Na  Na94  1  0.89047326  0.91743269  0.63042755  1
  Na  Na95  1  0.89060773  0.91704141  0.88253202  1
  Mn  Mn96  1  -0.00006173  0.16730312  0.74982998  1
  Mn  Mn97  1  0.00102396  0.33368364  0.49933379  1
  Mn  Mn98  1  0.50036831  0.16527595  0.50042397  1
  Mn  Mn99  1  0.25038958  0.33372754  0.62491854  1
  Mn  Mn100  1  -0.00065672  0.50091313  -0.00024386  1
  Mn  Mn101  1  0.74940498  0.83471083  0.12600539  1
  Mn  Mn102  1  0.75033510  0.33306301  0.62471697  1
  Mn  Mn103  1  0.24981711  0.33347559  0.87497955  1
  Mn  Mn104  1  0.24996600  0.83238228  0.37438816  1
  Mn  Mn105  1  0.49992886  0.33342455  0.49993975  1
  Mn  Mn106  1  0.74983370  0.49948984  0.12535326  1
  Mn  Mn107  1  0.00117961  0.16569635  0.50044781  1
  Mn  Mn108  1  0.49964003  0.16693827  0.00003378  1
  Mn  Mn109  1  0.74982634  0.66698394  0.12489386  1
  Mn  Mn110  1  0.24944890  0.83320268  0.62560408  1
  Mn  Mn111  1  0.75051429  0.16691444  0.87535510  1
  Mn  Mn112  1  0.49957572  0.66692032  0.75044380  1
  Mn  Mn113  1  0.50011090  0.33409049  0.25007834  1
  Mn  Mn114  1  0.49956276  0.83352698  0.49976168  1
  Mn  Mn115  1  0.75010054  0.66695005  0.87486167  1
  Mn  Mn116  1  0.49879651  0.50117941  0.49954685  1
  Mn  Mn117  1  0.50101001  0.83244762  0.00104029  1
  Mn  Mn118  1  -0.00040150  0.33318986  0.25023095  1
  Mn  Mn119  1  0.75064944  0.83305418  0.62410801  1
  Mn  Mn120  1  0.25072408  0.16553898  0.62466594  1
  Mn  Mn121  1  0.74956073  0.83478299  0.87526633  1
  Mn  Mn122  1  0.00068460  0.49996012  0.75003314  1
  Mn  Mn123  1  0.49961148  0.50019836  0.75049273  1
  Mn  Mn124  1  -0.00043399  0.33302739  0.00066467  1
  Mn  Mn125  1  0.24987329  0.83329365  0.12451462  1
  Mn  Mn126  1  0.75069678  0.49924983  0.87459145  1
  Mn  Mn127  1  -0.00071399  -0.00053039  0.75062384  1
  Mn  Mn128  1  0.00019749  0.83360216  0.49897039  1
  Mn  Mn129  1  0.50072942  0.16593066  0.25013220  1
  Mn  Mn130  1  0.74978196  0.83331324  0.37490027  1
  Mn  Mn131  1  0.24927331  0.33337178  0.12450046  1
  Mn  Mn132  1  0.00053324  0.83321431  0.24968943  1
  Mn  Mn133  1  0.24918517  0.50120975  0.12583249  1
  Mn  Mn134  1  0.75073692  0.00124990  0.62404760  1
  Mn  Mn135  1  0.24942860  0.16699543  0.37496482  1
  Mn  Mn136  1  0.74977443  0.33201202  0.12606750  1
  Mn  Mn137  1  0.25006608  0.00002019  0.37436437  1
  Mn  Mn138  1  0.00023127  0.66793191  0.75012529  1
  Mn  Mn139  1  0.74925179  0.50006300  0.37554468  1
  Mn  Mn140  1  0.49943951  0.83432066  0.74924905  1
  Mn  Mn141  1  0.24884741  0.66524321  0.62598460  1
  Mn  Mn142  1  0.50036963  -0.00031679  0.00017066  1
  Mn  Mn143  1  0.49923810  0.33282675  0.74996348  1
  Fe  Fe144  1  0.00046726  -0.00002700  0.00028375  1
  Fe  Fe145  1  0.24882144  0.66584440  0.37560028  1
  Fe  Fe146  1  0.50075677  0.16639617  0.75024864  1
  Fe  Fe147  1  0.75035334  0.16614660  0.37449414  1
  Fe  Fe148  1  0.50036105  0.33353582  0.00028561  1
  Fe  Fe149  1  0.74965202  0.33264248  0.37578687  1
  Fe  Fe150  1  0.75016021  0.33339184  0.87452126  1
  Fe  Fe151  1  0.75060416  0.00062149  0.37458980  1
  Fe  Fe152  1  0.49946470  0.66678828  0.49924508  1
  Fe  Fe153  1  0.00109384  0.16554128  0.25013171  1
  Fe  Fe154  1  0.25051426  0.16663171  0.12400524  1
  Fe  Fe155  1  0.00034014  0.66737068  0.00013240  1
  Fe  Fe156  1  0.24981294  0.66705526  0.12484382  1
  Fe  Fe157  1  0.00061918  -0.00028149  0.49966089  1
  Fe  Fe158  1  -0.00034265  0.83347195  0.75027900  1
  Fe  Fe159  1  0.24967771  0.50059917  0.87570113  1
  Fe  Fe160  1  0.74952608  0.66633383  0.37556094  1
  Fe  Fe161  1  0.49956771  -0.00060189  0.25003161  1
  Fe  Fe162  1  0.49966612  0.66645517  0.00065652  1
  Fe  Fe163  1  -0.00040809  0.66668758  0.49945383  1
  Fe  Fe164  1  0.24996148  -0.00094191  0.62579601  1
  Fe  Fe165  1  0.00002747  0.83312168  0.00050330  1
  Fe  Fe166  1  0.00081513  0.16665286  0.00043110  1
  Fe  Fe167  1  0.75086966  0.00083038  0.12521571  1
  Fe  Fe168  1  0.25027096  0.00001986  0.87510305  1
  Fe  Fe169  1  0.74909074  0.66631317  0.62519432  1
  Fe  Fe170  1  0.25025540  0.83364369  0.87540411  1
  Fe  Fe171  1  0.24906107  0.49973276  0.37463911  1
  Fe  Fe172  1  0.00139628  -0.00029348  0.24922962  1
  Fe  Fe173  1  0.24976622  0.49971080  0.62477971  1
  Fe  Fe174  1  -0.00088164  0.66664070  0.24980128  1
  Fe  Fe175  1  0.75060192  0.00095745  0.87496825  1
  Fe  Fe176  1  0.50007911  -0.00035387  0.49985455  1
  Fe  Fe177  1  0.49987301  0.50005867  0.00067125  1
  Fe  Fe178  1  0.00039191  0.33356518  0.74984410  1
  Fe  Fe179  1  0.25015652  0.33323173  0.37448217  1
  Fe  Fe180  1  0.75088437  0.16644199  0.12563277  1
  Fe  Fe181  1  0.49927082  0.50063866  0.24928336  1
  Fe  Fe182  1  0.25025927  0.16596076  0.87446090  1
  Fe  Fe183  1  0.75049663  0.16680251  0.62438278  1
  Fe  Fe184  1  0.74928503  0.49978868  0.62484572  1
  Fe  Fe185  1  0.25074725  0.00041471  0.12357038  1
  Fe  Fe186  1  0.25022370  0.66697673  0.87508718  1
  Fe  Fe187  1  0.49989562  0.83272123  0.25053976  1
  Fe  Fe188  1  -0.00083883  0.50072146  0.24963468  1
  Fe  Fe189  1  -0.00094569  0.50037307  0.49952903  1
  Fe  Fe190  1  0.50071776  0.00029537  0.75035369  1
  Fe  Fe191  1  0.49943097  0.66604374  0.24962709  1
  P  P192  1  0.04229534  0.24835039  0.10324527  1
  P  P193  1  0.04260393  0.24848405  0.35203757  1
  P  P194  1  0.04355696  0.25054995  0.60334933  1
  P  P195  1  0.04244252  0.25113680  0.85284671  1
  P  P196  1  0.04172270  0.58504683  0.10304586  1
  P  P197  1  0.04020697  0.58330706  0.35195284  1
  P  P198  1  0.04090641  0.58370281  0.60109580  1
  P  P199  1  0.04276624  0.58431308  0.85347750  1
  P  P200  1  0.04194712  0.91649731  0.10151308  1
  P  P201  1  0.04299178  0.91754040  0.35203481  1
  P  P202  1  0.04230535  0.91743901  0.60252508  1
  P  P203  1  0.04163740  0.91505105  0.85362469  1
  P  P204  1  0.54236725  0.25136459  0.10250362  1
  P  P205  1  0.54291392  0.24961035  0.35319286  1
  P  P206  1  0.54286054  0.24948390  0.60360169  1
  P  P207  1  0.54234198  0.24914845  0.85289276  1
  P  P208  1  0.54103513  0.58353613  0.10248589  1
  P  P209  1  0.54066251  0.58332055  0.35152132  1
  P  P210  1  0.54176220  0.58522757  0.60214349  1
  P  P211  1  0.54234571  0.58316744  0.85452387  1
  P  P212  1  0.54270206  0.91634958  0.10464112  1
  P  P213  1  0.54143217  0.91621610  0.35183697  1
  P  P214  1  0.54237739  0.91840618  0.60251868  1
  P  P215  1  0.54275291  0.91736621  0.85239197  1
  P  P216  1  0.45805184  0.08217124  0.14765993  1
  P  P217  1  0.45795932  0.08092184  0.39705347  1
  P  P218  1  0.45884847  0.08305427  0.64856675  1
  P  P219  1  0.45800432  0.08316598  0.89603316  1
  P  P220  1  0.45744348  0.41835164  0.14667307  1
  P  P221  1  0.45706216  0.41726294  0.39601967  1
  P  P222  1  0.45652185  0.41710112  0.64702386  1
  P  P223  1  0.45825511  0.41648405  0.89902339  1
  P  P224  1  0.45842217  0.74971049  0.14860987  1
  P  P225  1  0.45746375  0.74872195  0.39656902  1
  P  P226  1  0.45636289  0.75028950  0.64649804  1
  P  P227  1  0.45754437  0.74898480  0.89820499  1
  P  P228  1  0.95982332  0.08287007  0.14765662  1
  P  P229  1  0.95905560  0.08181223  0.39643981  1
  P  P230  1  0.95737114  0.08294622  0.64673505  1
  P  P231  1  0.95921378  0.08371427  0.89902256  1
  P  P232  1  0.95721440  0.41790387  0.14793194  1
  P  P233  1  0.95763405  0.41805578  0.39701987  1
  P  P234  1  0.95827076  0.41600897  0.64693602  1
  P  P235  1  0.95730760  0.41638636  0.89653860  1
  P  P236  1  0.95799729  0.74922429  0.14694369  1
  P  P237  1  0.95755435  0.74854205  0.39685384  1
  P  P238  1  0.95772189  0.75172378  0.64701055  1
  P  P239  1  0.95841851  0.75069694  0.89841300  1
  P  P240  1  0.20892145  0.08335106  0.22539502  1
  P  P241  1  0.20721877  0.08284006  0.47837049  1
  P  P242  1  0.20834606  0.08150034  0.72841439  1
  P  P243  1  0.20917464  0.08333315  0.97682787  1
  P  P244  1  0.20679454  0.41663268  0.22882181  1
  P  P245  1  0.20821156  0.41627787  0.47634459  1
  P  P246  1  0.20783085  0.41826892  0.72785624  1
  P  P247  1  0.20739010  0.41824450  0.97751282  1
  P  P248  1  0.20768523  0.74838601  0.22754440  1
  P  P249  1  0.20690210  0.74852857  0.47753538  1
  P  P250  1  0.20713073  0.74973494  0.72953187  1
  P  P251  1  0.20906484  0.75022473  0.97682821  1
  P  P252  1  0.70935581  0.08350923  0.22746930  1
  P  P253  1  0.70863868  0.08379714  0.47641794  1
  P  P254  1  0.70848548  0.08526346  0.72739560  1
  P  P255  1  0.70837082  0.08215951  0.97826030  1
  P  P256  1  0.70694674  0.41596445  0.22911633  1
  P  P257  1  0.70752621  0.41528618  0.47806109  1
  P  P258  1  0.70751193  0.41739068  0.72745894  1
  P  P259  1  0.70786487  0.41474257  0.97750901  1
  P  P260  1  0.70726149  0.75010089  0.22914849  1
  P  P261  1  0.70762221  0.74833338  0.47788215  1
  P  P262  1  0.70762663  0.74966156  0.72718436  1
  P  P263  1  0.70706889  0.75069597  0.97835768  1
  P  P264  1  0.29201140  0.24882875  0.02168659  1
  P  P265  1  0.29215199  0.25075452  0.27172935  1
  P  P266  1  0.29318433  0.25025759  0.52142091  1
  P  P267  1  0.29241971  0.24862236  0.77265794  1
  P  P268  1  0.29168852  0.58514883  0.02222645  1
  P  P269  1  0.29039181  0.58376875  0.27342145  1
  P  P270  1  0.29086766  0.58168341  0.52181614  1
  P  P271  1  0.29144839  0.58291250  0.77373610  1
  P  P272  1  0.29229293  0.91788670  0.02139983  1
  P  P273  1  0.29255528  0.91645367  0.27086042  1
  P  P274  1  0.29220127  0.91708616  0.52276191  1
  P  P275  1  0.29124438  0.91686012  0.77346001  1
  P  P276  1  0.79281233  0.24832725  0.02300192  1
  P  P277  1  0.79187744  0.24955905  0.27366924  1
  P  P278  1  0.79250606  0.24839234  0.52136515  1
  P  P279  1  0.79284025  0.25138497  0.77226100  1
  P  P280  1  0.79290102  0.58281350  0.02197278  1
  P  P281  1  0.79181279  0.58447943  0.27301169  1
  P  P282  1  0.79066935  0.58310679  0.52324448  1
  P  P283  1  0.79269902  0.58348539  0.77079203  1
  P  P284  1  0.79235450  0.91866977  0.02266438  1
  P  P285  1  0.79233457  0.91867340  0.27220712  1
  P  P286  1  0.79282167  0.91710600  0.52066386  1
  P  P287  1  0.79280381  0.91871399  0.77253294  1
  O  O288  1  0.03692254  0.24799569  0.18317342  1
  O  O289  1  0.03783837  0.24882991  0.43203138  1
  O  O290  1  0.03812345  0.25120689  0.68329867  1
  O  O291  1  0.03714047  0.25034606  0.93282835  1
  O  O292  1  0.03595087  0.58480498  0.18293842  1
  O  O293  1  0.03499737  0.58307047  0.43188088  1
  O  O294  1  0.03648423  0.58357294  0.68112643  1
  O  O295  1  0.03741836  0.58474219  0.93337655  1
  O  O296  1  0.03748322  0.91707734  0.18153036  1
  O  O297  1  0.03773091  0.91769921  0.43196604  1
  O  O298  1  0.03674788  0.91657570  0.68244605  1
  O  O299  1  0.03631370  0.91501109  0.93350344  1
  O  O300  1  0.53731856  0.25112196  0.18246543  1
  O  O301  1  0.53780740  0.24931571  0.43314959  1
  O  O302  1  0.53744840  0.24898985  0.68356981  1
  O  O303  1  0.53709033  0.24995620  0.93284356  1
  O  O304  1  0.53568685  0.58321475  0.18239952  1
  O  O305  1  0.53586137  0.58408875  0.43148362  1
  O  O306  1  0.53704773  0.58481474  0.68214525  1
  O  O307  1  0.53710846  0.58298431  0.93448408  1
  O  O308  1  0.53699935  0.91651809  0.18450855  1
  O  O309  1  0.53626037  0.91672047  0.43184876  1
  O  O310  1  0.53737584  0.91858681  0.68250121  1
  O  O311  1  0.53797948  0.91673739  0.93241007  1
  O  O312  1  0.46280435  0.08272361  0.06766476  1
  O  O313  1  0.46319762  0.08069217  0.31708256  1
  O  O314  1  0.46351361  0.08256150  0.56850414  1
  O  O315  1  0.46357022  0.08332461  0.81613399  1
  O  O316  1  0.46333076  0.41811101  0.06677711  1
  O  O317  1  0.46243552  0.41799002  0.31607437  1
  O  O318  1  0.46151072  0.41717192  0.56704096  1
  O  O319  1  0.46294546  0.41645805  0.81898038  1
  O  O320  1  0.46363515  0.74903851  0.06867712  1
  O  O321  1  0.46295446  0.74900987  0.31670439  1
  O  O322  1  0.46138559  0.75007525  0.56651296  1
  O  O323  1  0.46229624  0.74957577  0.81822153  1
  O  O324  1  0.96490467  0.08334995  0.06773195  1
  O  O325  1  0.96487479  0.08222347  0.31655434  1
  O  O326  1  0.96276842  0.08237276  0.56681243  1
  O  O327  1  0.96358255  0.08353755  0.81901536  1
  O  O328  1  0.96233431  0.41751182  0.06796564  1
  O  O329  1  0.96238767  0.41837940  0.31702877  1
  O  O330  1  0.96359517  0.41671713  0.56696420  1
  O  O331  1  0.96291938  0.41582272  0.81660806  1
  O  O332  1  0.96339160  0.74961558  0.06705104  1
  O  O333  1  0.96269704  0.74818377  0.31690015  1
  O  O334  1  0.96298386  0.75110863  0.56708406  1
  O  O335  1  0.96345230  0.75139380  0.81839125  1
  O  O336  1  0.21464783  0.08345586  0.05671584  1
  O  O337  1  0.21340883  0.08351998  0.30543470  1
  O  O338  1  0.21231390  0.08215986  0.55831707  1
  O  O339  1  0.21382306  0.08187099  0.80834156  1
  O  O340  1  0.21240865  0.41793985  0.05748785  1
  O  O341  1  0.21202558  0.41626895  0.30872700  1
  O  O342  1  0.21313393  0.41689094  0.55634858  1
  O  O343  1  0.21320873  0.41850490  0.80781422  1
  O  O344  1  0.21371823  0.75021924  0.05683769  1
  O  O345  1  0.21285514  0.74812348  0.30750462  1
  O  O346  1  0.21184275  0.74886455  0.55753820  1
  O  O347  1  0.21288672  0.74990392  0.80938451  1
  O  O348  1  0.71352678  0.08220714  0.05816309  1
  O  O349  1  0.71451445  0.08338019  0.30738006  1
  O  O350  1  0.71385304  0.08449489  0.55637234  1
  O  O351  1  0.71369481  0.08460558  0.80733066  1
  O  O352  1  0.71273472  0.41482215  0.05751439  1
  O  O353  1  0.71201923  0.41578195  0.30910711  1
  O  O354  1  0.71289306  0.41604438  0.55799764  1
  O  O355  1  0.71309389  0.41656808  0.80737267  1
  O  O356  1  0.71213178  0.75089400  0.05836933  1
  O  O357  1  0.71266777  0.74943496  0.30910823  1
  O  O358  1  0.71298696  0.74809012  0.55786281  1
  O  O359  1  0.71250010  0.75025140  0.80720064  1
  O  O360  1  0.28681061  0.25006575  0.19176870  1
  O  O361  1  0.28779662  0.25062791  0.44144682  1
  O  O362  1  0.28746304  0.24898053  0.69266793  1
  O  O363  1  0.28680222  0.24859431  0.94173479  1
  O  O364  1  0.28596710  0.58413760  0.19345030  1
  O  O365  1  0.28535977  0.58218221  0.44196569  1
  O  O366  1  0.28631140  0.58214908  0.69372883  1
  O  O367  1  0.28641610  0.58490464  0.94235336  1
  O  O368  1  0.28736752  0.91684698  0.19089218  1
  O  O369  1  0.28715462  0.91665291  0.44275906  1
  O  O370  1  0.28617976  0.91684321  0.69349001  1
  O  O371  1  0.28686456  0.91751109  0.94151397  1
  O  O372  1  0.78692469  0.24902927  0.19367392  1
  O  O373  1  0.78689570  0.24871181  0.44149615  1
  O  O374  1  0.78783555  0.25081672  0.69233955  1
  O  O375  1  0.78797160  0.24885060  0.94309742  1
  O  O376  1  0.78687655  0.58399077  0.19304749  1
  O  O377  1  0.78547322  0.58370699  0.44322840  1
  O  O378  1  0.78693735  0.58355935  0.69087247  1
  O  O379  1  0.78814090  0.58275730  0.94195317  1
  O  O380  1  0.78699328  0.91898933  0.19223052  1
  O  O381  1  0.78745001  0.91735526  0.44074046  1
  O  O382  1  0.78783342  0.91829658  0.69253127  1
  O  O383  1  0.78721721  0.91878045  0.94267853  1
  O  O384  1  0.22777587  0.24868152  0.05740315  1
  O  O385  1  0.22795879  0.25167184  0.30773543  1
  O  O386  1  0.22892973  0.24978612  0.55691773  1
  O  O387  1  0.22809835  0.24876825  0.80810973  1
  O  O388  1  0.22747462  0.58565749  0.05823939  1
  O  O389  1  0.22613931  0.58402656  0.30905109  1
  O  O390  1  0.22677953  0.58117238  0.55816721  1
  O  O391  1  0.22729746  0.58353626  0.80975931  1
  O  O392  1  0.22816895  0.91832939  0.05756147  1
  O  O393  1  0.22823197  0.91629050  0.30620753  1
  O  O394  1  0.22784052  0.91781096  0.55826673  1
  O  O395  1  0.22721889  0.91734683  0.80960969  1
  O  O396  1  0.72840283  0.24769752  0.05844023  1
  O  O397  1  0.72769233  0.24952359  0.30958920  1
  O  O398  1  0.72847210  0.24832190  0.55777951  1
  O  O399  1  0.72855603  0.25129756  0.80801187  1
  O  O400  1  0.72830577  0.58285506  0.05664648  1
  O  O401  1  0.72739677  0.58457135  0.30831022  1
  O  O402  1  0.72656441  0.58254525  0.55935439  1
  O  O403  1  0.72856622  0.58318945  0.80674382  1
  O  O404  1  0.72810926  0.91906564  0.05838481  1
  O  O405  1  0.72816800  0.91858691  0.30810112  1
  O  O406  1  0.72864995  0.91710793  0.55632655  1
  O  O407  1  0.72837798  0.91944906  0.80789151  1
  O  O408  1  0.27320276  0.08268380  0.18985203  1
  O  O409  1  0.27158963  0.08341164  0.44311855  1
  O  O410  1  0.27243731  0.08086781  0.69209555  1
  O  O411  1  0.27309573  0.08312948  0.94018394  1
  O  O412  1  0.27100714  0.41683678  0.19311888  1
  O  O413  1  0.27226724  0.41585310  0.44018250  1
  O  O414  1  0.27206071  0.41845404  0.69197405  1
  O  O415  1  0.27172680  0.41808418  0.94208290  1
  O  O416  1  0.27195467  0.74862907  0.19180885  1
  O  O417  1  0.27125857  0.74790953  0.44209524  1
  O  O418  1  0.27116326  0.74925496  0.69337946  1
  O  O419  1  0.27318195  0.74957021  0.94097946  1
  O  O420  1  0.77343404  0.08387732  0.19112416  1
  O  O421  1  0.77281054  0.08358928  0.44033544  1
  O  O422  1  0.77275062  0.08548334  0.69164942  1
  O  O423  1  0.77261035  0.08206514  0.94228184  1
  O  O424  1  0.77135555  0.41607528  0.19396519  1
  O  O425  1  0.77168193  0.41534772  0.44213661  1
  O  O426  1  0.77167326  0.41827419  0.69141333  1
  O  O427  1  0.77226656  0.41459565  0.94212959  1
  O  O428  1  0.77149971  0.75054435  0.19363522  1
  O  O429  1  0.77183255  0.74846887  0.44206019  1
  O  O430  1  0.77199288  0.74903303  0.69192956  1
  O  O431  1  0.77149171  0.75089257  0.94330806  1
  O  O432  1  0.02395005  0.08278486  0.18386529  1
  O  O433  1  0.02303714  0.08115004  0.43303780  1
  O  O434  1  0.02156274  0.08298151  0.68237161  1
  O  O435  1  0.02351531  0.08416201  0.93445400  1
  O  O436  1  0.02148972  0.41794648  0.18345591  1
  O  O437  1  0.02200875  0.41852990  0.43232186  1
  O  O438  1  0.02246892  0.41527943  0.68292515  1
  O  O439  1  0.02148350  0.41671280  0.93223860  1
  O  O440  1  0.02210696  0.74877631  0.18306066  1
  O  O441  1  0.02180421  0.74847021  0.43255143  1
  O  O442  1  0.02196781  0.75233396  0.68289248  1
  O  O443  1  0.02262859  0.75053694  0.93440271  1
  O  O444  1  0.52245721  0.08168941  0.18283324  1
  O  O445  1  0.52226496  0.08089255  0.43273508  1
  O  O446  1  0.52313431  0.08333359  0.68426231  1
  O  O447  1  0.52213197  0.08347579  0.93192970  1
  O  O448  1  0.52150491  0.41896035  0.18304178  1
  O  O449  1  0.52128182  0.41752404  0.43163232  1
  O  O450  1  0.52100797  0.41673165  0.68190336  1
  O  O451  1  0.52250062  0.41652710  0.93468910  1
  O  O452  1  0.52240206  0.75033453  0.18489425  1
  O  O453  1  0.52152953  0.74874251  0.43292542  1
  O  O454  1  0.52082654  0.75054692  0.68157431  1
  O  O455  1  0.52194676  0.74799118  0.93355659  1
  O  O456  1  0.47801852  0.25182174  0.06706752  1
  O  O457  1  0.47856815  0.24965749  0.31803250  1
  O  O458  1  0.47855770  0.24939925  0.56818276  1
  O  O459  1  0.47810002  0.24809323  0.81710203  1
  O  O460  1  0.47704584  0.58373384  0.06601503  1
  O  O461  1  0.47646436  0.58245251  0.31570710  1
  O  O462  1  0.47726692  0.58568314  0.56700125  1
  O  O463  1  0.47798311  0.58335343  0.81907009  1
  O  O464  1  0.47861468  0.91601106  0.06857909  1
  O  O465  1  0.47735177  0.91587893  0.31564065  1
  O  O466  1  0.47801599  0.91833274  0.56700526  1
  O  O467  1  0.47828635  0.91821410  0.81723042  1
  O  O468  1  0.97804548  0.24805695  0.06748819  1
  O  O469  1  0.97822599  0.24816470  0.31683390  1
  O  O470  1  0.97932048  0.25014497  0.56782271  1
  O  O471  1  0.97821692  0.25190742  0.81695392  1
  O  O472  1  0.97769406  0.58560097  0.06665781  1
  O  O473  1  0.97620111  0.58332653  0.31556456  1
  O  O474  1  0.97658788  0.58415070  0.56566506  1
  O  O475  1  0.97860063  0.58392299  0.81782372  1
  O  O476  1  0.97768580  0.91608386  0.06602341  1
  O  O477  1  0.97876976  0.91780863  0.31624368  1
  O  O478  1  0.97821823  0.91800107  0.56625476  1
  O  O479  1  0.97750561  0.91479382  0.81740051  1
  O  O480  1  0.07294019  0.31245837  0.07588907  1
  O  O481  1  0.07322031  0.31230072  0.32410860  1
  O  O482  1  0.07475710  0.31367381  0.57457524  1
  O  O483  1  0.07342989  0.31462948  0.82467931  1
  O  O484  1  0.07296986  0.64825512  0.07437728  1
  O  O485  1  0.07116269  0.64695790  0.32379888  1
  O  O486  1  0.07189338  0.64726342  0.57298132  1
  O  O487  1  0.07378158  0.64760690  0.82493583  1
  O  O488  1  0.07234148  0.98014437  0.07246061  1
  O  O489  1  0.07426931  0.98045596  0.32297440  1
  O  O490  1  0.07317398  0.98110913  0.57462986  1
  O  O491  1  0.07254488  0.97888627  0.82585853  1
  O  O492  1  0.57323760  0.31481838  0.07413736  1
  O  O493  1  0.57394879  0.31307095  0.32527636  1
  O  O494  1  0.57362306  0.31328854  0.57578529  1
  O  O495  1  0.57293968  0.31287545  0.82462459  1
  O  O496  1  0.57208780  0.64718582  0.07451822  1
  O  O497  1  0.57089688  0.64709373  0.32255827  1
  O  O498  1  0.57246837  0.64863468  0.57347250  1
  O  O499  1  0.57358882  0.64643993  0.82602926  1
  O  O500  1  0.57381363  0.97967259  0.07605301  1
  O  O501  1  0.57228695  0.97971444  0.32334794  1
  O  O502  1  0.57329251  0.98161195  0.57356937  1
  O  O503  1  0.57379238  0.98078572  0.82418186  1
  O  O504  1  0.42715270  0.01870636  0.17589397  1
  O  O505  1  0.42698145  0.01775847  0.42602453  1
  O  O506  1  0.42815652  0.01950638  0.67721228  1
  O  O507  1  0.42701067  0.01965557  0.92430748  1
  O  O508  1  0.42655271  0.35458992  0.17457979  1
  O  O509  1  0.42652705  0.35327824  0.42364364  1
  O  O510  1  0.42536572  0.35373801  0.67524398  1
  O  O511  1  0.42764826  0.35263130  0.92701757  1
  O  O512  1  0.42785688  0.68593523  0.17710292  1
  O  O513  1  0.42676760  0.68516150  0.42521011  1
  O  O514  1  0.42522347  0.68714781  0.67519613  1
  O  O515  1  0.42643674  0.68573757  0.92663274  1
  O  O516  1  0.92902623  0.01909528  0.17576988  1
  O  O517  1  0.92781508  0.01849877  0.42475443  1
  O  O518  1  0.92591815  0.01996758  0.67541891  1
  O  O519  1  0.92912799  0.01963129  0.92737001  1
  O  O520  1  0.92618118  0.35427437  0.17582310  1
  O  O521  1  0.92721265  0.35393007  0.42464015  1
  O  O522  1  0.92737030  0.35241474  0.67502053  1
  O  O523  1  0.92612875  0.35326001  0.92534711  1
  O  O524  1  0.92663853  0.68612856  0.17561145  1
  O  O525  1  0.92655390  0.68552411  0.42614248  1
  O  O526  1  0.92693961  0.68808669  0.67526704  1
  O  O527  1  0.92789550  0.68665671  0.92611624  1
  O  O528  1  0.17778954  0.01992571  0.19721172  1
  O  O529  1  0.17632084  0.01965417  0.44935672  1
  O  O530  1  0.17720302  0.01815368  0.69994215  1
  O  O531  1  0.17793094  0.01982656  0.94878685  1
  O  O532  1  0.17561339  0.35348345  0.19994301  1
  O  O533  1  0.17728711  0.35262224  0.44837729  1
  O  O534  1  0.17720750  0.35424755  0.70028245  1
  O  O535  1  0.17625265  0.35468732  0.94967743  1
  O  O536  1  0.17688489  0.68518327  0.19850860  1
  O  O537  1  0.17588543  0.68510958  0.44929035  1
  O  O538  1  0.17558210  0.68648790  0.70132963  1
  O  O539  1  0.17745589  0.68721073  0.94850483  1
  O  O540  1  0.67851513  0.01997007  0.19899887  1
  O  O541  1  0.67813011  0.01972098  0.44872181  1
  O  O542  1  0.67732196  0.02189359  0.69908162  1
  O  O543  1  0.67750071  0.01894011  0.94908189  1
  O  O544  1  0.67585132  0.35267375  0.20071766  1
  O  O545  1  0.67719293  0.35137259  0.44993396  1
  O  O546  1  0.67670662  0.35379109  0.69927471  1
  O  O547  1  0.67750041  0.35107915  0.94884686  1
  O  O548  1  0.67603749  0.68697338  0.20048835  1
  O  O549  1  0.67670175  0.68506987  0.44905474  1
  O  O550  1  0.67665095  0.68612227  0.69909289  1
  O  O551  1  0.67626577  0.68708637  0.95041483  1
  O  O552  1  0.32277252  0.31273404  0.04935441  1
  O  O553  1  0.32324732  0.31420995  0.29981053  1
  O  O554  1  0.32414939  0.31360871  0.54990233  1
  O  O555  1  0.32352578  0.31220884  0.80053744  1
  O  O556  1  0.32273717  0.64839647  0.05113399  1
  O  O557  1  0.32167468  0.64685397  0.30218470  1
  O  O558  1  0.32179259  0.64523133  0.55025838  1
  O  O559  1  0.32245430  0.64672940  0.80125652  1
  O  O560  1  0.32346556  0.98119992  0.04987723  1
  O  O561  1  0.32377445  0.97963289  0.29935864  1
  O  O562  1  0.32318964  0.98040950  0.55122885  1
  O  O563  1  0.32295322  0.97988281  0.80161410  1
  O  O564  1  0.82370080  0.31177616  0.05149300  1
  O  O565  1  0.82221416  0.31358574  0.30169810  1
  O  O566  1  0.82376917  0.31192152  0.54933536  1
  O  O567  1  0.82292819  0.31532506  0.80072498  1
  O  O568  1  0.82377578  0.64638599  0.05002363  1
  O  O569  1  0.82241260  0.64809661  0.30132395  1
  O  O570  1  0.82131972  0.64669770  0.55177942  1
  O  O571  1  0.82379978  0.64693297  0.79922720  1
  O  O572  1  0.82366277  0.98168840  0.05150433  1
  O  O573  1  0.82334217  0.98192065  0.30084259  1
  O  O574  1  0.82423109  0.98026269  0.54893303  1
  O  O575  1  0.82377608  0.98209971  0.80092440  1
  O  O576  1  0.42729703  0.14599712  0.17561012  1
  O  O577  1  0.42707080  0.14483408  0.42469641  1
  O  O578  1  0.42810360  0.14690498  0.67656884  1
  O  O579  1  0.42643188  0.14634622  0.92449557  1
  O  O580  1  0.42600964  0.48159508  0.17513764  1
  O  O581  1  0.42536012  0.48023428  0.42454361  1
  O  O582  1  0.42584801  0.48075423  0.67536401  1
  O  O583  1  0.42741625  0.48014178  0.92722443  1
  O  O584  1  0.42709598  0.81325642  0.17633593  1
  O  O585  1  0.42607008  0.81217808  0.42466100  1
  O  O586  1  0.42547574  0.81400891  0.67471091  1
  O  O587  1  0.42724178  0.81298093  0.92634030  1
  O  O588  1  0.92878946  0.14625664  0.17658993  1
  O  O589  1  0.92808004  0.14553221  0.42450827  1
  O  O590  1  0.92647589  0.14676532  0.67457036  1
  O  O591  1  0.92801649  0.14716394  0.92713595  1
  O  O592  1  0.92645984  0.48158085  0.17599530  1
  O  O593  1  0.92633034  0.48100752  0.42629183  1
  O  O594  1  0.92729406  0.47963954  0.67501658  1
  O  O595  1  0.92603898  0.48007610  0.92403641  1
  O  O596  1  0.92710615  0.81299039  0.17517650  1
  O  O597  1  0.92672384  0.81259234  0.42414627  1
  O  O598  1  0.92674271  0.81521183  0.67539875  1
  O  O599  1  0.92727288  0.81394364  0.92721862  1
  O  O600  1  0.07360077  0.18537170  0.07412994  1
  O  O601  1  0.07364215  0.18500702  0.32377670  1
  O  O602  1  0.07474498  0.18680873  0.57583548  1
  O  O603  1  0.07331243  0.18741831  0.82473648  1
  O  O604  1  0.07275290  0.52125417  0.07525465  1
  O  O605  1  0.07124322  0.51980853  0.32324942  1
  O  O606  1  0.07114557  0.51973811  0.57261690  1
  O  O607  1  0.07404974  0.52077167  0.82563320  1
  O  O608  1  0.07304493  0.85283280  0.07366188  1
  O  O609  1  0.07361155  0.85340542  0.32448896  1
  O  O610  1  0.07352575  0.85405938  0.57410480  1
  O  O611  1  0.07271307  0.85188358  0.82454860  1
  O  O612  1  0.57315258  0.18748198  0.07485296  1
  O  O613  1  0.57388471  0.18603258  0.32498962  1
  O  O614  1  0.57430267  0.18633877  0.57509888  1
  O  O615  1  0.57364151  0.18574980  0.82470851  1
  O  O616  1  0.57203566  0.51998918  0.07393357  1
  O  O617  1  0.57210375  0.51988780  0.32364216  1
  O  O618  1  0.57245567  0.52140877  0.57411728  1
  O  O619  1  0.57331709  0.51970172  0.82578822  1
  O  O620  1  0.57414291  0.85292560  0.07658300  1
  O  O621  1  0.57228734  0.85224723  0.32435422  1
  O  O622  1  0.57327194  0.85461158  0.57457007  1
  O  O623  1  0.57323666  0.85356555  0.82406300  1
  O  O624  1  0.32315482  0.18563532  0.05061612  1
  O  O625  1  0.32291117  0.18699190  0.29991325  1
  O  O626  1  0.32451882  0.18673431  0.54935074  1
  O  O627  1  0.32297794  0.18486796  0.80078496  1
  O  O628  1  0.32250917  0.52145325  0.05055972  1
  O  O629  1  0.32052339  0.51954575  0.30162706  1
  O  O630  1  0.32208037  0.51830722  0.55027690  1
  O  O631  1  0.32218287  0.51941204  0.80264710  1
  O  O632  1  0.32331656  0.85425105  0.04959784  1
  O  O633  1  0.32342016  0.85273137  0.29890848  1
  O  O634  1  0.32277347  0.85314517  0.55067382  1
  O  O635  1  0.32145200  0.85264188  0.80168391  1
  O  O636  1  0.82362384  0.18481109  0.05171445  1
  O  O637  1  0.82317481  0.18615041  0.30187756  1
  O  O638  1  0.82338839  0.18490734  0.55003193  1
  O  O639  1  0.82436078  0.18817451  0.80056120  1
  O  O640  1  0.82371659  0.51925671  0.05036634  1
  O  O641  1  0.82283828  0.52089789  0.30109935  1
  O  O642  1  0.82170363  0.51924890  0.55079341  1
  O  O643  1  0.82425491  0.52020361  0.79896354  1
  O  O644  1  0.82298198  0.85467433  0.05050381  1
  O  O645  1  0.82338173  0.85476455  0.29955381  1
  O  O646  1  0.82377130  0.85334065  0.54856194  1
  O  O647  1  0.82329457  0.85480285  0.80062563  1
  O  O648  1  0.17883377  0.14747338  0.19713794  1
  O  O649  1  0.17601759  0.14645968  0.45045478  1
  O  O650  1  0.17741341  0.14525926  0.70042188  1
  O  O651  1  0.17826206  0.14699619  0.94842356  1
  O  O652  1  0.17561042  0.48020191  0.20070770  1
  O  O653  1  0.17754958  0.47997941  0.44763797  1
  O  O654  1  0.17662027  0.48137335  0.69889446  1
  O  O655  1  0.17680798  0.48201692  0.94940939  1
  O  O656  1  0.17657342  0.81216591  0.19984431  1
  O  O657  1  0.17629668  0.81236163  0.44943739  1
  O  O658  1  0.17604909  0.81318122  0.70106937  1
  O  O659  1  0.17906866  0.81458731  0.94870056  1
  O  O660  1  0.67828456  0.14711050  0.19913022  1
  O  O661  1  0.67746469  0.14700256  0.44765376  1
  O  O662  1  0.67794385  0.14902339  0.69907932  1
  O  O663  1  0.67719386  0.14575779  0.95016721  1
  O  O664  1  0.67602009  0.47958534  0.20080969  1
  O  O665  1  0.67582399  0.47853092  0.45007046  1
  O  O666  1  0.67624481  0.48087619  0.69944816  1
  O  O667  1  0.67685252  0.47841350  0.94974181  1
  O  O668  1  0.67621815  0.81392299  0.20169436  1
  O  O669  1  0.67657322  0.81224927  0.45051799  1
  O  O670  1  0.67691704  0.81344015  0.69898118  1
  O  O671  1  0.67593137  0.81417819  0.95019642  1
