# generated using pymatgen
data_Na2MnFe(PO4)2
_symmetry_space_group_name_H-M   'P 1'
_cell_length_a   22.34381748
_cell_length_b   20.09303844
_cell_length_c   19.45074740
_cell_angle_alpha   89.98939980
_cell_angle_beta   90.00261924
_cell_angle_gamma   89.90043006
_symmetry_Int_Tables_number   1
_chemical_formula_structural   Na2MnFe(PO4)2
_chemical_formula_sum   'Na96 Mn48 Fe48 P96 O384'
_cell_volume   8732.50052351
_cell_formula_units_Z   48
loop_
 _symmetry_equiv_pos_site_id
 _symmetry_equiv_pos_as_xyz
  1  'x, y, z'
loop_
 _atom_site_type_symbol
 _atom_site_label
 _atom_site_symmetry_multiplicity
 _atom_site_fract_x
 _atom_site_fract_y
 _atom_site_fract_z
 _atom_site_occupancy
  Na  Na0  1  0.14071196  0.24888433  0.24413250  1
  Na  Na1  1  0.14037818  0.25084639  0.49377743  1
  Na  Na2  1  0.14077094  0.25068108  0.74319347  1
  Na  Na3  1  0.14078812  0.24979013  0.99359619  1
  Na  Na4  1  0.14056394  0.58310365  0.24462514  1
  Na  Na5  1  0.14087466  0.58189268  0.49481486  1
  Na  Na6  1  0.14053550  0.58226014  0.74454536  1
  Na  Na7  1  0.14060616  0.58459524  0.99292428  1
  Na  Na8  1  0.14100492  0.91675599  0.24412106  1
  Na  Na9  1  0.14011206  0.91774587  0.49371920  1
  Na  Na10  1  0.14031532  0.91619373  0.74450444  1
  Na  Na11  1  0.14130998  0.91659640  0.99391759  1
  Na  Na12  1  0.63993507  0.24876171  0.24366420  1
  Na  Na13  1  0.63989912  0.24972535  0.49317551  1
  Na  Na14  1  0.63967622  0.25129289  0.74279902  1
  Na  Na15  1  0.64012532  0.25020615  0.99368226  1
  Na  Na16  1  0.64013835  0.58302200  0.24240635  1
  Na  Na17  1  0.63989513  0.58303082  0.49335161  1
  Na  Na18  1  0.64013572  0.58445874  0.74362913  1
  Na  Na19  1  0.63961720  0.58341547  0.99280677  1
  Na  Na20  1  0.64052619  0.91663315  0.24285548  1
  Na  Na21  1  0.63922583  0.91658843  0.49306436  1
  Na  Na22  1  0.63979335  0.91859654  0.74307972  1
  Na  Na23  1  0.64039945  0.91647385  0.99383422  1
  Na  Na24  1  0.35997196  0.08264813  0.00684172  1
  Na  Na25  1  0.36059753  0.08400203  0.25701960  1
  Na  Na26  1  0.36005000  0.08434323  0.50698867  1
  Na  Na27  1  0.35965863  0.08157898  0.75590064  1
  Na  Na28  1  0.36015410  0.41734594  0.00687394  1
  Na  Na29  1  0.35980507  0.41560093  0.25644471  1
  Na  Na30  1  0.36042970  0.41585342  0.50746575  1
  Na  Na31  1  0.36032875  0.41668297  0.75665104  1
  Na  Na32  1  0.35972206  0.75022349  0.00611259  1
  Na  Na33  1  0.36024809  0.74916084  0.25558760  1
  Na  Na34  1  0.36005096  0.75018924  0.50763192  1
  Na  Na35  1  0.35905195  0.74951151  0.75800510  1
  Na  Na36  1  0.85903536  0.08350405  0.00618176  1
  Na  Na37  1  0.86017506  0.08307242  0.25600337  1
  Na  Na38  1  0.85931139  0.08248803  0.50633051  1
  Na  Na39  1  0.85886679  0.08504921  0.75506881  1
  Na  Na40  1  0.85961089  0.41688502  0.00503560  1
  Na  Na41  1  0.85915789  0.41604415  0.25528043  1
  Na  Na42  1  0.85945709  0.41609933  0.50690781  1
  Na  Na43  1  0.85981147  0.41730950  0.75629051  1
  Na  Na44  1  0.85917332  0.74996537  0.00668609  1
  Na  Na45  1  0.85927639  0.74983536  0.25569319  1
  Na  Na46  1  0.85951845  0.75019308  0.50633145  1
  Na  Na47  1  0.85906642  0.75156352  0.75571377  1
  Na  Na48  1  0.11065234  0.08484377  0.11836893  1
  Na  Na49  1  0.10980991  0.08321385  0.36897957  1
  Na  Na50  1  0.10951347  0.08335712  0.61804584  1
  Na  Na51  1  0.10987592  0.08356672  0.86919326  1
  Na  Na52  1  0.10967837  0.41740098  0.11885356  1
  Na  Na53  1  0.10999746  0.41476178  0.37012293  1
  Na  Na54  1  0.11051684  0.41742322  0.61909185  1
  Na  Na55  1  0.11005314  0.41673020  0.86840367  1
  Na  Na56  1  0.11029997  0.74973857  0.11822800  1
  Na  Na57  1  0.10953039  0.74957618  0.37042934  1
  Na  Na58  1  0.10933356  0.75047497  0.61915720  1
  Na  Na59  1  0.10995076  0.74863288  0.86878653  1
  Na  Na60  1  0.60970618  0.08369941  0.11880284  1
  Na  Na61  1  0.60963716  0.08297162  0.36875211  1
  Na  Na62  1  0.60889925  0.08290177  0.61749988  1
  Na  Na63  1  0.60952815  0.08338616  0.86848094  1
  Na  Na64  1  0.60898697  0.41701068  0.11762756  1
  Na  Na65  1  0.60960701  0.41693766  0.36871686  1
  Na  Na66  1  0.60946580  0.41484207  0.61771100  1
  Na  Na67  1  0.60948449  0.41698457  0.86869671  1
  Na  Na68  1  0.60985332  0.74964672  0.11731238  1
  Na  Na69  1  0.60888371  0.75145258  0.36820688  1
  Na  Na70  1  0.60878609  0.74979281  0.61875366  1
  Na  Na71  1  0.60977215  0.75011553  0.86869026  1
  Na  Na72  1  0.39046732  0.24948208  0.13218011  1
  Na  Na73  1  0.39056815  0.24935498  0.38292267  1
  Na  Na74  1  0.39034328  0.24923124  0.63076018  1
  Na  Na75  1  0.39083789  0.25001416  0.88150022  1
  Na  Na76  1  0.39013532  0.58375900  0.13034340  1
  Na  Na77  1  0.39122710  0.58369478  0.38166904  1
  Na  Na78  1  0.39070829  0.58121431  0.63249334  1
  Na  Na79  1  0.39041977  0.58286767  0.88255769  1
  Na  Na80  1  0.39071602  0.91797673  0.13169540  1
  Na  Na81  1  0.39107873  0.91803926  0.38169953  1
  Na  Na82  1  0.39021646  0.91594743  0.63173800  1
  Na  Na83  1  0.38977875  0.91658559  0.88220583  1
  Na  Na84  1  0.89046474  0.25099586  0.13003211  1
  Na  Na85  1  0.89040462  0.24874081  0.38121186  1
  Na  Na86  1  0.88959488  0.25155647  0.63154190  1
  Na  Na87  1  0.88981432  0.25131534  0.87989604  1
  Na  Na88  1  0.88980318  0.58405228  0.13027125  1
  Na  Na89  1  0.88985787  0.58289759  0.38136985  1
  Na  Na90  1  0.89057674  0.58334344  0.63072197  1
  Na  Na91  1  0.89014378  0.58238448  0.88145456  1
  Na  Na92  1  0.89000415  0.91730914  0.13179603  1
  Na  Na93  1  0.89044255  0.91613799  0.38150512  1
  Na  Na94  1  0.89010288  0.91660274  0.63018004  1
  Na  Na95  1  0.88967368  0.91676390  0.88178367  1
  Mn  Mn96  1  0.74951776  0.00057772  0.62506729  1
  Mn  Mn97  1  0.74954435  0.49937391  0.12381046  1
  Mn  Mn98  1  0.24985580  0.50062340  0.12597279  1
  Mn  Mn99  1  -0.00108882  0.66594596  0.74945012  1
  Mn  Mn100  1  -0.00045068  0.33263652  0.24953856  1
  Mn  Mn101  1  0.75027445  0.16621258  0.12420263  1
  Mn  Mn102  1  0.50006889  0.83407723  0.24957393  1
  Mn  Mn103  1  -0.00053681  0.83307023  0.74995431  1
  Mn  Mn104  1  0.49972988  0.66639515  0.50009086  1
  Mn  Mn105  1  0.50042673  0.49918709  0.75037149  1
  Mn  Mn106  1  0.49967524  0.83273265  0.75016579  1
  Mn  Mn107  1  0.49985096  0.16687474  -0.00009121  1
  Mn  Mn108  1  0.00119049  0.00085794  0.25034970  1
  Mn  Mn109  1  0.75030922  0.33332950  0.37451026  1
  Mn  Mn110  1  0.24985388  0.33234627  0.12538973  1
  Mn  Mn111  1  0.75003109  0.66801758  0.62412506  1
  Mn  Mn112  1  -0.00029690  0.16789616  0.74897676  1
  Mn  Mn113  1  0.00013714  0.66671940  0.25073985  1
  Mn  Mn114  1  -0.00022252  0.00080273  0.00026282  1
  Mn  Mn115  1  0.24997191  0.66563639  0.62672815  1
  Mn  Mn116  1  0.00037943  0.83260905  0.00059949  1
  Mn  Mn117  1  0.25119075  0.49861460  0.37493579  1
  Mn  Mn118  1  0.25070008  0.66593851  0.37610363  1
  Mn  Mn119  1  0.25098109  0.00123510  0.37448726  1
  Mn  Mn120  1  0.74965065  0.83416711  0.87557664  1
  Mn  Mn121  1  -0.00029152  0.00006050  0.74964413  1
  Mn  Mn122  1  0.75045450  0.16566319  0.37411289  1
  Mn  Mn123  1  0.74938189  0.50055535  0.87466470  1
  Mn  Mn124  1  -0.00008874  0.49950909  0.50021874  1
  Mn  Mn125  1  0.25098977  0.33356561  0.87497401  1
  Mn  Mn126  1  -0.00025403  0.16848859  -0.00130411  1
  Mn  Mn127  1  0.25046119  0.83302985  0.12476556  1
  Mn  Mn128  1  0.74949433  0.83364569  0.37426224  1
  Mn  Mn129  1  0.24944910  0.83399858  0.62632470  1
  Mn  Mn130  1  0.75006889  0.50029253  0.62507901  1
  Mn  Mn131  1  0.25056697  0.16536991  0.87423362  1
  Mn  Mn132  1  0.00015479  0.50003227  -0.00027195  1
  Mn  Mn133  1  -0.00003597  0.49990206  0.25025410  1
  Mn  Mn134  1  0.00014583  0.83318422  0.25054299  1
  Mn  Mn135  1  0.49970602  0.33298309  0.25030805  1
  Mn  Mn136  1  0.50012264  0.83367251  -0.00023303  1
  Mn  Mn137  1  0.74910902  0.66604838  0.37464583  1
  Mn  Mn138  1  0.25052438  0.83317913  0.37503578  1
  Mn  Mn139  1  0.49992337  0.16617730  0.75005502  1
  Mn  Mn140  1  -0.00003589  0.16692504  0.50034912  1
  Mn  Mn141  1  0.24971817  0.16651879  0.62522193  1
  Mn  Mn142  1  0.49937893  0.50080542  0.24949791  1
  Mn  Mn143  1  0.74952202  0.16747130  0.87499077  1
  Fe  Fe144  1  0.74887351  0.16718964  0.62485545  1
  Fe  Fe145  1  0.74996000  -0.00036726  0.12483032  1
  Fe  Fe146  1  -0.00038222  -0.00003953  0.49950629  1
  Fe  Fe147  1  0.49987919  0.66666294  -0.00028669  1
  Fe  Fe148  1  0.49991177  0.50034707  -0.00046154  1
  Fe  Fe149  1  0.50022212  0.16663765  0.25101713  1
  Fe  Fe150  1  0.50042096  0.00088440  0.25059874  1
  Fe  Fe151  1  0.49946802  -0.00059625  0.74962045  1
  Fe  Fe152  1  0.50012122  0.33246335  0.49976233  1
  Fe  Fe153  1  0.25027552  0.66643653  0.87527052  1
  Fe  Fe154  1  0.25003111  0.83356940  0.87581076  1
  Fe  Fe155  1  0.74967953  0.00042356  0.87478370  1
  Fe  Fe156  1  0.49963345  0.66589175  0.75008309  1
  Fe  Fe157  1  0.00034780  0.49970497  0.75010206  1
  Fe  Fe158  1  0.75017597  0.83328595  0.12455173  1
  Fe  Fe159  1  0.74956389  0.33297285  0.12475390  1
  Fe  Fe160  1  0.50007666  0.33356011  0.00040630  1
  Fe  Fe161  1  0.00045571  0.33388838  -0.00027064  1
  Fe  Fe162  1  -0.00042998  0.33355720  0.50042722  1
  Fe  Fe163  1  0.24976464  -0.00023932  0.87572062  1
  Fe  Fe164  1  0.50047098  0.49937126  0.50046224  1
  Fe  Fe165  1  0.00036213  0.66639093  0.50058374  1
  Fe  Fe166  1  0.50004412  0.16588097  0.50042941  1
  Fe  Fe167  1  0.25096158  0.49953216  0.62574517  1
  Fe  Fe168  1  0.74933422  0.33376259  0.62457754  1
  Fe  Fe169  1  0.74896617  0.83439322  0.62510301  1
  Fe  Fe170  1  0.00069974  0.33407512  0.74991161  1
  Fe  Fe171  1  0.25012729  0.66688026  0.12455837  1
  Fe  Fe172  1  0.25086401  -0.00003107  0.12504624  1
  Fe  Fe173  1  0.49989955  -0.00026406  0.49980124  1
  Fe  Fe174  1  -0.00026831  0.66624907  -0.00017658  1
  Fe  Fe175  1  0.50056005  0.66706429  0.24972256  1
  Fe  Fe176  1  0.00029565  0.16686014  0.25009256  1
  Fe  Fe177  1  0.74980365  0.49941481  0.37410415  1
  Fe  Fe178  1  0.24990590  0.16683355  0.37530765  1
  Fe  Fe179  1  0.25024006  0.33256095  0.37582304  1
  Fe  Fe180  1  0.25111428  0.16621164  0.12517574  1
  Fe  Fe181  1  0.49926961  0.83319281  0.49996083  1
  Fe  Fe182  1  0.74981794  0.66602224  0.12472009  1
  Fe  Fe183  1  0.75005067  -0.00050492  0.37488561  1
  Fe  Fe184  1  0.50004758  0.00039908  0.00028352  1
  Fe  Fe185  1  0.24994747  -0.00021800  0.62566188  1
  Fe  Fe186  1  0.49992911  0.33302408  0.74989406  1
  Fe  Fe187  1  -0.00002047  0.83325038  0.50006089  1
  Fe  Fe188  1  0.74940888  0.33370768  0.87418100  1
  Fe  Fe189  1  0.25067555  0.33351846  0.62506546  1
  Fe  Fe190  1  0.74967805  0.66760151  0.87471681  1
  Fe  Fe191  1  0.24994954  0.49985087  0.87551784  1
  P  P192  1  0.04271905  0.25147621  0.10233457  1
  P  P193  1  0.04222260  0.24872119  0.35281747  1
  P  P194  1  0.04210489  0.25227733  0.60289246  1
  P  P195  1  0.04274927  0.25187259  0.85213665  1
  P  P196  1  0.04268178  0.58453712  0.10228235  1
  P  P197  1  0.04290083  0.58300445  0.35426052  1
  P  P198  1  0.04239053  0.58379352  0.60299781  1
  P  P199  1  0.04188108  0.58211350  0.85254558  1
  P  P200  1  0.04324491  0.91717436  0.10334918  1
  P  P201  1  0.04297662  0.91657194  0.35428836  1
  P  P202  1  0.04134746  0.91674530  0.60127134  1
  P  P203  1  0.04249035  0.91634101  0.85328100  1
  P  P204  1  0.54218275  0.25082008  0.10281310  1
  P  P205  1  0.54213932  0.24871350  0.35361757  1
  P  P206  1  0.54100887  0.24935955  0.60173909  1
  P  P207  1  0.54191481  0.25141118  0.85268729  1
  P  P208  1  0.54114042  0.58376362  0.10139532  1
  P  P209  1  0.54239577  0.58464583  0.35234403  1
  P  P210  1  0.54221785  0.58158603  0.60278340  1
  P  P211  1  0.54197514  0.58435828  0.85308380  1
  P  P212  1  0.54205048  0.91838465  0.10266077  1
  P  P213  1  0.54216918  0.91854972  0.35278822  1
  P  P214  1  0.54071213  0.91639759  0.60160664  1
  P  P215  1  0.54177460  0.91787530  0.85248521  1
  P  P216  1  0.45914086  0.08397747  0.14875166  1
  P  P217  1  0.45889128  0.08333374  0.39830516  1
  P  P218  1  0.45792800  0.08155778  0.64686561  1
  P  P219  1  0.45782363  0.08196679  0.89738509  1
  P  P220  1  0.45732639  0.41671295  0.14620961  1
  P  P221  1  0.45879778  0.41672537  0.39870145  1
  P  P222  1  0.45847277  0.41463478  0.64692621  1
  P  P223  1  0.45873011  0.41631686  0.89835275  1
  P  P224  1  0.45852900  0.74891333  0.14685237  1
  P  P225  1  0.45763499  0.75135638  0.39735408  1
  P  P226  1  0.45710377  0.74811018  0.64781467  1
  P  P227  1  0.45800426  0.74865359  0.89729637  1
  P  P228  1  0.95812138  0.08542610  0.14745283  1
  P  P229  1  0.95777273  0.08263202  0.39734015  1
  P  P230  1  0.95691917  0.08344652  0.64590013  1
  P  P231  1  0.95662159  0.08420408  0.89635552  1
  P  P232  1  0.95705672  0.41694222  0.14620688  1
  P  P233  1  0.95720537  0.41487651  0.39776049  1
  P  P234  1  0.95854996  0.41696332  0.64825248  1
  P  P235  1  0.95815846  0.41543166  0.89656794  1
  P  P236  1  0.95739433  0.74967128  0.14673310  1
  P  P237  1  0.95833019  0.74966566  0.39900550  1
  P  P238  1  0.95685610  0.75013494  0.64569191  1
  P  P239  1  0.95727327  0.74837783  0.89768474  1
  P  P240  1  0.20933307  0.08365035  0.22677423  1
  P  P241  1  0.20790812  0.08484228  0.47774722  1
  P  P242  1  0.20736085  0.08149569  0.72786348  1
  P  P243  1  0.20832143  0.08210542  0.97835902  1
  P  P244  1  0.20741038  0.41555673  0.22894643  1
  P  P245  1  0.20879494  0.41510293  0.47856815  1
  P  P246  1  0.20944266  0.41691731  0.72729310  1
  P  P247  1  0.20806023  0.41770890  0.97767160  1
  P  P248  1  0.20797198  0.74859553  0.22743586  1
  P  P249  1  0.20766120  0.75004438  0.47897053  1
  P  P250  1  0.20724419  0.74967891  0.72993471  1
  P  P251  1  0.20899284  0.74980508  0.97695014  1
  P  P252  1  0.70812737  0.08169366  0.22725075  1
  P  P253  1  0.70781916  0.08218661  0.47738014  1
  P  P254  1  0.70676428  0.08540954  0.72744224  1
  P  P255  1  0.70770152  0.08196403  0.97755901  1
  P  P256  1  0.70703880  0.41540348  0.22694324  1
  P  P257  1  0.70788870  0.41743397  0.47732692  1
  P  P258  1  0.70759496  0.41595282  0.72740087  1
  P  P259  1  0.70761796  0.41538062  0.97713175  1
  P  P260  1  0.70853602  0.74973650  0.22584925  1
  P  P261  1  0.70661458  0.75055781  0.47783731  1
  P  P262  1  0.70714307  0.75210417  0.72752129  1
  P  P263  1  0.70776554  0.74893689  0.97814946  1
  P  P264  1  0.29286675  0.24841278  0.02277748  1
  P  P265  1  0.29211324  0.24930560  0.27378151  1
  P  P266  1  0.29190511  0.25111495  0.52230830  1
  P  P267  1  0.29320682  0.24985975  0.77133806  1
  P  P268  1  0.29167154  0.58464955  0.02183123  1
  P  P269  1  0.29354792  0.58326520  0.27188214  1
  P  P270  1  0.29292856  0.58165496  0.52364129  1
  P  P271  1  0.29180430  0.58236659  0.77397898  1
  P  P272  1  0.29255415  0.91771062  0.02213948  1
  P  P273  1  0.29349394  0.91688038  0.27146413  1
  P  P274  1  0.29224948  0.91820800  0.52310077  1
  P  P275  1  0.29110799  0.91698132  0.77384383  1
  P  P276  1  0.79185468  0.25164339  0.02162053  1
  P  P277  1  0.79279478  0.24979068  0.27102696  1
  P  P278  1  0.79105667  0.24972830  0.52326168  1
  P  P279  1  0.79128894  0.25183255  0.77134355  1
  P  P280  1  0.79156172  0.58453527  0.02159216  1
  P  P281  1  0.79175274  0.58191152  0.27171113  1
  P  P282  1  0.79268550  0.58307981  0.52117469  1
  P  P283  1  0.79190732  0.58542849  0.77243636  1
  P  P284  1  0.79142657  0.91698808  0.02297851  1
  P  P285  1  0.79233508  0.91788899  0.27159024  1
  P  P286  1  0.79146192  0.91585431  0.52227189  1
  P  P287  1  0.79166088  0.91841241  0.77233288  1
  O  O288  1  0.03742480  0.25027037  0.18224817  1
  O  O289  1  0.03702071  0.24924981  0.43271360  1
  O  O290  1  0.03693483  0.25246453  0.68283389  1
  O  O291  1  0.03779086  0.25216737  0.93210405  1
  O  O292  1  0.03800106  0.58422446  0.18229388  1
  O  O293  1  0.03770643  0.58343993  0.43421936  1
  O  O294  1  0.03681806  0.58286855  0.68290159  1
  O  O295  1  0.03669961  0.58274552  0.93247611  1
  O  O296  1  0.03847391  0.91707993  0.18337368  1
  O  O297  1  0.03733116  0.91664398  0.43418471  1
  O  O298  1  0.03612537  0.91672614  0.68125286  1
  O  O299  1  0.03755822  0.91638003  0.93323955  1
  O  O300  1  0.53724205  0.25017250  0.18274793  1
  O  O301  1  0.53682683  0.24876354  0.43347831  1
  O  O302  1  0.53652117  0.24957306  0.68171025  1
  O  O303  1  0.53648402  0.25155300  0.93260242  1
  O  O304  1  0.53641487  0.58388762  0.18136734  1
  O  O305  1  0.53729736  0.58396321  0.43223399  1
  O  O306  1  0.53695462  0.58190747  0.68269827  1
  O  O307  1  0.53649317  0.58430794  0.93294650  1
  O  O308  1  0.53689933  0.91827343  0.18257147  1
  O  O309  1  0.53700468  0.91840974  0.43260764  1
  O  O310  1  0.53568701  0.91620620  0.68156217  1
  O  O311  1  0.53666783  0.91801562  0.93243771  1
  O  O312  1  0.46396677  0.08358565  0.06879521  1
  O  O313  1  0.46382405  0.08395377  0.31841655  1
  O  O314  1  0.46344640  0.08165063  0.56702725  1
  O  O315  1  0.46294768  0.08179402  0.81745512  1
  O  O316  1  0.46277051  0.41660254  0.06633851  1
  O  O317  1  0.46341040  0.41682878  0.31869994  1
  O  O318  1  0.46395568  0.41503783  0.56710464  1
  O  O319  1  0.46352735  0.41628578  0.81836349  1
  O  O320  1  0.46387357  0.74881131  0.06691704  1
  O  O321  1  0.46302698  0.75114562  0.31746636  1
  O  O322  1  0.46197559  0.74860778  0.56790263  1
  O  O323  1  0.46313991  0.74846138  0.81738712  1
  O  O324  1  0.96284635  0.08541683  0.06745555  1
  O  O325  1  0.96327615  0.08352558  0.31741957  1
  O  O326  1  0.96220860  0.08283057  0.56593753  1
  O  O327  1  0.96161686  0.08410557  0.81637187  1
  O  O328  1  0.96241622  0.41669452  0.06628688  1
  O  O329  1  0.96213609  0.41515851  0.31781082  1
  O  O330  1  0.96333118  0.41649758  0.56826186  1
  O  O331  1  0.96367251  0.41582311  0.81668136  1
  O  O332  1  0.96244476  0.74903849  0.06676900  1
  O  O333  1  0.96353457  0.74984759  0.31900720  1
  O  O334  1  0.96244646  0.75017792  0.56584217  1
  O  O335  1  0.96198008  0.74875758  0.81765842  1
  O  O336  1  0.21404552  0.08251093  0.05819620  1
  O  O337  1  0.21426456  0.08441597  0.30675772  1
  O  O338  1  0.21271374  0.08413793  0.55765297  1
  O  O339  1  0.21254637  0.08129910  0.80780797  1
  O  O340  1  0.21292076  0.41735146  0.05761541  1
  O  O341  1  0.21288740  0.41477731  0.30886242  1
  O  O342  1  0.21413391  0.41542520  0.55847994  1
  O  O343  1  0.21446555  0.41738863  0.80726566  1
  O  O344  1  0.21377746  0.74962804  0.05694958  1
  O  O345  1  0.21323605  0.74898355  0.30738013  1
  O  O346  1  0.21257689  0.75017988  0.55897263  1
  O  O347  1  0.21274201  0.74979175  0.80981972  1
  O  O348  1  0.71329867  0.08174486  0.05745651  1
  O  O349  1  0.71342999  0.08156141  0.30717368  1
  O  O350  1  0.71273757  0.08315145  0.55732012  1
  O  O351  1  0.71184834  0.08505239  0.80734025  1
  O  O352  1  0.71275464  0.41521217  0.05705635  1
  O  O353  1  0.71246146  0.41639323  0.30686943  1
  O  O354  1  0.71317404  0.41680523  0.55729130  1
  O  O355  1  0.71265108  0.41582266  0.80737436  1
  O  O356  1  0.71318683  0.74869203  0.05799369  1
  O  O357  1  0.71305439  0.75004830  0.30586092  1
  O  O358  1  0.71161739  0.75131453  0.55778163  1
  O  O359  1  0.71238650  0.75167398  0.80748021  1
  O  O360  1  0.28728569  0.24872325  0.19378088  1
  O  O361  1  0.28657639  0.25095217  0.44241713  1
  O  O362  1  0.28778357  0.25046539  0.69143587  1
  O  O363  1  0.28799974  0.24864756  0.94280725  1
  O  O364  1  0.28824678  0.58390174  0.19193173  1
  O  O365  1  0.28816762  0.58179005  0.44367945  1
  O  O366  1  0.28683205  0.58182295  0.69400848  1
  O  O367  1  0.28601768  0.58429412  0.94195626  1
  O  O368  1  0.28823599  0.91709229  0.19151832  1
  O  O369  1  0.28759946  0.91803058  0.44310872  1
  O  O370  1  0.28607581  0.91706441  0.69387472  1
  O  O371  1  0.28704780  0.91754978  0.94227403  1
  O  O372  1  0.78756159  0.25015827  0.19113429  1
  O  O373  1  0.78641968  0.24956089  0.44324812  1
  O  O374  1  0.78570634  0.25167525  0.69147547  1
  O  O375  1  0.78616469  0.25154381  0.94169980  1
  O  O376  1  0.78645623  0.58251223  0.19173284  1
  O  O377  1  0.78749835  0.58227224  0.44123084  1
  O  O378  1  0.78692670  0.58514082  0.69247823  1
  O  O379  1  0.78623233  0.58486427  0.94168363  1
  O  O380  1  0.78721293  0.91757818  0.19168355  1
  O  O381  1  0.78655127  0.91635978  0.44232562  1
  O  O382  1  0.78624528  0.91756041  0.69244382  1
  O  O383  1  0.78655761  0.91723428  0.94300537  1
  O  O384  1  0.22849005  0.24772462  0.05812443  1
  O  O385  1  0.22782123  0.24943096  0.30957525  1
  O  O386  1  0.22785868  0.25148747  0.55858203  1
  O  O387  1  0.22896217  0.24985849  0.80687032  1
  O  O388  1  0.22766030  0.58500971  0.05832293  1
  O  O389  1  0.22922270  0.58264589  0.30722338  1
  O  O390  1  0.22850551  0.58140514  0.55889824  1
  O  O391  1  0.22760896  0.58243997  0.80988738  1
  O  O392  1  0.22850890  0.91802470  0.05842872  1
  O  O393  1  0.22918360  0.91704186  0.30685703  1
  O  O394  1  0.22778168  0.91840401  0.55831533  1
  O  O395  1  0.22703044  0.91722198  0.80989242  1
  O  O396  1  0.72775911  0.25126256  0.05781321  1
  O  O397  1  0.72850138  0.24968338  0.30642745  1
  O  O398  1  0.72674916  0.24999632  0.55884945  1
  O  O399  1  0.72720738  0.25176737  0.80763584  1
  O  O400  1  0.72737082  0.58434639  0.05748705  1
  O  O401  1  0.72747037  0.58143566  0.30746736  1
  O  O402  1  0.72834292  0.58363200  0.55647874  1
  O  O403  1  0.72754802  0.58542014  0.80782658  1
  O  O404  1  0.72727953  0.91713886  0.05891605  1
  O  O405  1  0.72801787  0.91846353  0.30741400  1
  O  O406  1  0.72713236  0.91596931  0.55785619  1
  O  O407  1  0.72740498  0.91864316  0.80815469  1
  O  O408  1  0.27358055  0.08336703  0.19091267  1
  O  O409  1  0.27231336  0.08556603  0.44228977  1
  O  O410  1  0.27169422  0.08165105  0.69229408  1
  O  O411  1  0.27244067  0.08150011  0.94208002  1
  O  O412  1  0.27164328  0.41604587  0.19339339  1
  O  O413  1  0.27295481  0.41446356  0.44248807  1
  O  O414  1  0.27360697  0.41673461  0.69131238  1
  O  O415  1  0.27247908  0.41820142  0.94237485  1
  O  O416  1  0.27228549  0.74824991  0.19179771  1
  O  O417  1  0.27217985  0.74992861  0.44407409  1
  O  O418  1  0.27144842  0.74988634  0.69417432  1
  O  O419  1  0.27306816  0.74930125  0.94098385  1
  O  O420  1  0.77233818  0.08162097  0.19139730  1
  O  O421  1  0.77212772  0.08126925  0.44171611  1
  O  O422  1  0.77105720  0.08554113  0.69177174  1
  O  O423  1  0.77182311  0.08230340  0.94147730  1
  O  O424  1  0.77131948  0.41499129  0.19116779  1
  O  O425  1  0.77211035  0.41796855  0.44148494  1
  O  O426  1  0.77191318  0.41567739  0.69187406  1
  O  O427  1  0.77179053  0.41584568  0.94127195  1
  O  O428  1  0.77277554  0.74939636  0.19035863  1
  O  O429  1  0.77098110  0.74995751  0.44264607  1
  O  O430  1  0.77140194  0.75266715  0.69173253  1
  O  O431  1  0.77183863  0.74908113  0.94186822  1
  O  O432  1  0.02257983  0.08565137  0.18270128  1
  O  O433  1  0.02195597  0.08231707  0.43323719  1
  O  O434  1  0.02127631  0.08373010  0.68117217  1
  O  O435  1  0.02113820  0.08414768  0.93118980  1
  O  O436  1  0.02136544  0.41679968  0.18168384  1
  O  O437  1  0.02164487  0.41477694  0.43305653  1
  O  O438  1  0.02284344  0.41742358  0.68399950  1
  O  O439  1  0.02228792  0.41526543  0.93279932  1
  O  O440  1  0.02183391  0.74980757  0.18179263  1
  O  O441  1  0.02247000  0.74986758  0.43504945  1
  O  O442  1  0.02103124  0.74971200  0.68157267  1
  O  O443  1  0.02177087  0.74803733  0.93280280  1
  O  O444  1  0.52323576  0.08468294  0.18485564  1
  O  O445  1  0.52295171  0.08241067  0.43449127  1
  O  O446  1  0.52197994  0.08144167  0.68321647  1
  O  O447  1  0.52207788  0.08223939  0.93314927  1
  O  O448  1  0.52145373  0.41666440  0.18211802  1
  O  O449  1  0.52301951  0.41703810  0.43434040  1
  O  O450  1  0.52255725  0.41459536  0.68325132  1
  O  O451  1  0.52284785  0.41613155  0.93426550  1
  O  O452  1  0.52268063  0.74919727  0.18290376  1
  O  O453  1  0.52181232  0.75121021  0.43330008  1
  O  O454  1  0.52148625  0.74802638  0.68327992  1
  O  O455  1  0.52222471  0.74884178  0.93307750  1
  O  O456  1  0.47789564  0.25099587  0.06716101  1
  O  O457  1  0.47797128  0.24831121  0.31750095  1
  O  O458  1  0.47689045  0.24956843  0.56599523  1
  O  O459  1  0.47777062  0.25117896  0.81665182  1
  O  O460  1  0.47701038  0.58387262  0.06547944  1
  O  O461  1  0.47805075  0.58551128  0.31672050  1
  O  O462  1  0.47800932  0.58129100  0.56692590  1
  O  O463  1  0.47785504  0.58397702  0.81690593  1
  O  O464  1  0.47782867  0.91818844  0.06682736  1
  O  O465  1  0.47802202  0.91846621  0.31675689  1
  O  O466  1  0.47665340  0.91707565  0.56543016  1
  O  O467  1  0.47747130  0.91758704  0.81681671  1
  O  O468  1  0.97837056  0.25252937  0.06664160  1
  O  O469  1  0.97793024  0.24817668  0.31709559  1
  O  O470  1  0.97780003  0.25190545  0.56728254  1
  O  O471  1  0.97837494  0.25209627  0.81670028  1
  O  O472  1  0.97818954  0.58466534  0.06714898  1
  O  O473  1  0.97847798  0.58302629  0.31902234  1
  O  O474  1  0.97822809  0.58438495  0.56701217  1
  O  O475  1  0.97762886  0.58122449  0.81680579  1
  O  O476  1  0.97868198  0.91673935  0.06864461  1
  O  O477  1  0.97880126  0.91716632  0.31842174  1
  O  O478  1  0.97721513  0.91635701  0.56523606  1
  O  O479  1  0.97796303  0.91660038  0.81844689  1
  O  O480  1  0.07361427  0.31512362  0.07442797  1
  O  O481  1  0.07319125  0.31219194  0.32462861  1
  O  O482  1  0.07268826  0.31565482  0.57399447  1
  O  O483  1  0.07386408  0.31495599  0.82320920  1
  O  O484  1  0.07309492  0.64805171  0.07344988  1
  O  O485  1  0.07420832  0.64614796  0.32578953  1
  O  O486  1  0.07327351  0.64745313  0.57511024  1
  O  O487  1  0.07264720  0.64568099  0.82437619  1
  O  O488  1  0.07367999  0.98095544  0.07529143  1
  O  O489  1  0.07464165  0.97968158  0.32590595  1
  O  O490  1  0.07173856  0.98072960  0.57333864  1
  O  O491  1  0.07355411  0.97970112  0.82501909  1
  O  O492  1  0.57266733  0.31450498  0.07434546  1
  O  O493  1  0.57298331  0.31244231  0.32559180  1
  O  O494  1  0.57218351  0.31255914  0.57298182  1
  O  O495  1  0.57266641  0.31468650  0.82376893  1
  O  O496  1  0.57241416  0.64701660  0.07308415  1
  O  O497  1  0.57320974  0.64822192  0.32395911  1
  O  O498  1  0.57330049  0.64509846  0.57482871  1
  O  O499  1  0.57248506  0.64784546  0.82409330  1
  O  O500  1  0.57270522  0.98181000  0.07396718  1
  O  O501  1  0.57279855  0.98199593  0.32377597  1
  O  O502  1  0.57247493  0.97946669  0.57365036  1
  O  O503  1  0.57243908  0.98115005  0.82341826  1
  O  O504  1  0.42891803  0.02012913  0.17739836  1
  O  O505  1  0.42720359  0.02016066  0.42635739  1
  O  O506  1  0.42693922  0.01823739  0.67562417  1
  O  O507  1  0.42713470  0.01876418  0.92657865  1
  O  O508  1  0.42606609  0.35348778  0.17489958  1
  O  O509  1  0.42859081  0.35261279  0.42666918  1
  O  O510  1  0.42774386  0.35111920  0.67552694  1
  O  O511  1  0.42740459  0.35309682  0.92667192  1
  O  O512  1  0.42790879  0.68552101  0.17568674  1
  O  O513  1  0.42611787  0.68813913  0.42537612  1
  O  O514  1  0.42677979  0.68434903  0.67633960  1
  O  O515  1  0.42706196  0.68548806  0.92616140  1
  O  O516  1  0.92743840  0.02162603  0.17526261  1
  O  O517  1  0.92708526  0.01885287  0.42530948  1
  O  O518  1  0.92567449  0.02032222  0.67445937  1
  O  O519  1  0.92568770  0.02088596  0.92488847  1
  O  O520  1  0.92567948  0.35381292  0.17454244  1
  O  O521  1  0.92671824  0.35124249  0.42630218  1
  O  O522  1  0.92793306  0.35341308  0.67684268  1
  O  O523  1  0.92728848  0.35209404  0.92527256  1
  O  O524  1  0.92612301  0.68663497  0.17553778  1
  O  O525  1  0.92778928  0.68574387  0.42671819  1
  O  O526  1  0.92537199  0.68691941  0.67396089  1
  O  O527  1  0.92676001  0.68472435  0.92601006  1
  O  O528  1  0.17869907  0.01970132  0.19907727  1
  O  O529  1  0.17721979  0.02137087  0.44911988  1
  O  O530  1  0.17665441  0.01824464  0.69880472  1
  O  O531  1  0.17701780  0.01888471  0.94992047  1
  O  O532  1  0.17636652  0.35236629  0.20020918  1
  O  O533  1  0.17758367  0.35190822  0.44987636  1
  O  O534  1  0.17881748  0.35306066  0.69936581  1
  O  O535  1  0.17761904  0.35388439  0.94951466  1
  O  O536  1  0.17714802  0.68515114  0.19909029  1
  O  O537  1  0.17683353  0.68640927  0.45108615  1
  O  O538  1  0.17630702  0.68612232  0.70171673  1
  O  O539  1  0.17746123  0.68678573  0.94850368  1
  O  O540  1  0.67699964  0.01862946  0.19845984  1
  O  O541  1  0.67694556  0.01863087  0.44928651  1
  O  O542  1  0.67567067  0.02195825  0.69930924  1
  O  O543  1  0.67701739  0.01861140  0.94871392  1
  O  O544  1  0.67643722  0.35157910  0.19907666  1
  O  O545  1  0.67688821  0.35385667  0.44935534  1
  O  O546  1  0.67654215  0.35289846  0.69829105  1
  O  O547  1  0.67687282  0.35210774  0.94825690  1
  O  O548  1  0.67751255  0.68611516  0.19807682  1
  O  O549  1  0.67553040  0.68695130  0.45000620  1
  O  O550  1  0.67626502  0.68853089  0.69940909  1
  O  O551  1  0.67695649  0.68576570  0.94881626  1
  O  O552  1  0.32323431  0.31233557  0.05076452  1
  O  O553  1  0.32272138  0.31317623  0.30174678  1
  O  O554  1  0.32311466  0.31427750  0.55104792  1
  O  O555  1  0.32461459  0.31284158  0.80004234  1
  O  O556  1  0.32260619  0.64813728  0.05023096  1
  O  O557  1  0.32450391  0.64643920  0.30075068  1
  O  O558  1  0.32368689  0.64530711  0.55171362  1
  O  O559  1  0.32226966  0.64640517  0.80174166  1
  O  O560  1  0.32363080  0.98090282  0.05104314  1
  O  O561  1  0.32474773  0.98012060  0.29979491  1
  O  O562  1  0.32269658  0.98183791  0.55165218  1
  O  O563  1  0.32244358  0.98022810  0.80199512  1
  O  O564  1  0.82260619  0.31500565  0.05011710  1
  O  O565  1  0.82403991  0.31291466  0.29963807  1
  O  O566  1  0.82173614  0.31353585  0.55121089  1
  O  O567  1  0.82212280  0.31524205  0.80012192  1
  O  O568  1  0.82247706  0.64759983  0.05075142  1
  O  O569  1  0.82276549  0.64542653  0.29986124  1
  O  O570  1  0.82370674  0.64671480  0.54890294  1
  O  O571  1  0.82242816  0.64903770  0.80077028  1
  O  O572  1  0.82278576  0.98019363  0.05124155  1
  O  O573  1  0.82333915  0.98102466  0.30062697  1
  O  O574  1  0.82282062  0.97912524  0.55042814  1
  O  O575  1  0.82210295  0.98232338  0.80031567  1
  O  O576  1  0.42786497  0.14747343  0.17687504  1
  O  O577  1  0.42868021  0.14722624  0.42749048  1
  O  O578  1  0.42671170  0.14520989  0.67484088  1
  O  O579  1  0.42671098  0.14584169  0.92493570  1
  O  O580  1  0.42606636  0.48021498  0.17440732  1
  O  O581  1  0.42773277  0.48024872  0.42694920  1
  O  O582  1  0.42712985  0.47802569  0.67536955  1
  O  O583  1  0.42845529  0.48052796  0.92652096  1
  O  O584  1  0.42721389  0.81269941  0.17421545  1
  O  O585  1  0.42728157  0.81524343  0.42602140  1
  O  O586  1  0.42582516  0.81156437  0.67608747  1
  O  O587  1  0.42699276  0.81258783  0.92479625  1
  O  O588  1  0.92730925  0.14894479  0.17598324  1
  O  O589  1  0.92627739  0.14590687  0.42560887  1
  O  O590  1  0.92598836  0.14731315  0.67357330  1
  O  O591  1  0.92570107  0.14792789  0.92423644  1
  O  O592  1  0.92619550  0.48070686  0.17430124  1
  O  O593  1  0.92612431  0.47844473  0.42576311  1
  O  O594  1  0.92764562  0.48079158  0.67621308  1
  O  O595  1  0.92681240  0.47900518  0.92458253  1
  O  O596  1  0.92655534  0.81349440  0.17469575  1
  O  O597  1  0.92722537  0.81340467  0.42670084  1
  O  O598  1  0.92585813  0.81363376  0.67434252  1
  O  O599  1  0.92637817  0.81212031  0.92567160  1
  O  O600  1  0.07359616  0.18803514  0.07355922  1
  O  O601  1  0.07304859  0.18509212  0.32433658  1
  O  O602  1  0.07335741  0.18849573  0.57544787  1
  O  O603  1  0.07351710  0.18787455  0.82440611  1
  O  O604  1  0.07372604  0.52087499  0.07434621  1
  O  O605  1  0.07364098  0.51915254  0.32622407  1
  O  O606  1  0.07358043  0.52031263  0.57480217  1
  O  O607  1  0.07304331  0.51858651  0.82434410  1
  O  O608  1  0.07460190  0.85383007  0.07513278  1
  O  O609  1  0.07392814  0.85293026  0.32599159  1
  O  O610  1  0.07266857  0.85316067  0.57356825  1
  O  O611  1  0.07322132  0.85262558  0.82508649  1
  O  O612  1  0.57354865  0.18749226  0.07441546  1
  O  O613  1  0.57332560  0.18543959  0.32477807  1
  O  O614  1  0.57140579  0.18526103  0.57352024  1
  O  O615  1  0.57300712  0.18751351  0.82520996  1
  O  O616  1  0.57145404  0.51967614  0.07295631  1
  O  O617  1  0.57318482  0.52103371  0.32384836  1
  O  O618  1  0.57303313  0.51795487  0.57432442  1
  O  O619  1  0.57361764  0.52087967  0.82531460  1
  O  O620  1  0.57319033  0.85464696  0.07486256  1
  O  O621  1  0.57359349  0.85509820  0.32449385  1
  O  O622  1  0.57056418  0.85202940  0.57319038  1
  O  O623  1  0.57293950  0.85405158  0.82492693  1
  O  O624  1  0.32409390  0.18509972  0.05123608  1
  O  O625  1  0.32304479  0.18584982  0.30256756  1
  O  O626  1  0.32298920  0.18737522  0.55024210  1
  O  O627  1  0.32410997  0.18593235  0.79890240  1
  O  O628  1  0.32289421  0.52105864  0.04987796  1
  O  O629  1  0.32485981  0.51959281  0.29957630  1
  O  O630  1  0.32372303  0.51807796  0.55211946  1
  O  O631  1  0.32301741  0.51901005  0.80255015  1
  O  O632  1  0.32375801  0.85394385  0.04988153  1
  O  O633  1  0.32438099  0.85315896  0.29958704  1
  O  O634  1  0.32317625  0.85456052  0.55126218  1
  O  O635  1  0.32152947  0.85287099  0.80209965  1
  O  O636  1  0.82316864  0.18780558  0.04901398  1
  O  O637  1  0.82379278  0.18611092  0.29910865  1
  O  O638  1  0.82163251  0.18590672  0.55152961  1
  O  O639  1  0.82276523  0.18834766  0.79938979  1
  O  O640  1  0.82271947  0.52055808  0.04879227  1
  O  O641  1  0.82254056  0.51822156  0.30001357  1
  O  O642  1  0.82387911  0.51991297  0.55016874  1
  O  O643  1  0.82295562  0.52167602  0.80023847  1
  O  O644  1  0.82163574  0.85276202  0.05122131  1
  O  O645  1  0.82317125  0.85402355  0.29976927  1
  O  O646  1  0.82183332  0.85205765  0.55087121  1
  O  O647  1  0.82313806  0.85519677  0.80081744  1
  O  O648  1  0.17839788  0.14711381  0.19800965  1
  O  O649  1  0.17693134  0.14842244  0.44939689  1
  O  O650  1  0.17627836  0.14535836  0.70028608  1
  O  O651  1  0.17733199  0.14576936  0.94995796  1
  O  O652  1  0.17613260  0.47926725  0.20137284  1
  O  O653  1  0.17781719  0.47881354  0.45038921  1
  O  O654  1  0.17841584  0.48041684  0.69874363  1
  O  O655  1  0.17697709  0.48116638  0.94939283  1
  O  O656  1  0.17704154  0.81237491  0.19952796  1
  O  O657  1  0.17681858  0.81356715  0.45049825  1
  O  O658  1  0.17573670  0.81290812  0.70138750  1
  O  O659  1  0.17889146  0.81420307  0.94900974  1
  O  O660  1  0.67720939  0.14564763  0.19957933  1
  O  O661  1  0.67707850  0.14584414  0.44890717  1
  O  O662  1  0.67610508  0.14902085  0.69873834  1
  O  O663  1  0.67631242  0.14575115  0.95027584  1
  O  O664  1  0.67570047  0.47871300  0.19837954  1
  O  O665  1  0.67698698  0.48099246  0.44892695  1
  O  O666  1  0.67673358  0.47999743  0.69995505  1
  O  O667  1  0.67635683  0.47921679  0.94966212  1
  O  O668  1  0.67819925  0.81372066  0.19735482  1
  O  O669  1  0.67554618  0.81375260  0.44883232  1
  O  O670  1  0.67622487  0.81575024  0.69919840  1
  O  O671  1  0.67640897  0.81270519  0.95056474  1
