# generated using pymatgen
data_Na2MnFe(PO4)2
_symmetry_space_group_name_H-M   'P 1'
_cell_length_a   22.33970240
_cell_length_b   20.08911321
_cell_length_c   19.45325899
_cell_angle_alpha   89.97643796
_cell_angle_beta   89.97127890
_cell_angle_gamma   90.00029167
_symmetry_Int_Tables_number   1
_chemical_formula_structural   Na2MnFe(PO4)2
_chemical_formula_sum   'Na96 Mn48 Fe48 P96 O384'
_cell_volume   8730.32531383
_cell_formula_units_Z   48
loop_
 _symmetry_equiv_pos_site_id
 _symmetry_equiv_pos_as_xyz
  1  'x, y, z'
loop_
 _atom_site_type_symbol
 _atom_site_label
 _atom_site_symmetry_multiplicity
 _atom_site_fract_x
 _atom_site_fract_y
 _atom_site_fract_z
 _atom_site_occupancy
  Na  Na0  1  0.14033740  0.25013076  0.24269516  1
  Na  Na1  1  0.14019503  0.25012576  0.49483620  1
  Na  Na2  1  0.14036960  0.24820289  0.74505113  1
  Na  Na3  1  0.14006682  0.24989954  0.99295364  1
  Na  Na4  1  0.14042122  0.58311990  0.24335479  1
  Na  Na5  1  0.14038488  0.58270197  0.49361723  1
  Na  Na6  1  0.14011057  0.58152501  0.74494845  1
  Na  Na7  1  0.14063504  0.58369041  0.99247071  1
  Na  Na8  1  0.13991837  0.91652553  0.24247732  1
  Na  Na9  1  0.13969771  0.91693062  0.49327648  1
  Na  Na10  1  0.14004563  0.91618239  0.74423919  1
  Na  Na11  1  0.14032165  0.91765478  0.99358842  1
  Na  Na12  1  0.64060664  0.25036958  0.24319056  1
  Na  Na13  1  0.64109796  0.25070239  0.49369675  1
  Na  Na14  1  0.64112658  0.25017938  0.74385491  1
  Na  Na15  1  0.64049465  0.25215365  0.99384321  1
  Na  Na16  1  0.64111285  0.58245182  0.24308820  1
  Na  Na17  1  0.64002702  0.58386832  0.49293748  1
  Na  Na18  1  0.64060766  0.58377256  0.74504932  1
  Na  Na19  1  0.64087435  0.58382591  0.99485479  1
  Na  Na20  1  0.64031320  0.91498117  0.24340303  1
  Na  Na21  1  0.64036404  0.91841257  0.49371075  1
  Na  Na22  1  0.64029590  0.91798672  0.74286169  1
  Na  Na23  1  0.64087720  0.91675081  0.99379564  1
  Na  Na24  1  0.35951137  0.08382716  0.00543281  1
  Na  Na25  1  0.35913699  0.08328872  0.25598788  1
  Na  Na26  1  0.35931815  0.08343705  0.50604041  1
  Na  Na27  1  0.35960135  0.08236438  0.75601598  1
  Na  Na28  1  0.35938118  0.41656716  0.00640023  1
  Na  Na29  1  0.36016034  0.41689736  0.25628148  1
  Na  Na30  1  0.36009614  0.41665690  0.50558480  1
  Na  Na31  1  0.35913037  0.41596004  0.75689664  1
  Na  Na32  1  0.35948718  0.75077824  0.00584024  1
  Na  Na33  1  0.35961567  0.75002768  0.25584092  1
  Na  Na34  1  0.35923447  0.75117907  0.50595191  1
  Na  Na35  1  0.35918284  0.74947653  0.75699594  1
  Na  Na36  1  0.85974274  0.08369773  0.00690795  1
  Na  Na37  1  0.85923836  0.08121263  0.25546507  1
  Na  Na38  1  0.85932571  0.08351447  0.50623303  1
  Na  Na39  1  0.86033598  0.08323847  0.75695840  1
  Na  Na40  1  0.85975018  0.41739203  0.00744282  1
  Na  Na41  1  0.86039953  0.41553561  0.25650992  1
  Na  Na42  1  0.85965704  0.41652034  0.50579661  1
  Na  Na43  1  0.85917564  0.41729629  0.75730407  1
  Na  Na44  1  0.85916464  0.74924065  0.00780101  1
  Na  Na45  1  0.85976413  0.74927130  0.25639545  1
  Na  Na46  1  0.85966856  0.75116470  0.50621448  1
  Na  Na47  1  0.85904557  0.74912953  0.75667986  1
  Na  Na48  1  0.10961540  0.08385783  0.11771621  1
  Na  Na49  1  0.10933514  0.08300913  0.36753878  1
  Na  Na50  1  0.10967167  0.08193312  0.61959239  1
  Na  Na51  1  0.10961249  0.08302105  0.86940865  1
  Na  Na52  1  0.10939031  0.41635250  0.11839772  1
  Na  Na53  1  0.10970725  0.41596730  0.36854081  1
  Na  Na54  1  0.10986168  0.41576346  0.62005133  1
  Na  Na55  1  0.10989380  0.41471372  0.86813749  1
  Na  Na56  1  0.10964210  0.75074050  0.11782867  1
  Na  Na57  1  0.10941284  0.75099551  0.36789983  1
  Na  Na58  1  0.10931802  0.74966714  0.61956893  1
  Na  Na59  1  0.10960579  0.74893032  0.86866370  1
  Na  Na60  1  0.60962505  0.08427481  0.11856543  1
  Na  Na61  1  0.60956033  0.08325559  0.36872805  1
  Na  Na62  1  0.61067532  0.08320074  0.61834815  1
  Na  Na63  1  0.61007816  0.08344624  0.86742933  1
  Na  Na64  1  0.61043937  0.41803620  0.11897729  1
  Na  Na65  1  0.61015173  0.41749482  0.36820505  1
  Na  Na66  1  0.60991771  0.41860441  0.61841731  1
  Na  Na67  1  0.61023780  0.41740713  0.86992336  1
  Na  Na68  1  0.61051380  0.75068010  0.11860718  1
  Na  Na69  1  0.60982414  0.74916238  0.36851354  1
  Na  Na70  1  0.60894076  0.75089230  0.61877634  1
  Na  Na71  1  0.60994777  0.75009819  0.86924868  1
  Na  Na72  1  0.39032415  0.25153173  0.13097945  1
  Na  Na73  1  0.39043878  0.25146863  0.38104033  1
  Na  Na74  1  0.39036161  0.24981522  0.63134792  1
  Na  Na75  1  0.39014352  0.24985769  0.88131603  1
  Na  Na76  1  0.39021528  0.58477608  0.13093301  1
  Na  Na77  1  0.39100214  0.58327904  0.38048207  1
  Na  Na78  1  0.39035478  0.58433015  0.63088903  1
  Na  Na79  1  0.38950371  0.58302696  0.88253454  1
  Na  Na80  1  0.39024186  0.91711049  0.13097850  1
  Na  Na81  1  0.38996594  0.91544565  0.38100307  1
  Na  Na82  1  0.39009834  0.91747426  0.63116931  1
  Na  Na83  1  0.39042468  0.91565874  0.88030723  1
  Na  Na84  1  0.89045509  0.25028855  0.13145282  1
  Na  Na85  1  0.89019606  0.24947113  0.38061788  1
  Na  Na86  1  0.89011045  0.24886497  0.63249550  1
  Na  Na87  1  0.89037173  0.24825876  0.88218796  1
  Na  Na88  1  0.89041708  0.58325914  0.13240307  1
  Na  Na89  1  0.89051635  0.58285857  0.38097996  1
  Na  Na90  1  0.88981060  0.58250128  0.63163981  1
  Na  Na91  1  0.88976490  0.58187338  0.88273040  1
  Na  Na92  1  0.89011267  0.91682038  0.13176091  1
  Na  Na93  1  0.88983050  0.91611735  0.38035709  1
  Na  Na94  1  0.89026341  0.91726489  0.63112070  1
  Na  Na95  1  0.89050947  0.91709241  0.88206161  1
  Mn  Mn96  1  0.50076217  0.16635702  0.75004030  1
  Mn  Mn97  1  0.24992357  0.83320888  0.12419997  1
  Mn  Mn98  1  0.49994191  0.16786711  -0.00069572  1
  Mn  Mn99  1  0.75035358  0.83297870  0.87509412  1
  Mn  Mn100  1  -0.00093882  0.66511669  0.74958201  1
  Mn  Mn101  1  0.75023985  0.33298027  0.37530850  1
  Mn  Mn102  1  0.25045157  0.49925858  0.37451025  1
  Mn  Mn103  1  0.24948445  0.16742723  0.37540422  1
  Mn  Mn104  1  0.50007977  0.83355863  0.50011958  1
  Mn  Mn105  1  -0.00057742  0.33303480  0.50077327  1
  Mn  Mn106  1  0.49994225  0.50032858  0.00063642  1
  Mn  Mn107  1  0.50016579  0.66744268  0.74995916  1
  Mn  Mn108  1  0.25032545  0.49841441  0.62478275  1
  Mn  Mn109  1  0.50039003  0.00002137  -0.00035352  1
  Mn  Mn110  1  -0.00084130  -0.00109694  0.49953156  1
  Mn  Mn111  1  0.75050319  0.33429373  0.87469795  1
  Mn  Mn112  1  0.75017463  0.33395043  0.62504706  1
  Mn  Mn113  1  0.74989491  0.16673620  0.12487106  1
  Mn  Mn114  1  0.49948494  0.16790495  0.24961302  1
  Mn  Mn115  1  0.24888331  0.83377210  0.62557247  1
  Mn  Mn116  1  0.49959397  0.50065965  0.75037039  1
  Mn  Mn117  1  0.49993474  -0.00032952  0.24952090  1
  Mn  Mn118  1  0.74928589  0.83449669  0.62576279  1
  Mn  Mn119  1  0.00028581  0.66734048  0.25045238  1
  Mn  Mn120  1  0.25003870  0.66730393  0.37460672  1
  Mn  Mn121  1  0.50060601  0.66699412  0.25027823  1
  Mn  Mn122  1  0.25000131  0.00000133  0.87527246  1
  Mn  Mn123  1  0.00011725  0.49924194  0.00070911  1
  Mn  Mn124  1  0.24981220  0.50067879  0.12455710  1
  Mn  Mn125  1  0.50097995  0.83319468  -0.00035668  1
  Mn  Mn126  1  0.00008288  0.16597541  0.49972335  1
  Mn  Mn127  1  -0.00029605  0.33213984  0.75054621  1
  Mn  Mn128  1  0.50066489  0.33458243  0.50009737  1
  Mn  Mn129  1  -0.00025019  0.16657317  0.24939889  1
  Mn  Mn130  1  0.74964248  -0.00040576  0.37478185  1
  Mn  Mn131  1  0.74933387  0.66639492  0.62517805  1
  Mn  Mn132  1  0.50050007  0.16616963  0.50007769  1
  Mn  Mn133  1  -0.00010991  0.83352950  -0.00038913  1
  Mn  Mn134  1  0.24960056  0.33291474  0.12422553  1
  Mn  Mn135  1  0.50008377  0.33376247  0.74947378  1
  Mn  Mn136  1  0.25011065  0.16641918  0.62493807  1
  Mn  Mn137  1  0.24950007  0.66627274  0.62534757  1
  Mn  Mn138  1  -0.00105037  0.83311335  0.75049913  1
  Mn  Mn139  1  0.24926194  -0.00026912  0.37461367  1
  Mn  Mn140  1  0.75039971  0.00088577  0.87507169  1
  Mn  Mn141  1  0.00044871  0.66699289  0.50030331  1
  Mn  Mn142  1  0.75033621  0.66619848  0.37505794  1
  Mn  Mn143  1  -0.00020659  0.49959487  0.49984522  1
  Fe  Fe144  1  0.74968685  0.83285029  0.37456455  1
  Fe  Fe145  1  0.49995674  -0.00004218  0.74939527  1
  Fe  Fe146  1  0.75101046  0.49974445  0.12535027  1
  Fe  Fe147  1  -0.00001434  0.00003359  0.00037256  1
  Fe  Fe148  1  0.00031591  0.33314074  0.24974548  1
  Fe  Fe149  1  0.75074575  0.00114037  0.62459955  1
  Fe  Fe150  1  -0.00035494  0.33280429  -0.00006608  1
  Fe  Fe151  1  0.75077865  0.16695095  0.62478320  1
  Fe  Fe152  1  -0.00023878  -0.00016175  0.24938414  1
  Fe  Fe153  1  0.24992954  0.33305382  0.37462416  1
  Fe  Fe154  1  -0.00032893  0.83391485  0.24911139  1
  Fe  Fe155  1  0.24974354  0.16639392  0.87483097  1
  Fe  Fe156  1  0.24994741  0.83349188  0.87513122  1
  Fe  Fe157  1  0.25020478  0.33249716  0.62570746  1
  Fe  Fe158  1  0.74994944  0.16630747  0.37453792  1
  Fe  Fe159  1  0.50053042  0.33469226  0.25038634  1
  Fe  Fe160  1  0.74995066  0.66636712  0.87634486  1
  Fe  Fe161  1  0.75019869  0.83275972  0.12521765  1
  Fe  Fe162  1  0.74992656  0.16699956  0.87486021  1
  Fe  Fe163  1  0.24979134  0.66718372  0.12433831  1
  Fe  Fe164  1  0.25006712  0.66663201  0.87517589  1
  Fe  Fe165  1  0.24942424  0.83353806  0.37435228  1
  Fe  Fe166  1  -0.00006664  0.49885757  0.75090577  1
  Fe  Fe167  1  0.25041521  0.33245384  0.87534458  1
  Fe  Fe168  1  0.75033791  0.49955163  0.37454877  1
  Fe  Fe169  1  -0.00011159  0.83336477  0.49969334  1
  Fe  Fe170  1  0.24967752  0.49936594  0.87461155  1
  Fe  Fe171  1  0.00047081  0.50002044  0.24973598  1
  Fe  Fe172  1  0.25012034  0.00034600  0.12430677  1
  Fe  Fe173  1  0.00051443  -0.00033991  0.75055473  1
  Fe  Fe174  1  0.74998681  0.50063168  0.62562264  1
  Fe  Fe175  1  0.25049483  0.16691464  0.12465540  1
  Fe  Fe176  1  0.49957960  0.83373422  0.74948039  1
  Fe  Fe177  1  0.00002184  0.16548794  0.75147659  1
  Fe  Fe178  1  0.74993908  0.50088090  0.87630665  1
  Fe  Fe179  1  0.50071616  0.50068610  0.24964021  1
  Fe  Fe180  1  0.74908585  -0.00032035  0.12507855  1
  Fe  Fe181  1  0.75033146  0.66602610  0.12567436  1
  Fe  Fe182  1  0.50020089  0.33429812  0.00038935  1
  Fe  Fe183  1  0.49938323  0.66721300  0.49997627  1
  Fe  Fe184  1  0.49986878  0.66721340  0.00035236  1
  Fe  Fe185  1  -0.00010446  0.66627104  0.00052908  1
  Fe  Fe186  1  0.50012623  0.83303351  0.25047699  1
  Fe  Fe187  1  0.24977199  -0.00025840  0.62513507  1
  Fe  Fe188  1  -0.00025983  0.16606262  0.00059118  1
  Fe  Fe189  1  0.75050038  0.33340158  0.12479601  1
  Fe  Fe190  1  0.49973663  -0.00034274  0.49972204  1
  Fe  Fe191  1  0.49986028  0.50088739  0.49912392  1
  P  P192  1  0.04110588  0.25027809  0.10170887  1
  P  P193  1  0.04235376  0.25064913  0.35192683  1
  P  P194  1  0.04225298  0.24875289  0.60412336  1
  P  P195  1  0.04171761  0.24786910  0.85384286  1
  P  P196  1  0.04232915  0.58425263  0.10292835  1
  P  P197  1  0.04262134  0.58227881  0.35224830  1
  P  P198  1  0.04288746  0.58239501  0.60361843  1
  P  P199  1  0.04161851  0.58140194  0.85325058  1
  P  P200  1  0.04199196  0.91796991  0.10276625  1
  P  P201  1  0.04114337  0.91640031  0.35113149  1
  P  P202  1  0.04203176  0.91529172  0.60267553  1
  P  P203  1  0.04196396  0.91765075  0.85308748  1
  P  P204  1  0.54227845  0.25257260  0.10280302  1
  P  P205  1  0.54260986  0.25161350  0.35226067  1
  P  P206  1  0.54336934  0.25015972  0.60289772  1
  P  P207  1  0.54312769  0.25098797  0.85339206  1
  P  P208  1  0.54227514  0.58506717  0.10296383  1
  P  P209  1  0.54284593  0.58204685  0.35278174  1
  P  P210  1  0.54129872  0.58408374  0.60122834  1
  P  P211  1  0.54241349  0.58398076  0.85401307  1
  P  P212  1  0.54313946  0.91652988  0.10340532  1
  P  P213  1  0.54227181  0.91543259  0.35268297  1
  P  P214  1  0.54207733  0.91830816  0.60299651  1
  P  P215  1  0.54193945  0.91649964  0.85096061  1
  P  P216  1  0.45710643  0.08415806  0.14650831  1
  P  P217  1  0.45757557  0.08194645  0.39737091  1
  P  P218  1  0.45814209  0.08206436  0.64693320  1
  P  P219  1  0.45761531  0.08298670  0.89598987  1
  P  P220  1  0.45875041  0.41737483  0.14821445  1
  P  P221  1  0.45839983  0.41833957  0.39649052  1
  P  P222  1  0.45699704  0.41796908  0.64631245  1
  P  P223  1  0.45739650  0.41587676  0.89800912  1
  P  P224  1  0.45809664  0.75127597  0.14744421  1
  P  P225  1  0.45783549  0.74914628  0.39728064  1
  P  P226  1  0.45714004  0.75157328  0.64724245  1
  P  P227  1  0.45770898  0.74917358  0.89727855  1
  P  P228  1  0.95781265  0.08207270  0.14664712  1
  P  P229  1  0.95700395  0.08258028  0.39600229  1
  P  P230  1  0.95888081  0.08264236  0.64910937  1
  P  P231  1  0.95880051  0.08276844  0.89846749  1
  P  P232  1  0.95898144  0.41641582  0.14816236  1
  P  P233  1  0.95748085  0.41607569  0.39582875  1
  P  P234  1  0.95720723  0.41712415  0.64840766  1
  P  P235  1  0.95773790  0.41492302  0.89779558  1
  P  P236  1  0.95795458  0.75116511  0.14724083  1
  P  P237  1  0.95788738  0.75149963  0.39710974  1
  P  P238  1  0.95642561  0.74996574  0.64670094  1
  P  P239  1  0.95730233  0.74817809  0.89805601  1
  P  P240  1  0.20846728  0.08358555  0.22597189  1
  P  P241  1  0.20663337  0.08322308  0.47824414  1
  P  P242  1  0.20797985  0.08200848  0.72786344  1
  P  P243  1  0.20801697  0.08480867  0.97814377  1
  P  P244  1  0.20737906  0.41627433  0.22778759  1
  P  P245  1  0.20783512  0.41458246  0.47757252  1
  P  P246  1  0.20801075  0.41429134  0.72862244  1
  P  P247  1  0.20852840  0.41628829  0.97620256  1
  P  P248  1  0.20743657  0.74916237  0.22702740  1
  P  P249  1  0.20712162  0.75162030  0.47714828  1
  P  P250  1  0.20693442  0.74938309  0.72944301  1
  P  P251  1  0.20834916  0.75022384  0.97658403  1
  P  P252  1  0.70740159  0.08198593  0.22744038  1
  P  P253  1  0.70807428  0.08490415  0.47775436  1
  P  P254  1  0.70911923  0.08412246  0.72665840  1
  P  P255  1  0.70762297  0.08506524  0.97755887  1
  P  P256  1  0.70948189  0.41657416  0.22677121  1
  P  P257  1  0.70809233  0.41833021  0.47767558  1
  P  P258  1  0.70779864  0.41858048  0.72807780  1
  P  P259  1  0.70854714  0.41836976  0.97857256  1
  P  P260  1  0.70901083  0.74951939  0.22703979  1
  P  P261  1  0.70767055  0.75140057  0.47734661  1
  P  P262  1  0.70679386  0.74973666  0.72881464  1
  P  P263  1  0.70830560  0.74890026  0.97886749  1
  P  P264  1  0.29206267  0.24876816  0.02141777  1
  P  P265  1  0.29224836  0.25071687  0.27200130  1
  P  P266  1  0.29247798  0.25145327  0.52250396  1
  P  P267  1  0.29166796  0.24949694  0.77323821  1
  P  P268  1  0.29177811  0.58539122  0.02146694  1
  P  P269  1  0.29293611  0.58374923  0.27113532  1
  P  P270  1  0.29272709  0.58317455  0.52184819  1
  P  P271  1  0.29125986  0.58290646  0.77370268  1
  P  P272  1  0.29223739  0.91793138  0.02203388  1
  P  P273  1  0.29183979  0.91570746  0.27168919  1
  P  P274  1  0.29170129  0.91777108  0.52230504  1
  P  P275  1  0.29192988  0.91554066  0.77248416  1
  P  P276  1  0.79228681  0.25147735  0.02223351  1
  P  P277  1  0.79207101  0.24864247  0.27211907  1
  P  P278  1  0.79263859  0.24898790  0.52236098  1
  P  P279  1  0.79245081  0.24877085  0.77230521  1
  P  P280  1  0.79164486  0.58317518  0.02359746  1
  P  P281  1  0.79239567  0.58150781  0.27192011  1
  P  P282  1  0.79204572  0.58210031  0.52232527  1
  P  P283  1  0.79144209  0.58335795  0.77409780  1
  P  P284  1  0.79139689  0.91671817  0.02377052  1
  P  P285  1  0.79150500  0.91448613  0.27163305  1
  P  P286  1  0.79203860  0.91819439  0.52239106  1
  P  P287  1  0.79301108  0.91736710  0.77184480  1
  O  O288  1  0.03632051  0.25055807  0.18168251  1
  O  O289  1  0.03735965  0.25024243  0.43189851  1
  O  O290  1  0.03690287  0.24799117  0.68405942  1
  O  O291  1  0.03629907  0.24829953  0.93367030  1
  O  O292  1  0.03710991  0.58376889  0.18285580  1
  O  O293  1  0.03751167  0.58260176  0.43219497  1
  O  O294  1  0.03764881  0.58170673  0.68358768  1
  O  O295  1  0.03651385  0.58213285  0.93320220  1
  O  O296  1  0.03653995  0.91767960  0.18262360  1
  O  O297  1  0.03638337  0.91572461  0.43113329  1
  O  O298  1  0.03686260  0.91604055  0.68258683  1
  O  O299  1  0.03667770  0.91776356  0.93299975  1
  O  O300  1  0.53694952  0.25272117  0.18274585  1
  O  O301  1  0.53767501  0.25108530  0.43221182  1
  O  O302  1  0.53834200  0.24998271  0.68285467  1
  O  O303  1  0.53780148  0.25144348  0.93335859  1
  O  O304  1  0.53724663  0.58444504  0.18289262  1
  O  O305  1  0.53745247  0.58198678  0.43259427  1
  O  O306  1  0.53615678  0.58427712  0.68121381  1
  O  O307  1  0.53717709  0.58428867  0.93392685  1
  O  O308  1  0.53799120  0.91583508  0.18332063  1
  O  O309  1  0.53692712  0.91615653  0.43260697  1
  O  O310  1  0.53660535  0.91812405  0.68285789  1
  O  O311  1  0.53726117  0.91660570  0.93099428  1
  O  O312  1  0.46236581  0.08424112  0.06656862  1
  O  O313  1  0.46280060  0.08243747  0.31741461  1
  O  O314  1  0.46318248  0.08189923  0.56696562  1
  O  O315  1  0.46294547  0.08246199  0.81602200  1
  O  O316  1  0.46377121  0.41677553  0.06822950  1
  O  O317  1  0.46398821  0.41795879  0.31661343  1
  O  O318  1  0.46214938  0.41870929  0.56635369  1
  O  O319  1  0.46213863  0.41627045  0.81804859  1
  O  O320  1  0.46343654  0.75056737  0.06753373  1
  O  O321  1  0.46322821  0.74975019  0.31739495  1
  O  O322  1  0.46222257  0.75092574  0.56731426  1
  O  O323  1  0.46269845  0.74990197  0.81737482  1
  O  O324  1  0.96307064  0.08220686  0.06678079  1
  O  O325  1  0.96217995  0.08236679  0.31608385  1
  O  O326  1  0.96356414  0.08263628  0.56910226  1
  O  O327  1  0.96401056  0.08303533  0.81858056  1
  O  O328  1  0.96395379  0.41587807  0.06818330  1
  O  O329  1  0.96308377  0.41613039  0.31593302  1
  O  O330  1  0.96216726  0.41697166  0.56841581  1
  O  O331  1  0.96293238  0.41565405  0.81791148  1
  O  O332  1  0.96310355  0.75039609  0.06734037  1
  O  O333  1  0.96306764  0.75161185  0.31713034  1
  O  O334  1  0.96179531  0.75046574  0.56676229  1
  O  O335  1  0.96214433  0.74820324  0.81809546  1
  O  O336  1  0.21366535  0.08461896  0.05795712  1
  O  O337  1  0.21284857  0.08342013  0.30599648  1
  O  O338  1  0.21188237  0.08271604  0.55815676  1
  O  O339  1  0.21323911  0.08258809  0.80776133  1
  O  O340  1  0.21318476  0.41686102  0.05617262  1
  O  O341  1  0.21247128  0.41572904  0.30769732  1
  O  O342  1  0.21313636  0.41447261  0.55754402  1
  O  O343  1  0.21352443  0.41457408  0.80847719  1
  O  O344  1  0.21341328  0.74998021  0.05655844  1
  O  O345  1  0.21246033  0.75000713  0.30694081  1
  O  O346  1  0.21190312  0.75143589  0.55712476  1
  O  O347  1  0.21261891  0.74926509  0.80929937  1
  O  O348  1  0.71247027  0.08427330  0.05744821  1
  O  O349  1  0.71273537  0.08238217  0.30730124  1
  O  O350  1  0.71377217  0.08477816  0.55760311  1
  O  O351  1  0.71397875  0.08451607  0.80663830  1
  O  O352  1  0.71416733  0.41775482  0.05837997  1
  O  O353  1  0.71426607  0.41642785  0.30673709  1
  O  O354  1  0.71339113  0.41844986  0.55760518  1
  O  O355  1  0.71314685  0.41855098  0.80800688  1
  O  O356  1  0.71393539  0.74952487  0.05871409  1
  O  O357  1  0.71373038  0.74964745  0.30701747  1
  O  O358  1  0.71238018  0.75120452  0.55730713  1
  O  O359  1  0.71212121  0.74913930  0.80874414  1
  O  O360  1  0.28707648  0.24989728  0.19206002  1
  O  O361  1  0.28725044  0.25152696  0.44257632  1
  O  O362  1  0.28651456  0.24996196  0.69329464  1
  O  O363  1  0.28670062  0.24899465  0.94154984  1
  O  O364  1  0.28772654  0.58432171  0.19118891  1
  O  O365  1  0.28773417  0.58326842  0.44190976  1
  O  O366  1  0.28660958  0.58239033  0.69371360  1
  O  O367  1  0.28635999  0.58529048  0.94162786  1
  O  O368  1  0.28686990  0.91634121  0.19176083  1
  O  O369  1  0.28659218  0.91710236  0.44237061  1
  O  O370  1  0.28654270  0.91625862  0.69262706  1
  O  O371  1  0.28714534  0.91728715  0.94214019  1
  O  O372  1  0.78676712  0.24956328  0.19222031  1
  O  O373  1  0.78725068  0.24892412  0.44243070  1
  O  O374  1  0.78723422  0.24860670  0.69235965  1
  O  O375  1  0.78735820  0.25121199  0.94232596  1
  O  O376  1  0.78704866  0.58177699  0.19206580  1
  O  O377  1  0.78676148  0.58195396  0.44239782  1
  O  O378  1  0.78607681  0.58306298  0.69416458  1
  O  O379  1  0.78654803  0.58364851  0.94371677  1
  O  O380  1  0.78594548  0.91436229  0.19182291  1
  O  O381  1  0.78658645  0.91761111  0.44252368  1
  O  O382  1  0.78791529  0.91811503  0.69194025  1
  O  O383  1  0.78651133  0.91691118  0.94377630  1
  O  O384  1  0.22785956  0.24821728  0.05746124  1
  O  O385  1  0.22788644  0.25152110  0.30767214  1
  O  O386  1  0.22819251  0.25119386  0.55829064  1
  O  O387  1  0.22756366  0.24963026  0.80952811  1
  O  O388  1  0.22762565  0.58541461  0.05770265  1
  O  O389  1  0.22861432  0.58336921  0.30651804  1
  O  O390  1  0.22829396  0.58260785  0.55697595  1
  O  O391  1  0.22704371  0.58337233  0.80935932  1
  O  O392  1  0.22795218  0.91800934  0.05766419  1
  O  O393  1  0.22745153  0.91529902  0.30726090  1
  O  O394  1  0.22736426  0.91836995  0.55799260  1
  O  O395  1  0.22772541  0.91522310  0.80842574  1
  O  O396  1  0.72800076  0.25159898  0.05788435  1
  O  O397  1  0.72788988  0.24852160  0.30811443  1
  O  O398  1  0.72844307  0.24910075  0.55832237  1
  O  O399  1  0.72825848  0.24918709  0.80826122  1
  O  O400  1  0.72766067  0.58231170  0.05997829  1
  O  O401  1  0.72827447  0.58164967  0.30813970  1
  O  O402  1  0.72773901  0.58170066  0.55820628  1
  O  O403  1  0.72737833  0.58368869  0.81056906  1
  O  O404  1  0.72718650  0.91656503  0.05956887  1
  O  O405  1  0.72744924  0.91466715  0.30805572  1
  O  O406  1  0.72786482  0.91930885  0.55847278  1
  O  O407  1  0.72862688  0.91701886  0.80711134  1
  O  O408  1  0.27279847  0.08387180  0.19049327  1
  O  O409  1  0.27100122  0.08338851  0.44291783  1
  O  O410  1  0.27213523  0.08165326  0.69179400  1
  O  O411  1  0.27204142  0.08500768  0.94168044  1
  O  O412  1  0.27171112  0.41653320  0.19242004  1
  O  O413  1  0.27211979  0.41450812  0.44167758  1
  O  O414  1  0.27214363  0.41397294  0.69228968  1
  O  O415  1  0.27282035  0.41585724  0.94075696  1
  O  O416  1  0.27178150  0.74868806  0.19139573  1
  O  O417  1  0.27159456  0.75193327  0.44188069  1
  O  O418  1  0.27107290  0.74980346  0.69340984  1
  O  O419  1  0.27251056  0.75052533  0.94054896  1
  O  O420  1  0.77159835  0.08157670  0.19144261  1
  O  O421  1  0.77212578  0.08467322  0.44133384  1
  O  O422  1  0.77334013  0.08364003  0.69070207  1
  O  O423  1  0.77209645  0.08544239  0.94221279  1
  O  O424  1  0.77367238  0.41676368  0.19086275  1
  O  O425  1  0.77230715  0.41799830  0.44174309  1
  O  O426  1  0.77203926  0.41870672  0.69214547  1
  O  O427  1  0.77257441  0.41879607  0.94209307  1
  O  O428  1  0.77312651  0.74992160  0.19109775  1
  O  O429  1  0.77205573  0.75138375  0.44194652  1
  O  O430  1  0.77107291  0.75002422  0.69332584  1
  O  O431  1  0.77233853  0.74844054  0.94235540  1
  O  O432  1  0.02196293  0.08208613  0.18267918  1
  O  O433  1  0.02135245  0.08231553  0.43128410  1
  O  O434  1  0.02309046  0.08265544  0.68488013  1
  O  O435  1  0.02280553  0.08224451  0.93479228  1
  O  O436  1  0.02310841  0.41673052  0.18407767  1
  O  O437  1  0.02162816  0.41583422  0.43176409  1
  O  O438  1  0.02160046  0.41710920  0.68376639  1
  O  O439  1  0.02204227  0.41446415  0.93345724  1
  O  O440  1  0.02219861  0.75148850  0.18291833  1
  O  O441  1  0.02215028  0.75161165  0.43289473  1
  O  O442  1  0.02070809  0.74958722  0.68214587  1
  O  O443  1  0.02173727  0.74837105  0.93324842  1
  O  O444  1  0.52146733  0.08404750  0.18165307  1
  O  O445  1  0.52191486  0.08142551  0.43290494  1
  O  O446  1  0.52246059  0.08196811  0.68251358  1
  O  O447  1  0.52195247  0.08362425  0.93127574  1
  O  O448  1  0.52296007  0.41748629  0.18415674  1
  O  O449  1  0.52248209  0.41890116  0.43276077  1
  O  O450  1  0.52147080  0.41779655  0.68138428  1
  O  O451  1  0.52185945  0.41593474  0.93315753  1
  O  O452  1  0.52236690  0.75189684  0.18324812  1
  O  O453  1  0.52203371  0.74878670  0.43313356  1
  O  O454  1  0.52154089  0.75202012  0.68267897  1
  O  O455  1  0.52208925  0.74822665  0.93282120  1
  O  O456  1  0.47804880  0.25257976  0.06692528  1
  O  O457  1  0.47820148  0.25238064  0.31699766  1
  O  O458  1  0.47895043  0.25035377  0.56793890  1
  O  O459  1  0.47875760  0.25030016  0.81816240  1
  O  O460  1  0.47801910  0.58535379  0.06723477  1
  O  O461  1  0.47867162  0.58214544  0.31673906  1
  O  O462  1  0.47711813  0.58412215  0.56529815  1
  O  O463  1  0.47805153  0.58411792  0.81873448  1
  O  O464  1  0.47877882  0.91640818  0.06818299  1
  O  O465  1  0.47800052  0.91498944  0.31690639  1
  O  O466  1  0.47792254  0.91833051  0.56681874  1
  O  O467  1  0.47762762  0.91646703  0.81541577  1
  O  O468  1  0.97692623  0.25075638  0.06592424  1
  O  O469  1  0.97798071  0.25072791  0.31658193  1
  O  O470  1  0.97794775  0.24891820  0.56862606  1
  O  O471  1  0.97762755  0.24771327  0.81764563  1
  O  O472  1  0.97799701  0.58414490  0.06735392  1
  O  O473  1  0.97832102  0.58220642  0.31674782  1
  O  O474  1  0.97849718  0.58314339  0.56843848  1
  O  O475  1  0.97734641  0.58070106  0.81752942  1
  O  O476  1  0.97782110  0.91801154  0.06672814  1
  O  O477  1  0.97692731  0.91692174  0.31533397  1
  O  O478  1  0.97770983  0.91452057  0.56690156  1
  O  O479  1  0.97771560  0.91821187  0.81736241  1
  O  O480  1  0.07268089  0.31335952  0.07314023  1
  O  O481  1  0.07303973  0.31417362  0.32332163  1
  O  O482  1  0.07301821  0.31270990  0.57648162  1
  O  O483  1  0.07300009  0.31132951  0.82562322  1
  O  O484  1  0.07261161  0.64810335  0.07433113  1
  O  O485  1  0.07379509  0.64600110  0.32470095  1
  O  O486  1  0.07409225  0.64603227  0.57570943  1
  O  O487  1  0.07260882  0.64487972  0.82492818  1
  O  O488  1  0.07299336  0.98138549  0.07418008  1
  O  O489  1  0.07205771  0.98025228  0.32324138  1
  O  O490  1  0.07276553  0.97892081  0.57416837  1
  O  O491  1  0.07333463  0.98072920  0.82433012  1
  O  O492  1  0.57326551  0.31593743  0.07414905  1
  O  O493  1  0.57374184  0.31507378  0.32408701  1
  O  O494  1  0.57453042  0.31372172  0.57506408  1
  O  O495  1  0.57414914  0.31437823  0.82491544  1
  O  O496  1  0.57289673  0.64875145  0.07462216  1
  O  O497  1  0.57414698  0.64571766  0.32497929  1
  O  O498  1  0.57189819  0.64801314  0.57310972  1
  O  O499  1  0.57389676  0.64698155  0.82532793  1
  O  O500  1  0.57381963  0.98040715  0.07543929  1
  O  O501  1  0.57352246  0.97884582  0.32449439  1
  O  O502  1  0.57297523  0.98161364  0.57396868  1
  O  O503  1  0.57272489  0.98023810  0.82280202  1
  O  O504  1  0.42593081  0.02069677  0.17449046  1
  O  O505  1  0.42658016  0.01842023  0.42548905  1
  O  O506  1  0.42703363  0.01891297  0.67588072  1
  O  O507  1  0.42660444  0.01955502  0.92442118  1
  O  O508  1  0.42765916  0.35404234  0.17691757  1
  O  O509  1  0.42745339  0.35464580  0.42473096  1
  O  O510  1  0.42625617  0.35406351  0.67412647  1
  O  O511  1  0.42688105  0.35224795  0.92654373  1
  O  O512  1  0.42706934  0.68774551  0.17564665  1
  O  O513  1  0.42714525  0.68538639  0.42549185  1
  O  O514  1  0.42605754  0.68809962  0.67555042  1
  O  O515  1  0.42667642  0.68582530  0.92591145  1
  O  O516  1  0.92698389  0.01865373  0.17553925  1
  O  O517  1  0.92554692  0.01941873  0.42449017  1
  O  O518  1  0.92828537  0.01878371  0.67724535  1
  O  O519  1  0.92721706  0.01947064  0.92669228  1
  O  O520  1  0.92811733  0.35284193  0.17666192  1
  O  O521  1  0.92606902  0.35281522  0.42441883  1
  O  O522  1  0.92613860  0.35339450  0.67602683  1
  O  O523  1  0.92686566  0.35125337  0.92590453  1
  O  O524  1  0.92670426  0.68785024  0.17568575  1
  O  O525  1  0.92706856  0.68750184  0.42468842  1
  O  O526  1  0.92525802  0.68629003  0.67454730  1
  O  O527  1  0.92690184  0.68459832  0.92697527  1
  O  O528  1  0.17817407  0.01961311  0.19761808  1
  O  O529  1  0.17528931  0.02020042  0.44938752  1
  O  O530  1  0.17728891  0.01829493  0.69967725  1
  O  O531  1  0.17681976  0.02115493  0.95031375  1
  O  O532  1  0.17615548  0.35311968  0.19902598  1
  O  O533  1  0.17679947  0.35135333  0.44881495  1
  O  O534  1  0.17683545  0.35094559  0.70021551  1
  O  O535  1  0.17740411  0.35266248  0.94858485  1
  O  O536  1  0.17674413  0.68547657  0.19878791  1
  O  O537  1  0.17625605  0.68782938  0.44942108  1
  O  O538  1  0.17593949  0.68589570  0.70090400  1
  O  O539  1  0.17737652  0.68672947  0.94832062  1
  O  O540  1  0.67667142  0.01833415  0.19906094  1
  O  O541  1  0.67649026  0.02153040  0.44981451  1
  O  O542  1  0.67833474  0.02031545  0.69858892  1
  O  O543  1  0.67662606  0.02154712  0.94912567  1
  O  O544  1  0.67916019  0.35260124  0.19828070  1
  O  O545  1  0.67704112  0.35443531  0.45020560  1
  O  O546  1  0.67709373  0.35465799  0.70020508  1
  O  O547  1  0.67743324  0.35496543  0.95005193  1
  O  O548  1  0.67888493  0.68524255  0.19898818  1
  O  O549  1  0.67683237  0.68766141  0.44942648  1
  O  O550  1  0.67557327  0.68654812  0.70010219  1
  O  O551  1  0.67727386  0.68539909  0.95064216  1
  O  O552  1  0.32281342  0.31265460  0.04944899  1
  O  O553  1  0.32320678  0.31427579  0.30010529  1
  O  O554  1  0.32344307  0.31461167  0.55139497  1
  O  O555  1  0.32302410  0.31270083  0.80176076  1
  O  O556  1  0.32263976  0.64876695  0.05032934  1
  O  O557  1  0.32408912  0.64699067  0.29974618  1
  O  O558  1  0.32324506  0.64694813  0.55007563  1
  O  O559  1  0.32254687  0.64640047  0.80145263  1
  O  O560  1  0.32270983  0.98173396  0.05040935  1
  O  O561  1  0.32299774  0.97912341  0.29993322  1
  O  O562  1  0.32239081  0.98144276  0.55072124  1
  O  O563  1  0.32329433  0.97887675  0.80053281  1
  O  O564  1  0.82286318  0.31513141  0.05090376  1
  O  O565  1  0.82349971  0.31184478  0.30046276  1
  O  O566  1  0.82358370  0.31282943  0.55009834  1
  O  O567  1  0.82365735  0.31256588  0.79964226  1
  O  O568  1  0.82185667  0.64704984  0.05259841  1
  O  O569  1  0.82369625  0.64506432  0.29994184  1
  O  O570  1  0.82253443  0.64628321  0.54988465  1
  O  O571  1  0.82230600  0.64712351  0.80206855  1
  O  O572  1  0.82183319  0.98064549  0.05191335  1
  O  O573  1  0.82284886  0.97806626  0.29934204  1
  O  O574  1  0.82331760  0.98165342  0.55049647  1
  O  O575  1  0.82412665  0.98050933  0.80076363  1
  O  O576  1  0.42620024  0.14775721  0.17458031  1
  O  O577  1  0.42683277  0.14584914  0.42511041  1
  O  O578  1  0.42728759  0.14601142  0.67455854  1
  O  O579  1  0.42635260  0.14652054  0.92381926  1
  O  O580  1  0.42819547  0.48154845  0.17569809  1
  O  O581  1  0.42710392  0.48165147  0.42486962  1
  O  O582  1  0.42575283  0.48102047  0.67533591  1
  O  O583  1  0.42637354  0.47941761  0.92617261  1
  O  O584  1  0.42716063  0.81482133  0.17575820  1
  O  O585  1  0.42652695  0.81249817  0.42541513  1
  O  O586  1  0.42658398  0.81527956  0.67568329  1
  O  O587  1  0.42711349  0.81297409  0.92548971  1
  O  O588  1  0.92648928  0.14568671  0.17441980  1
  O  O589  1  0.92633670  0.14630420  0.42428050  1
  O  O590  1  0.92803571  0.14625725  0.67738355  1
  O  O591  1  0.92837727  0.14660519  0.92732699  1
  O  O592  1  0.92827512  0.48037851  0.17593344  1
  O  O593  1  0.92636826  0.47958829  0.42411136  1
  O  O594  1  0.92664921  0.48067767  0.67704284  1
  O  O595  1  0.92668837  0.47830336  0.92632177  1
  O  O596  1  0.92728728  0.81497621  0.17530054  1
  O  O597  1  0.92693043  0.81476914  0.42587069  1
  O  O598  1  0.92523222  0.81314755  0.67541515  1
  O  O599  1  0.92615736  0.81196705  0.92543735  1
  O  O600  1  0.07109699  0.18594049  0.07365598  1
  O  O601  1  0.07344181  0.18705995  0.32389858  1
  O  O602  1  0.07367266  0.18576231  0.57526917  1
  O  O603  1  0.07268446  0.18441794  0.82521958  1
  O  O604  1  0.07387294  0.52095409  0.07488053  1
  O  O605  1  0.07328517  0.51871333  0.32375431  1
  O  O606  1  0.07394923  0.51913462  0.57492686  1
  O  O607  1  0.07241311  0.51761675  0.82523747  1
  O  O608  1  0.07323507  0.85446906  0.07453476  1
  O  O609  1  0.07181378  0.85290221  0.32219091  1
  O  O610  1  0.07297626  0.85178431  0.57434079  1
  O  O611  1  0.07245332  0.85352510  0.82555207  1
  O  O612  1  0.57324874  0.18871707  0.07516635  1
  O  O613  1  0.57311840  0.18771376  0.32419385  1
  O  O614  1  0.57425405  0.18663445  0.57467095  1
  O  O615  1  0.57442748  0.18748717  0.82544401  1
  O  O616  1  0.57339910  0.52149331  0.07505506  1
  O  O617  1  0.57370582  0.51887946  0.32332941  1
  O  O618  1  0.57221173  0.52043566  0.57334623  1
  O  O619  1  0.57313944  0.52015225  0.82598491  1
  O  O620  1  0.57463942  0.85359308  0.07452479  1
  O  O621  1  0.57289120  0.85158969  0.32463312  1
  O  O622  1  0.57335976  0.85470366  0.57509594  1
  O  O623  1  0.57249501  0.85258604  0.82302461  1
  O  O624  1  0.32342913  0.18572316  0.05028582  1
  O  O625  1  0.32305080  0.18712523  0.30048474  1
  O  O626  1  0.32350385  0.18757049  0.55020180  1
  O  O627  1  0.32204886  0.18526395  0.80084500  1
  O  O628  1  0.32295424  0.52163990  0.04927471  1
  O  O629  1  0.32401775  0.52008795  0.29897806  1
  O  O630  1  0.32401170  0.51982336  0.54992848  1
  O  O631  1  0.32147393  0.51888573  0.80226491  1
  O  O632  1  0.32367441  0.85458826  0.05010511  1
  O  O633  1  0.32232343  0.85195896  0.30026552  1
  O  O634  1  0.32279235  0.85431048  0.55058892  1
  O  O635  1  0.32254352  0.85178055  0.80079415  1
  O  O636  1  0.82350067  0.18804194  0.05036525  1
  O  O637  1  0.82254376  0.18463097  0.29997732  1
  O  O638  1  0.82374059  0.18571964  0.55100945  1
  O  O639  1  0.82306789  0.18537495  0.80138253  1
  O  O640  1  0.82343440  0.51992854  0.05158605  1
  O  O641  1  0.82317821  0.51802163  0.30057568  1
  O  O642  1  0.82338679  0.51909942  0.55120368  1
  O  O643  1  0.82232183  0.51977430  0.80249024  1
  O  O644  1  0.82240703  0.85298849  0.05144537  1
  O  O645  1  0.82229345  0.85108797  0.30072049  1
  O  O646  1  0.82269122  0.85446016  0.55053036  1
  O  O647  1  0.82403311  0.85368616  0.79978485  1
  O  O648  1  0.17755531  0.14727690  0.19797022  1
  O  O649  1  0.17574742  0.14700060  0.45031918  1
  O  O650  1  0.17682792  0.14553503  0.69990559  1
  O  O651  1  0.17697342  0.14807770  0.94924109  1
  O  O652  1  0.17638206  0.47992264  0.19979746  1
  O  O653  1  0.17699369  0.47854426  0.44991167  1
  O  O654  1  0.17709431  0.47801169  0.70039478  1
  O  O655  1  0.17819906  0.48021458  0.94767768  1
  O  O656  1  0.17633723  0.81254582  0.19851865  1
  O  O657  1  0.17656301  0.81515495  0.44831285  1
  O  O658  1  0.17532327  0.81266460  0.70135099  1
  O  O659  1  0.17760072  0.81423203  0.94886436  1
  O  O660  1  0.67627340  0.14555812  0.19949670  1
  O  O661  1  0.67734357  0.14842904  0.44891725  1
  O  O662  1  0.67828412  0.14769695  0.69825100  1
  O  O663  1  0.67707796  0.14876648  0.94905833  1
  O  O664  1  0.67820240  0.47995806  0.19863978  1
  O  O665  1  0.67721392  0.48150949  0.44859478  1
  O  O666  1  0.67664578  0.48182291  0.69948285  1
  O  O667  1  0.67734157  0.48186760  0.95038413  1
  O  O668  1  0.67749001  0.81259577  0.19852485  1
  O  O669  1  0.67700304  0.81497688  0.44884226  1
  O  O670  1  0.67574525  0.81341789  0.70095897  1
  O  O671  1  0.67719079  0.81248670  0.95059171  1
