# generated using pymatgen
data_Na2MnFe(PO4)2
_symmetry_space_group_name_H-M   'P 1'
_cell_length_a   22.34711140
_cell_length_b   20.10437665
_cell_length_c   19.44708235
_cell_angle_alpha   90.01241989
_cell_angle_beta   90.01465635
_cell_angle_gamma   90.02928408
_symmetry_Int_Tables_number   1
_chemical_formula_structural   Na2MnFe(PO4)2
_chemical_formula_sum   'Na96 Mn48 Fe48 P96 O384'
_cell_volume   8737.08132201
_cell_formula_units_Z   48
loop_
 _symmetry_equiv_pos_site_id
 _symmetry_equiv_pos_as_xyz
  1  'x, y, z'
loop_
 _atom_site_type_symbol
 _atom_site_label
 _atom_site_symmetry_multiplicity
 _atom_site_fract_x
 _atom_site_fract_y
 _atom_site_fract_z
 _atom_site_occupancy
  Na  Na0  1  0.14002234  0.24917245  0.24258410  1
  Na  Na1  1  0.13938076  0.25020781  0.49320849  1
  Na  Na2  1  0.13976112  0.25035872  0.74382475  1
  Na  Na3  1  0.14011418  0.24946218  0.99437361  1
  Na  Na4  1  0.13959305  0.58237673  0.24326021  1
  Na  Na5  1  0.13932099  0.58274010  0.49468949  1
  Na  Na6  1  0.13951254  0.58287374  0.74314735  1
  Na  Na7  1  0.14021128  0.58390525  0.99381314  1
  Na  Na8  1  0.13927536  0.91716382  0.24247160  1
  Na  Na9  1  0.13888568  0.91611258  0.49297387  1
  Na  Na10  1  0.13949430  0.91519012  0.74425641  1
  Na  Na11  1  0.13975993  0.91694935  0.99329466  1
  Na  Na12  1  0.64160498  0.25010486  0.24269926  1
  Na  Na13  1  0.64072944  0.24994576  0.49386711  1
  Na  Na14  1  0.64085953  0.24957450  0.74460743  1
  Na  Na15  1  0.64096896  0.24983654  0.99418375  1
  Na  Na16  1  0.64153460  0.58392063  0.24260916  1
  Na  Na17  1  0.64104884  0.58382480  0.49409301  1
  Na  Na18  1  0.64097794  0.58444133  0.74323764  1
  Na  Na19  1  0.64145191  0.58404017  0.99468769  1
  Na  Na20  1  0.64066449  0.91619068  0.24254330  1
  Na  Na21  1  0.63982497  0.91625924  0.49301202  1
  Na  Na22  1  0.64079541  0.91616367  0.74432000  1
  Na  Na23  1  0.64136867  0.91652289  0.99434127  1
  Na  Na24  1  0.35912134  0.08384368  0.00655782  1
  Na  Na25  1  0.36013161  0.08324747  0.25520654  1
  Na  Na26  1  0.36004660  0.08280402  0.50506459  1
  Na  Na27  1  0.35911052  0.08282459  0.75591858  1
  Na  Na28  1  0.35950829  0.41609570  0.00502821  1
  Na  Na29  1  0.35978556  0.41590343  0.25467005  1
  Na  Na30  1  0.35964968  0.41737519  0.50614146  1
  Na  Na31  1  0.35959697  0.41724439  0.75560129  1
  Na  Na32  1  0.35935691  0.75135447  0.00540695  1
  Na  Na33  1  0.36022297  0.75039363  0.25600964  1
  Na  Na34  1  0.35963845  0.74984491  0.50554467  1
  Na  Na35  1  0.35879014  0.74941642  0.75552143  1
  Na  Na36  1  0.85968671  0.08310480  0.00831412  1
  Na  Na37  1  0.86011855  0.08288133  0.25673193  1
  Na  Na38  1  0.86005595  0.08248653  0.50683252  1
  Na  Na39  1  0.85935926  0.08234994  0.75762572  1
  Na  Na40  1  0.85950356  0.41689026  0.00833832  1
  Na  Na41  1  0.86050917  0.41681552  0.25731797  1
  Na  Na42  1  0.86030077  0.41714869  0.50729245  1
  Na  Na43  1  0.85953091  0.41806721  0.75693219  1
  Na  Na44  1  0.85969727  0.75058739  0.00695945  1
  Na  Na45  1  0.86041345  0.75010429  0.25679833  1
  Na  Na46  1  0.85940397  0.75001304  0.50735616  1
  Na  Na47  1  0.85946839  0.75109232  0.75736976  1
  Na  Na48  1  0.10943626  0.08175510  0.11724547  1
  Na  Na49  1  0.10865921  0.08324305  0.36826357  1
  Na  Na50  1  0.10829391  0.08291993  0.61817538  1
  Na  Na51  1  0.10928816  0.08171978  0.86972660  1
  Na  Na52  1  0.10955489  0.41550716  0.11879785  1
  Na  Na53  1  0.10902666  0.41730211  0.36894525  1
  Na  Na54  1  0.10859582  0.41693261  0.61845174  1
  Na  Na55  1  0.10921524  0.41760076  0.86835409  1
  Na  Na56  1  0.10920546  0.75062606  0.11889036  1
  Na  Na57  1  0.10835215  0.75063038  0.36861141  1
  Na  Na58  1  0.10881129  0.74940762  0.61877983  1
  Na  Na59  1  0.10886377  0.74990717  0.86773854  1
  Na  Na60  1  0.61081691  0.08397834  0.11847076  1
  Na  Na61  1  0.60952577  0.08211163  0.36785909  1
  Na  Na62  1  0.60930367  0.08303259  0.61998164  1
  Na  Na63  1  0.61070560  0.08343190  0.86940026  1
  Na  Na64  1  0.61081113  0.41661795  0.11859301  1
  Na  Na65  1  0.61050162  0.41649959  0.36806334  1
  Na  Na66  1  0.61031095  0.41761227  0.61912312  1
  Na  Na67  1  0.61004432  0.41556868  0.86931612  1
  Na  Na68  1  0.61078801  0.75073489  0.11885903  1
  Na  Na69  1  0.60998002  0.75186907  0.36804564  1
  Na  Na70  1  0.61023794  0.75141576  0.61802510  1
  Na  Na71  1  0.61071416  0.74912425  0.86791250  1
  Na  Na72  1  0.39026455  0.24978993  0.13133562  1
  Na  Na73  1  0.39064524  0.24853089  0.37933316  1
  Na  Na74  1  0.39074515  0.25062947  0.63049753  1
  Na  Na75  1  0.39055249  0.24959963  0.88065227  1
  Na  Na76  1  0.39095791  0.58396195  0.13065425  1
  Na  Na77  1  0.39114376  0.58484136  0.38045054  1
  Na  Na78  1  0.38995101  0.58346151  0.63102207  1
  Na  Na79  1  0.39040221  0.58120506  0.87988368  1
  Na  Na80  1  0.39071399  0.91727528  0.13154855  1
  Na  Na81  1  0.39080973  0.91673659  0.37948767  1
  Na  Na82  1  0.39052828  0.91763413  0.63019560  1
  Na  Na83  1  0.38954838  0.91689235  0.88126383  1
  Na  Na84  1  0.89029727  0.24928861  0.13309974  1
  Na  Na85  1  0.89099011  0.25110072  0.38217712  1
  Na  Na86  1  0.89055051  0.25061336  0.63098369  1
  Na  Na87  1  0.89023668  0.24867258  0.88317562  1
  Na  Na88  1  0.89089470  0.58350005  0.13339522  1
  Na  Na89  1  0.89063653  0.58342165  0.38174214  1
  Na  Na90  1  0.88993342  0.58401174  0.63316815  1
  Na  Na91  1  0.88976700  0.58483915  0.88159287  1
  Na  Na92  1  0.89012595  0.91569616  0.13207834  1
  Na  Na93  1  0.89038890  0.91705525  0.38110556  1
  Na  Na94  1  0.88970379  0.91555144  0.63155013  1
  Na  Na95  1  0.88989881  0.91657683  0.88325024  1
  Mn  Mn96  1  0.75057085  0.66738438  0.37492386  1
  Mn  Mn97  1  0.50031892  0.00029767  0.00028323  1
  Mn  Mn98  1  0.75002420  0.16707529  0.37512016  1
  Mn  Mn99  1  0.24991141  0.33392285  0.62439242  1
  Mn  Mn100  1  0.50090004  0.16576051  0.49976899  1
  Mn  Mn101  1  0.24937552  0.83311930  0.37467574  1
  Mn  Mn102  1  -0.00012866  0.16612459  0.25073086  1
  Mn  Mn103  1  0.50045658  0.50092554  0.49882159  1
  Mn  Mn104  1  0.50115312  0.49921322  0.00055635  1
  Mn  Mn105  1  0.50090202  0.66816294  0.49999141  1
  Mn  Mn106  1  0.24986171  0.16626335  0.87475274  1
  Mn  Mn107  1  0.50053162  0.33327798  0.74956032  1
  Mn  Mn108  1  0.50019577  0.00067264  0.75005363  1
  Mn  Mn109  1  0.25002345  0.49987424  0.37457743  1
  Mn  Mn110  1  0.75076206  0.33382058  0.62575456  1
  Mn  Mn111  1  0.75032360  0.33313746  0.87625292  1
  Mn  Mn112  1  -0.00092469  0.33243694  0.00026425  1
  Mn  Mn113  1  -0.00136365  -0.00125107  0.74965564  1
  Mn  Mn114  1  0.50041862  0.33289297  0.24973249  1
  Mn  Mn115  1  0.49953169  0.66607256  0.74886177  1
  Mn  Mn116  1  0.24953368  0.16633249  0.37394307  1
  Mn  Mn117  1  -0.00071513  0.66684689  0.50031003  1
  Mn  Mn118  1  0.75102975  0.49958453  0.37477976  1
  Mn  Mn119  1  0.50021610  0.50083480  0.24925168  1
  Mn  Mn120  1  0.74977625  -0.00116716  0.37523733  1
  Mn  Mn121  1  0.24925691  0.00015519  0.37420330  1
  Mn  Mn122  1  0.24924134  0.16628189  0.62496670  1
  Mn  Mn123  1  0.75002827  0.50153900  0.87632596  1
  Mn  Mn124  1  0.49997104  0.83370701  0.74930768  1
  Mn  Mn125  1  0.24997265  0.66647717  0.87473160  1
  Mn  Mn126  1  -0.00054303  0.16613148  0.74993665  1
  Mn  Mn127  1  0.50039839  0.66652039  -0.00063157  1
  Mn  Mn128  1  0.50047665  0.33358277  0.50001435  1
  Mn  Mn129  1  0.25007093  0.33291102  0.37475546  1
  Mn  Mn130  1  0.50033386  0.83312006  0.00025552  1
  Mn  Mn131  1  0.00046387  0.66734610  0.00079474  1
  Mn  Mn132  1  0.25076178  0.49941936  0.12416490  1
  Mn  Mn133  1  0.24978281  0.83243199  0.62464167  1
  Mn  Mn134  1  0.75018935  0.16617591  0.62546449  1
  Mn  Mn135  1  0.24948406  0.66598834  0.37509805  1
  Mn  Mn136  1  0.25009684  0.66699992  0.12394387  1
  Mn  Mn137  1  -0.00014940  0.33368812  0.75060754  1
  Mn  Mn138  1  0.24942003  0.83428093  0.12474287  1
  Mn  Mn139  1  0.49970790  0.16704616  -0.00019844  1
  Mn  Mn140  1  0.24861706  -0.00079675  0.62520293  1
  Mn  Mn141  1  -0.00007163  0.50012427  0.00088727  1
  Mn  Mn142  1  0.74917207  -0.00127822  0.62610235  1
  Mn  Mn143  1  0.24978032  0.33415577  0.87405018  1
  Fe  Fe144  1  0.74985490  0.66738389  0.62521342  1
  Fe  Fe145  1  0.74990269  0.83311053  0.87551314  1
  Fe  Fe146  1  0.24978917  0.16645621  0.12412056  1
  Fe  Fe147  1  0.50036435  0.33272098  -0.00046601  1
  Fe  Fe148  1  0.24925978  -0.00032010  0.87538839  1
  Fe  Fe149  1  -0.00042249  -0.00110557  0.00012541  1
  Fe  Fe150  1  0.24931249  0.83327558  0.87483526  1
  Fe  Fe151  1  -0.00027249  0.83335490  0.75008844  1
  Fe  Fe152  1  0.24911176  0.66602879  0.62543819  1
  Fe  Fe153  1  0.24917975  0.50019981  0.62508219  1
  Fe  Fe154  1  0.75049208  0.66740180  0.87516655  1
  Fe  Fe155  1  -0.00013640  -0.00036057  0.24969544  1
  Fe  Fe156  1  0.00027496  0.49961171  0.25113590  1
  Fe  Fe157  1  0.75062144  0.83317822  0.12443806  1
  Fe  Fe158  1  -0.00013990  0.16562085  0.00117903  1
  Fe  Fe159  1  0.49969156  0.83442643  0.49856184  1
  Fe  Fe160  1  0.50056956  0.49940954  0.75009659  1
  Fe  Fe161  1  0.50106238  0.66785889  0.25028058  1
  Fe  Fe162  1  0.49972595  0.16683738  0.74969951  1
  Fe  Fe163  1  -0.00002627  0.83407080  0.25002467  1
  Fe  Fe164  1  0.75019064  0.83297316  0.37464429  1
  Fe  Fe165  1  0.24953400  0.33316920  0.12440126  1
  Fe  Fe166  1  -0.00090065  0.83365529  0.49937198  1
  Fe  Fe167  1  -0.00018899  0.33407284  0.50066817  1
  Fe  Fe168  1  0.25049259  0.00024777  0.12395965  1
  Fe  Fe169  1  0.75080399  0.33339700  0.12523189  1
  Fe  Fe170  1  -0.00069562  -0.00039903  0.49979357  1
  Fe  Fe171  1  0.74993429  0.50045198  0.62533494  1
  Fe  Fe172  1  0.50075041  0.00011469  0.24997045  1
  Fe  Fe173  1  -0.00067138  0.83300085  0.00051539  1
  Fe  Fe174  1  0.75029100  0.83332462  0.62590440  1
  Fe  Fe175  1  0.75049193  -0.00018423  0.12502544  1
  Fe  Fe176  1  0.75083720  0.50035031  0.12542590  1
  Fe  Fe177  1  -0.00044081  0.16680315  0.49941309  1
  Fe  Fe178  1  0.50042923  0.83381830  0.24977571  1
  Fe  Fe179  1  0.00024968  0.66712670  0.25081698  1
  Fe  Fe180  1  0.75118035  0.66740566  0.12502696  1
  Fe  Fe181  1  -0.00043528  0.50054978  0.50021909  1
  Fe  Fe182  1  0.75041896  0.33365535  0.37488988  1
  Fe  Fe183  1  -0.00107422  0.50025922  0.75016321  1
  Fe  Fe184  1  0.75088083  0.16629345  0.87619619  1
  Fe  Fe185  1  0.49969290  0.00001665  0.49878360  1
  Fe  Fe186  1  0.24928949  0.50021897  0.87462259  1
  Fe  Fe187  1  0.75031172  -0.00022959  0.87615825  1
  Fe  Fe188  1  -0.00066144  0.66691518  0.75025174  1
  Fe  Fe189  1  0.00035175  0.33328090  0.25137240  1
  Fe  Fe190  1  0.75072786  0.16661256  0.12533066  1
  Fe  Fe191  1  0.50131836  0.16647333  0.24994261  1
  P  P192  1  0.04170756  0.24830708  0.10329604  1
  P  P193  1  0.04202767  0.25104188  0.35359863  1
  P  P194  1  0.04081240  0.24989448  0.60142816  1
  P  P195  1  0.04215664  0.24906649  0.85384608  1
  P  P196  1  0.04271590  0.58348021  0.10454569  1
  P  P197  1  0.04084583  0.58343223  0.35237200  1
  P  P198  1  0.04088004  0.58245273  0.60340668  1
  P  P199  1  0.04068854  0.58345289  0.85163583  1
  P  P200  1  0.04088814  0.91596935  0.10206767  1
  P  P201  1  0.04091494  0.91716186  0.35196593  1
  P  P202  1  0.04045282  0.91589404  0.60144467  1
  P  P203  1  0.04103740  0.91521537  0.85321761  1
  P  P204  1  0.54264516  0.25080240  0.10258335  1
  P  P205  1  0.54350377  0.24844614  0.35211422  1
  P  P206  1  0.54329840  0.24975890  0.60341242  1
  P  P207  1  0.54255732  0.24874311  0.85251777  1
  P  P208  1  0.54350638  0.58437707  0.10361211  1
  P  P209  1  0.54334361  0.58525325  0.35185011  1
  P  P210  1  0.54296830  0.58348235  0.60323188  1
  P  P211  1  0.54273129  0.58176000  0.85202200  1
  P  P212  1  0.54306532  0.91686400  0.10417171  1
  P  P213  1  0.54191727  0.91684027  0.35154541  1
  P  P214  1  0.54138649  0.91739926  0.60067852  1
  P  P215  1  0.54313894  0.91672373  0.85305184  1
  P  P216  1  0.45952892  0.08364120  0.14857242  1
  P  P217  1  0.45820774  0.08189875  0.39595333  1
  P  P218  1  0.45739103  0.08445586  0.64696758  1
  P  P219  1  0.45704582  0.08356250  0.89650068  1
  P  P220  1  0.45788169  0.41622679  0.14604057  1
  P  P221  1  0.45743970  0.41662346  0.39620670  1
  P  P222  1  0.45784656  0.41818356  0.64726142  1
  P  P223  1  0.45837015  0.41521524  0.89712332  1
  P  P224  1  0.45903968  0.75032626  0.14843849  1
  P  P225  1  0.45837389  0.75194292  0.39616968  1
  P  P226  1  0.45704343  0.75092172  0.64559727  1
  P  P227  1  0.45724368  0.74974205  0.89630876  1
  P  P228  1  0.95810456  0.08149535  0.14726385  1
  P  P229  1  0.95836172  0.08283495  0.39803249  1
  P  P230  1  0.95648123  0.08283708  0.64603651  1
  P  P231  1  0.95822998  0.08274704  0.89933038  1
  P  P232  1  0.95909321  0.41601108  0.14957293  1
  P  P233  1  0.95888736  0.41717771  0.39842907  1
  P  P234  1  0.95753412  0.41800146  0.64729499  1
  P  P235  1  0.95677280  0.41718674  0.89725662  1
  P  P236  1  0.95897736  0.75050103  0.14891995  1
  P  P237  1  0.95760306  0.75142464  0.39702552  1
  P  P238  1  0.95815196  0.75039416  0.64863302  1
  P  P239  1  0.95790489  0.75115321  0.89742047  1
  P  P240  1  0.20812583  0.08309142  0.22530840  1
  P  P241  1  0.20622052  0.08322451  0.47767180  1
  P  P242  1  0.20606682  0.08253480  0.72875585  1
  P  P243  1  0.20797000  0.08227819  0.97820736  1
  P  P244  1  0.20752709  0.41522316  0.22685074  1
  P  P245  1  0.20707716  0.41710010  0.47833325  1
  P  P246  1  0.20700494  0.41818524  0.72736723  1
  P  P247  1  0.20729500  0.41761600  0.97730474  1
  P  P248  1  0.20680588  0.74991984  0.22769256  1
  P  P249  1  0.20645921  0.74905308  0.47853667  1
  P  P250  1  0.20709087  0.74861393  0.72776406  1
  P  P251  1  0.20705461  0.75145087  0.97693735  1
  P  P252  1  0.70958105  0.08319859  0.22654398  1
  P  P253  1  0.70715965  0.08284170  0.47807465  1
  P  P254  1  0.70765928  0.08285179  0.72985205  1
  P  P255  1  0.70944307  0.08326949  0.97807296  1
  P  P256  1  0.70952642  0.41646923  0.22679044  1
  P  P257  1  0.70834877  0.41599553  0.47767438  1
  P  P258  1  0.70818132  0.41839813  0.72809573  1
  P  P259  1  0.70810655  0.41704241  0.97975488  1
  P  P260  1  0.70971750  0.75068420  0.22648757  1
  P  P261  1  0.70810546  0.75135267  0.47805638  1
  P  P262  1  0.70867749  0.75053371  0.72737009  1
  P  P263  1  0.70915569  0.74979232  0.97736860  1
  P  P264  1  0.29134014  0.25026067  0.02297771  1
  P  P265  1  0.29230073  0.24956890  0.27001390  1
  P  P266  1  0.29283695  0.24958374  0.52150834  1
  P  P267  1  0.29266027  0.25010183  0.77155627  1
  P  P268  1  0.29318181  0.58328567  0.02064018  1
  P  P269  1  0.29304623  0.58319101  0.27130581  1
  P  P270  1  0.29122190  0.58339562  0.52359689  1
  P  P271  1  0.29147159  0.58186890  0.77150250  1
  P  P272  1  0.29225898  0.91811820  0.02150878  1
  P  P273  1  0.29228622  0.91715117  0.27083702  1
  P  P274  1  0.29225337  0.91633161  0.52151273  1
  P  P275  1  0.29065461  0.91626767  0.77349549  1
  P  P276  1  0.79188467  0.24960188  0.02383296  1
  P  P277  1  0.79262514  0.25150147  0.27207000  1
  P  P278  1  0.79275390  0.25032269  0.52184346  1
  P  P279  1  0.79265349  0.24881325  0.77363945  1
  P  P280  1  0.79219863  0.58417459  0.02386955  1
  P  P281  1  0.79307124  0.58353440  0.27131686  1
  P  P282  1  0.79170311  0.58363172  0.52403905  1
  P  P283  1  0.79184296  0.58546330  0.77228620  1
  P  P284  1  0.79133927  0.91665941  0.02296778  1
  P  P285  1  0.79202567  0.91515063  0.27171654  1
  P  P286  1  0.79170185  0.91474089  0.52277163  1
  P  P287  1  0.79137729  0.91624702  0.77435289  1
  O  O288  1  0.03677710  0.24872843  0.18324133  1
  O  O289  1  0.03649330  0.25073803  0.43344681  1
  O  O290  1  0.03617645  0.25000638  0.68146739  1
  O  O291  1  0.03672851  0.24854307  0.93380464  1
  O  O292  1  0.03764060  0.58361187  0.18443343  1
  O  O293  1  0.03575104  0.58300918  0.43234540  1
  O  O294  1  0.03536615  0.58261666  0.68325280  1
  O  O295  1  0.03645803  0.58383448  0.93169101  1
  O  O296  1  0.03633857  0.91638413  0.18198679  1
  O  O297  1  0.03541643  0.91751444  0.43178079  1
  O  O298  1  0.03551476  0.91535467  0.68142573  1
  O  O299  1  0.03581668  0.91533626  0.93307079  1
  O  O300  1  0.53777905  0.24993773  0.18254081  1
  O  O301  1  0.53866009  0.24856393  0.43209423  1
  O  O302  1  0.53773735  0.24944839  0.68334388  1
  O  O303  1  0.53716083  0.24964595  0.93247602  1
  O  O304  1  0.53830593  0.58515933  0.18355926  1
  O  O305  1  0.53831380  0.58513703  0.43187022  1
  O  O306  1  0.53748408  0.58261199  0.68315849  1
  O  O307  1  0.53775183  0.58203944  0.93202972  1
  O  O308  1  0.53783738  0.91682328  0.18410969  1
  O  O309  1  0.53632545  0.91692581  0.43143098  1
  O  O310  1  0.53633096  0.91737537  0.68064931  1
  O  O311  1  0.53842502  0.91658366  0.93305781  1
  O  O312  1  0.46414225  0.08383563  0.06856528  1
  O  O313  1  0.46404933  0.08224372  0.31609563  1
  O  O314  1  0.46284687  0.08349402  0.56703027  1
  O  O315  1  0.46187742  0.08413127  0.81653761  1
  O  O316  1  0.46333096  0.41561606  0.06611291  1
  O  O317  1  0.46248096  0.41665480  0.31621066  1
  O  O318  1  0.46280565  0.41796044  0.56726485  1
  O  O319  1  0.46374275  0.41600965  0.81715732  1
  O  O320  1  0.46379243  0.75017568  0.06840712  1
  O  O321  1  0.46401872  0.75156881  0.31627388  1
  O  O322  1  0.46237955  0.75164731  0.56561668  1
  O  O323  1  0.46196921  0.74971535  0.81628687  1
  O  O324  1  0.96341780  0.08194795  0.06740068  1
  O  O325  1  0.96337910  0.08269562  0.31803214  1
  O  O326  1  0.96181598  0.08279623  0.56613469  1
  O  O327  1  0.96249228  0.08250050  0.81929384  1
  O  O328  1  0.96350594  0.41618577  0.06956300  1
  O  O329  1  0.96407089  0.41659169  0.31853618  1
  O  O330  1  0.96301004  0.41803210  0.56741064  1
  O  O331  1  0.96188999  0.41760188  0.81727623  1
  O  O332  1  0.96379678  0.75057793  0.06893367  1
  O  O333  1  0.96324624  0.75126417  0.31723719  1
  O  O334  1  0.96252317  0.75018282  0.56865806  1
  O  O335  1  0.96307801  0.75094075  0.81755814  1
  O  O336  1  0.21372498  0.08254538  0.05810207  1
  O  O337  1  0.21249836  0.08324555  0.30535819  1
  O  O338  1  0.21072078  0.08315350  0.55769753  1
  O  O339  1  0.21144458  0.08204452  0.80874857  1
  O  O340  1  0.21297669  0.41661499  0.05722418  1
  O  O341  1  0.21249426  0.41549870  0.30684412  1
  O  O342  1  0.21220708  0.41775277  0.55832155  1
  O  O343  1  0.21192185  0.41834642  0.80737405  1
  O  O344  1  0.21218101  0.75129112  0.05689270  1
  O  O345  1  0.21172689  0.74993132  0.30770050  1
  O  O346  1  0.21160426  0.74850469  0.55854080  1
  O  O347  1  0.21249193  0.74940008  0.80768334  1
  O  O348  1  0.71470375  0.08335428  0.05799247  1
  O  O349  1  0.71376623  0.08313385  0.30653792  1
  O  O350  1  0.71197477  0.08260138  0.55806761  1
  O  O351  1  0.71345500  0.08284942  0.80975460  1
  O  O352  1  0.71379696  0.41702666  0.05963845  1
  O  O353  1  0.71456486  0.41578721  0.30678924  1
  O  O354  1  0.71337648  0.41692049  0.55764294  1
  O  O355  1  0.71326460  0.41828889  0.80806926  1
  O  O356  1  0.71458808  0.75013901  0.05721136  1
  O  O357  1  0.71446748  0.75080687  0.30644500  1
  O  O358  1  0.71323492  0.75120363  0.55793910  1
  O  O359  1  0.71344323  0.75011870  0.80727424  1
  O  O360  1  0.28677211  0.24960268  0.19008342  1
  O  O361  1  0.28786144  0.24961098  0.44144536  1
  O  O362  1  0.28758588  0.25012832  0.69162583  1
  O  O363  1  0.28646222  0.25006759  0.94299214  1
  O  O364  1  0.28846777  0.58335163  0.19127921  1
  O  O365  1  0.28651441  0.58322373  0.44354532  1
  O  O366  1  0.28574418  0.58212385  0.69161789  1
  O  O367  1  0.28766100  0.58279758  0.94069360  1
  O  O368  1  0.28736765  0.91773383  0.19083216  1
  O  O369  1  0.28731657  0.91636266  0.44152367  1
  O  O370  1  0.28537724  0.91593237  0.69352937  1
  O  O371  1  0.28682800  0.91786222  0.94161217  1
  O  O372  1  0.78716013  0.25139121  0.19215363  1
  O  O373  1  0.78744979  0.25096136  0.44188268  1
  O  O374  1  0.78743301  0.24911242  0.69365970  1
  O  O375  1  0.78703888  0.24886331  0.94385455  1
  O  O376  1  0.78796957  0.58326317  0.19143873  1
  O  O377  1  0.78735258  0.58397929  0.44398883  1
  O  O378  1  0.78618837  0.58496121  0.69246447  1
  O  O379  1  0.78707610  0.58490516  0.94389548  1
  O  O380  1  0.78690884  0.91543630  0.19181649  1
  O  O381  1  0.78653078  0.91456540  0.44282904  1
  O  O382  1  0.78653201  0.91558981  0.69436317  1
  O  O383  1  0.78599233  0.91730167  0.94313071  1
  O  O384  1  0.22714989  0.25020034  0.05879099  1
  O  O385  1  0.22806444  0.24986333  0.30576424  1
  O  O386  1  0.22828197  0.24990838  0.55626332  1
  O  O387  1  0.22821780  0.25005417  0.80649449  1
  O  O388  1  0.22884879  0.58310993  0.05597719  1
  O  O389  1  0.22837214  0.58297834  0.30574803  1
  O  O390  1  0.22690942  0.58363472  0.55917425  1
  O  O391  1  0.22740163  0.58178229  0.80789193  1
  O  O392  1  0.22798988  0.91858862  0.05735853  1
  O  O393  1  0.22779732  0.91666599  0.30577380  1
  O  O394  1  0.22769827  0.91586009  0.55625423  1
  O  O395  1  0.22653243  0.91627770  0.80955174  1
  O  O396  1  0.72778928  0.25041663  0.05974935  1
  O  O397  1  0.72846357  0.25194267  0.30819744  1
  O  O398  1  0.72854242  0.25039189  0.55742740  1
  O  O399  1  0.72843424  0.24832351  0.80935101  1
  O  O400  1  0.72815456  0.58341594  0.05989198  1
  O  O401  1  0.72893215  0.58352120  0.30717056  1
  O  O402  1  0.72745266  0.58320141  0.55950129  1
  O  O403  1  0.72786351  0.58588728  0.80884069  1
  O  O404  1  0.72750518  0.91591159  0.05966490  1
  O  O405  1  0.72781773  0.91460779  0.30766965  1
  O  O406  1  0.72745791  0.91429875  0.55860036  1
  O  O407  1  0.72724503  0.91705937  0.81017319  1
  O  O408  1  0.27251259  0.08321342  0.19002178  1
  O  O409  1  0.27085121  0.08322782  0.44316759  1
  O  O410  1  0.27045922  0.08265434  0.69351947  1
  O  O411  1  0.27194383  0.08171783  0.94180581  1
  O  O412  1  0.27191302  0.41465688  0.19150302  1
  O  O413  1  0.27149811  0.41681170  0.44320199  1
  O  O414  1  0.27137786  0.41818272  0.69201969  1
  O  O415  1  0.27147181  0.41863726  0.94126934  1
  O  O416  1  0.27130236  0.75043476  0.19284113  1
  O  O417  1  0.27088840  0.74954170  0.44341538  1
  O  O418  1  0.27128251  0.74797075  0.69187233  1
  O  O419  1  0.27142062  0.75148810  0.94160497  1
  O  O420  1  0.77381652  0.08331857  0.19119561  1
  O  O421  1  0.77159930  0.08287061  0.44312257  1
  O  O422  1  0.77173468  0.08224262  0.69375262  1
  O  O423  1  0.77340439  0.08304154  0.94150229  1
  O  O424  1  0.77364951  0.41662710  0.19075188  1
  O  O425  1  0.77274004  0.41519883  0.44218343  1
  O  O426  1  0.77245125  0.41872945  0.69248059  1
  O  O427  1  0.77219853  0.41732069  0.94380453  1
  O  O428  1  0.77390541  0.75134919  0.19067718  1
  O  O429  1  0.77234438  0.75181229  0.44207253  1
  O  O430  1  0.77279998  0.75110538  0.69126875  1
  O  O431  1  0.77312367  0.74948852  0.94085663  1
  O  O432  1  0.02221955  0.08151819  0.18343190  1
  O  O433  1  0.02235049  0.08248259  0.43424311  1
  O  O434  1  0.02071456  0.08236714  0.68183002  1
  O  O435  1  0.02250760  0.08300971  0.93474134  1
  O  O436  1  0.02329892  0.41582491  0.18518066  1
  O  O437  1  0.02279521  0.41794417  0.43495813  1
  O  O438  1  0.02159691  0.41837614  0.68367157  1
  O  O439  1  0.02116310  0.41647775  0.93244362  1
  O  O440  1  0.02303935  0.75092340  0.18494200  1
  O  O441  1  0.02156317  0.75111628  0.43353556  1
  O  O442  1  0.02234925  0.75075415  0.68442326  1
  O  O443  1  0.02209233  0.75169802  0.93346755  1
  O  O444  1  0.52380736  0.08328998  0.18413829  1
  O  O445  1  0.52227052  0.08126657  0.43236898  1
  O  O446  1  0.52162763  0.08526385  0.68293875  1
  O  O447  1  0.52154250  0.08366957  0.93143556  1
  O  O448  1  0.52217464  0.41666606  0.18149166  1
  O  O449  1  0.52198922  0.41678399  0.43101109  1
  O  O450  1  0.52226202  0.41814923  0.68259576  1
  O  O451  1  0.52259572  0.41441791  0.93304623  1
  O  O452  1  0.52332096  0.75047628  0.18407157  1
  O  O453  1  0.52245939  0.75253504  0.43246424  1
  O  O454  1  0.52142504  0.75037450  0.68082978  1
  O  O455  1  0.52187068  0.74993860  0.93090673  1
  O  O456  1  0.47825751  0.25165269  0.06711603  1
  O  O457  1  0.47905158  0.24815580  0.31693248  1
  O  O458  1  0.47906826  0.24973314  0.56773451  1
  O  O459  1  0.47834791  0.24856160  0.81660817  1
  O  O460  1  0.47920040  0.58351748  0.06821646  1
  O  O461  1  0.47891520  0.58553780  0.31660662  1
  O  O462  1  0.47872928  0.58410522  0.56763103  1
  O  O463  1  0.47835750  0.58129950  0.81655506  1
  O  O464  1  0.47875526  0.91675307  0.06860057  1
  O  O465  1  0.47799957  0.91700206  0.31488145  1
  O  O466  1  0.47724316  0.91750629  0.56458634  1
  O  O467  1  0.47859241  0.91693381  0.81832768  1
  O  O468  1  0.97738669  0.24785202  0.06768471  1
  O  O469  1  0.97794362  0.25108881  0.31730289  1
  O  O470  1  0.97671491  0.24968125  0.56564475  1
  O  O471  1  0.97785760  0.24962846  0.81840086  1
  O  O472  1  0.97840360  0.58384392  0.06899225  1
  O  O473  1  0.97688704  0.58335858  0.31621154  1
  O  O474  1  0.97684417  0.58229973  0.56699499  1
  O  O475  1  0.97638574  0.58324371  0.81626801  1
  O  O476  1  0.97668255  0.91536380  0.06620038  1
  O  O477  1  0.97696466  0.91705337  0.31527430  1
  O  O478  1  0.97629224  0.91670473  0.56549074  1
  O  O479  1  0.97683781  0.91445506  0.81715921  1
  O  O480  1  0.07268726  0.31180258  0.07505864  1
  O  O481  1  0.07292933  0.31448755  0.32497907  1
  O  O482  1  0.07129478  0.31392436  0.57345876  1
  O  O483  1  0.07340210  0.31263758  0.82597014  1
  O  O484  1  0.07404027  0.64662701  0.07565078  1
  O  O485  1  0.07147327  0.64743661  0.32460725  1
  O  O486  1  0.07195380  0.64609820  0.57537907  1
  O  O487  1  0.07101583  0.64733343  0.82307739  1
  O  O488  1  0.07108866  0.97977432  0.07289159  1
  O  O489  1  0.07194660  0.98058496  0.32320449  1
  O  O490  1  0.07175669  0.97939052  0.57355216  1
  O  O491  1  0.07152374  0.97909347  0.82492449  1
  O  O492  1  0.57359055  0.31420121  0.07411153  1
  O  O493  1  0.57440063  0.31212740  0.32428172  1
  O  O494  1  0.57413707  0.31359962  0.57564951  1
  O  O495  1  0.57405578  0.31204349  0.82445458  1
  O  O496  1  0.57439285  0.64765032  0.07474789  1
  O  O497  1  0.57422974  0.64878902  0.32361486  1
  O  O498  1  0.57423387  0.64717607  0.57584350  1
  O  O499  1  0.57340274  0.64556349  0.82408824  1
  O  O500  1  0.57408100  0.98033368  0.07580772  1
  O  O501  1  0.57323489  0.98024809  0.32324450  1
  O  O502  1  0.57223461  0.98112644  0.57280755  1
  O  O503  1  0.57413414  0.98017092  0.82487470  1
  O  O504  1  0.42843912  0.02006581  0.17637787  1
  O  O505  1  0.42692192  0.01861946  0.42444531  1
  O  O506  1  0.42647994  0.02083402  0.67518174  1
  O  O507  1  0.42644161  0.01986552  0.92483664  1
  O  O508  1  0.42662961  0.35310235  0.17460742  1
  O  O509  1  0.42666503  0.35303744  0.42439535  1
  O  O510  1  0.42672786  0.35456856  0.67500902  1
  O  O511  1  0.42739094  0.35157045  0.92509745  1
  O  O512  1  0.42828488  0.68667388  0.17664908  1
  O  O513  1  0.42741190  0.68828654  0.42432465  1
  O  O514  1  0.42593025  0.68728904  0.67334249  1
  O  O515  1  0.42643695  0.68613222  0.92441910  1
  O  O516  1  0.92726769  0.01794123  0.17573812  1
  O  O517  1  0.92680116  0.01963792  0.42617557  1
  O  O518  1  0.92509547  0.01961898  0.67471519  1
  O  O519  1  0.92788457  0.01883395  0.92779341  1
  O  O520  1  0.92815447  0.35240829  0.17759752  1
  O  O521  1  0.92857849  0.35336408  0.42739271  1
  O  O522  1  0.92659564  0.35420247  0.67513987  1
  O  O523  1  0.92546787  0.35373646  0.92528707  1
  O  O524  1  0.92882765  0.68642217  0.17727471  1
  O  O525  1  0.92598551  0.68811946  0.42514012  1
  O  O526  1  0.92801401  0.68638533  0.67732453  1
  O  O527  1  0.92714641  0.68745316  0.92582945  1
  O  O528  1  0.17746992  0.01933094  0.19718199  1
  O  O529  1  0.17536757  0.01972884  0.44925302  1
  O  O530  1  0.17478133  0.01929139  0.70027855  1
  O  O531  1  0.17662024  0.01902927  0.94968752  1
  O  O532  1  0.17652690  0.35185572  0.19836754  1
  O  O533  1  0.17613338  0.35344495  0.45046833  1
  O  O534  1  0.17609139  0.35430074  0.69967536  1
  O  O535  1  0.17641963  0.35398445  0.94910923  1
  O  O536  1  0.17618046  0.68630190  0.19941545  1
  O  O537  1  0.17538959  0.68573910  0.44997678  1
  O  O538  1  0.17621621  0.68498363  0.69968199  1
  O  O539  1  0.17588567  0.68784018  0.94923225  1
  O  O540  1  0.67903057  0.01945968  0.19804808  1
  O  O541  1  0.67627574  0.01937969  0.44962131  1
  O  O542  1  0.67599094  0.01962196  0.70157931  1
  O  O543  1  0.67819676  0.01975984  0.94991985  1
  O  O544  1  0.67828705  0.35322807  0.19819984  1
  O  O545  1  0.67732480  0.35254412  0.44935381  1
  O  O546  1  0.67736192  0.35449491  0.70058757  1
  O  O547  1  0.67709594  0.35353404  0.95131687  1
  O  O548  1  0.67983762  0.68640034  0.19814946  1
  O  O549  1  0.67734848  0.68755144  0.44980384  1
  O  O550  1  0.67835553  0.68680733  0.69820232  1
  O  O551  1  0.67782971  0.68643468  0.94905516  1
  O  O552  1  0.32207587  0.31404669  0.05084069  1
  O  O553  1  0.32388008  0.31261586  0.29859660  1
  O  O554  1  0.32397208  0.31305529  0.54957964  1
  O  O555  1  0.32360275  0.31368323  0.79963735  1
  O  O556  1  0.32382112  0.64726948  0.04835381  1
  O  O557  1  0.32380279  0.64661466  0.29997474  1
  O  O558  1  0.32203329  0.64710426  0.55163831  1
  O  O559  1  0.32286608  0.64541895  0.79930162  1
  O  O560  1  0.32343641  0.98135420  0.05036128  1
  O  O561  1  0.32324180  0.98050723  0.29939612  1
  O  O562  1  0.32287732  0.97992949  0.54993349  1
  O  O563  1  0.32150665  0.98004210  0.80123004  1
  O  O564  1  0.82329070  0.31315130  0.05146658  1
  O  O565  1  0.82382712  0.31463153  0.30097568  1
  O  O566  1  0.82425995  0.31332053  0.55056209  1
  O  O567  1  0.82336958  0.31274757  0.80129324  1
  O  O568  1  0.82269072  0.64797759  0.05254807  1
  O  O569  1  0.82413698  0.64698426  0.29967095  1
  O  O570  1  0.82193608  0.64758326  0.55258647  1
  O  O571  1  0.82298054  0.64884833  0.80081078  1
  O  O572  1  0.82172797  0.98040511  0.05201976  1
  O  O573  1  0.82273365  0.97893977  0.30008996  1
  O  O574  1  0.82222523  0.97877461  0.55053113  1
  O  O575  1  0.82282230  0.97964633  0.80232407  1
  O  O576  1  0.42911047  0.14753410  0.17669130  1
  O  O577  1  0.42723230  0.14548131  0.42410341  1
  O  O578  1  0.42649846  0.14799090  0.67511525  1
  O  O579  1  0.42568735  0.14660730  0.92528618  1
  O  O580  1  0.42677881  0.47993026  0.17362971  1
  O  O581  1  0.42643887  0.48020143  0.42412906  1
  O  O582  1  0.42731723  0.48167929  0.67592054  1
  O  O583  1  0.42744445  0.47868706  0.92535945  1
  O  O584  1  0.42823616  0.81410872  0.17628771  1
  O  O585  1  0.42708989  0.81522691  0.42453580  1
  O  O586  1  0.42590051  0.81410179  0.67424379  1
  O  O587  1  0.42632572  0.81310705  0.92482120  1
  O  O588  1  0.92679892  0.14477416  0.17572122  1
  O  O589  1  0.92809775  0.14701304  0.42592777  1
  O  O590  1  0.92567881  0.14632478  0.67465435  1
  O  O591  1  0.92731455  0.14621453  0.92769821  1
  O  O592  1  0.92875324  0.47990504  0.17796080  1
  O  O593  1  0.92727632  0.48056256  0.42625716  1
  O  O594  1  0.92637711  0.48117983  0.67615237  1
  O  O595  1  0.92598386  0.48054896  0.92602544  1
  O  O596  1  0.92749949  0.81373252  0.17700586  1
  O  O597  1  0.92705583  0.81504178  0.42579025  1
  O  O598  1  0.92694396  0.81366830  0.67705283  1
  O  O599  1  0.92667258  0.81420764  0.92645424  1
  O  O600  1  0.07240111  0.18470174  0.07485979  1
  O  O601  1  0.07319384  0.18752584  0.32543461  1
  O  O602  1  0.07179353  0.18637723  0.57325662  1
  O  O603  1  0.07317337  0.18583980  0.82513485  1
  O  O604  1  0.07351898  0.51993637  0.07600491  1
  O  O605  1  0.07195850  0.52004039  0.32384716  1
  O  O606  1  0.07202915  0.51930621  0.57452910  1
  O  O607  1  0.07154926  0.51986767  0.82357838  1
  O  O608  1  0.07220784  0.85267966  0.07370715  1
  O  O609  1  0.07192511  0.85351012  0.32390339  1
  O  O610  1  0.07082347  0.85214593  0.57268621  1
  O  O611  1  0.07248262  0.85228696  0.82422456  1
  O  O612  1  0.57340315  0.18719453  0.07424325  1
  O  O613  1  0.57417569  0.18493812  0.32345490  1
  O  O614  1  0.57476896  0.18667646  0.57510333  1
  O  O615  1  0.57304164  0.18496651  0.82441756  1
  O  O616  1  0.57479042  0.52082183  0.07602807  1
  O  O617  1  0.57416286  0.52149272  0.32409726  1
  O  O618  1  0.57412249  0.52039514  0.57439449  1
  O  O619  1  0.57360516  0.51822289  0.82390573  1
  O  O620  1  0.57424412  0.85356961  0.07563931  1
  O  O621  1  0.57282144  0.85324270  0.32321915  1
  O  O622  1  0.57206469  0.85365511  0.57259436  1
  O  O623  1  0.57393684  0.85328520  0.82455910  1
  O  O624  1  0.32208595  0.18652119  0.05112233  1
  O  O625  1  0.32314209  0.18593901  0.29830856  1
  O  O626  1  0.32357216  0.18602407  0.54964739  1
  O  O627  1  0.32368634  0.18676898  0.79987854  1
  O  O628  1  0.32476744  0.52033266  0.04909057  1
  O  O629  1  0.32390458  0.51965131  0.29945439  1
  O  O630  1  0.32180874  0.51961149  0.55169795  1
  O  O631  1  0.32238348  0.51852176  0.80020183  1
  O  O632  1  0.32321365  0.85448998  0.04965998  1
  O  O633  1  0.32329688  0.85361304  0.29883992  1
  O  O634  1  0.32347296  0.85305139  0.54970507  1
  O  O635  1  0.32149150  0.85250758  0.80139908  1
  O  O636  1  0.82221679  0.18588940  0.05275821  1
  O  O637  1  0.82345176  0.18762738  0.29986233  1
  O  O638  1  0.82347868  0.18644047  0.54944718  1
  O  O639  1  0.82372853  0.18546454  0.80196594  1
  O  O640  1  0.82356209  0.52069116  0.05162203  1
  O  O641  1  0.82424585  0.52029469  0.30004921  1
  O  O642  1  0.82261457  0.52004041  0.55205172  1
  O  O643  1  0.82291684  0.52200117  0.80063396  1
  O  O644  1  0.82294876  0.85325484  0.05062176  1
  O  O645  1  0.82319311  0.85205295  0.30058615  1
  O  O646  1  0.82304682  0.85184097  0.55174415  1
  O  O647  1  0.82161889  0.85248085  0.80323466  1
  O  O648  1  0.17739518  0.14674161  0.19701001  1
  O  O649  1  0.17545862  0.14663531  0.44911746  1
  O  O650  1  0.17518440  0.14620127  0.70080610  1
  O  O651  1  0.17694856  0.14599492  0.95046891  1
  O  O652  1  0.17692270  0.47902917  0.19899603  1
  O  O653  1  0.17595180  0.48029739  0.44964265  1
  O  O654  1  0.17610841  0.48137345  0.69843385  1
  O  O655  1  0.17613442  0.48113273  0.94944119  1
  O  O656  1  0.17551372  0.81322854  0.19960783  1
  O  O657  1  0.17540716  0.81258458  0.45047849  1
  O  O658  1  0.17603355  0.81207643  0.69959691  1
  O  O659  1  0.17648683  0.81500834  0.94848334  1
  O  O660  1  0.67884261  0.14689114  0.19831978  1
  O  O661  1  0.67624066  0.14628997  0.44987801  1
  O  O662  1  0.67676324  0.14628507  0.70137106  1
  O  O663  1  0.67864162  0.14698008  0.94975320  1
  O  O664  1  0.67893398  0.48054965  0.19926786  1
  O  O665  1  0.67769009  0.47957896  0.44900317  1
  O  O666  1  0.67740736  0.48176687  0.69944498  1
  O  O667  1  0.67660851  0.48025035  0.95153961  1
  O  O668  1  0.67803385  0.81355849  0.19794450  1
  O  O669  1  0.67702022  0.81442317  0.44891235  1
  O  O670  1  0.67727980  0.81388890  0.69914933  1
  O  O671  1  0.67852080  0.81351244  0.94872736  1
