# generated using pymatgen
data_Na2MnFe(PO4)2
_symmetry_space_group_name_H-M   'P 1'
_cell_length_a   22.33870448
_cell_length_b   20.09133590
_cell_length_c   19.45599133
_cell_angle_alpha   89.98730495
_cell_angle_beta   89.93528613
_cell_angle_gamma   89.98716481
_symmetry_Int_Tables_number   1
_chemical_formula_structural   Na2MnFe(PO4)2
_chemical_formula_sum   'Na96 Mn48 Fe48 P96 O384'
_cell_volume   8732.12336944
_cell_formula_units_Z   48
loop_
 _symmetry_equiv_pos_site_id
 _symmetry_equiv_pos_as_xyz
  1  'x, y, z'
loop_
 _atom_site_type_symbol
 _atom_site_label
 _atom_site_symmetry_multiplicity
 _atom_site_fract_x
 _atom_site_fract_y
 _atom_site_fract_z
 _atom_site_occupancy
  Na  Na0  1  0.14091806  0.25011393  0.24217020  1
  Na  Na1  1  0.14105580  0.25087384  0.49279236  1
  Na  Na2  1  0.14140180  0.25010540  0.74403036  1
  Na  Na3  1  0.14115345  0.25029841  0.99389751  1
  Na  Na4  1  0.14079486  0.58388094  0.24320136  1
  Na  Na5  1  0.14092771  0.58295955  0.49332295  1
  Na  Na6  1  0.14070302  0.58354648  0.74373706  1
  Na  Na7  1  0.14104831  0.58250578  0.99299673  1
  Na  Na8  1  0.14113969  0.91756900  0.24347285  1
  Na  Na9  1  0.14093359  0.91627375  0.49419287  1
  Na  Na10  1  0.14057147  0.91698469  0.74288688  1
  Na  Na11  1  0.14085152  0.91632031  0.99378917  1
  Na  Na12  1  0.64032140  0.25094997  0.24485003  1
  Na  Na13  1  0.63961393  0.24992338  0.49483511  1
  Na  Na14  1  0.63976262  0.24930222  0.74269927  1
  Na  Na15  1  0.64054668  0.24902726  0.99297820  1
  Na  Na16  1  0.63994264  0.58326672  0.24372995  1
  Na  Na17  1  0.64045119  0.58316380  0.49440583  1
  Na  Na18  1  0.64037402  0.58293070  0.74349454  1
  Na  Na19  1  0.63992075  0.58185170  0.99324629  1
  Na  Na20  1  0.63996884  0.91812409  0.24343113  1
  Na  Na21  1  0.64019254  0.91695009  0.49558263  1
  Na  Na22  1  0.64074547  0.91670687  0.74330089  1
  Na  Na23  1  0.64000474  0.91645105  0.99416027  1
  Na  Na24  1  0.35935219  0.08307015  0.00732855  1
  Na  Na25  1  0.35934140  0.08330622  0.25606112  1
  Na  Na26  1  0.35907545  0.08430473  0.50657320  1
  Na  Na27  1  0.35928875  0.08416438  0.75671063  1
  Na  Na28  1  0.35971809  0.41585815  0.00708161  1
  Na  Na29  1  0.35966836  0.41616959  0.25670121  1
  Na  Na30  1  0.35932749  0.41653934  0.50643176  1
  Na  Na31  1  0.35913559  0.41627739  0.75737606  1
  Na  Na32  1  0.35920794  0.74908087  0.00639874  1
  Na  Na33  1  0.35889977  0.75035164  0.25693567  1
  Na  Na34  1  0.35925776  0.74925066  0.50736570  1
  Na  Na35  1  0.35959192  0.74961182  0.75705476  1
  Na  Na36  1  0.85952663  0.08265381  0.00567000  1
  Na  Na37  1  0.85930740  0.08454133  0.25525568  1
  Na  Na38  1  0.85934210  0.08368119  0.50731224  1
  Na  Na39  1  0.85971322  0.08373194  0.75593971  1
  Na  Na40  1  0.85915470  0.41562380  0.00501454  1
  Na  Na41  1  0.86003684  0.41698452  0.25626538  1
  Na  Na42  1  0.85980350  0.41685005  0.50607497  1
  Na  Na43  1  0.85926867  0.41635082  0.75528046  1
  Na  Na44  1  0.86011712  0.74975753  0.00609696  1
  Na  Na45  1  0.85975058  0.75070362  0.25498038  1
  Na  Na46  1  0.85944957  0.75117783  0.50705702  1
  Na  Na47  1  0.85978248  0.74958764  0.75640979  1
  Na  Na48  1  0.11032674  0.08290608  0.11781790  1
  Na  Na49  1  0.11042094  0.08413028  0.36781248  1
  Na  Na50  1  0.11015131  0.08143794  0.61776890  1
  Na  Na51  1  0.11032789  0.08408990  0.86924027  1
  Na  Na52  1  0.11044390  0.41624928  0.11779844  1
  Na  Na53  1  0.11015214  0.41882688  0.36786479  1
  Na  Na54  1  0.11093006  0.41710120  0.61818361  1
  Na  Na55  1  0.11076699  0.41761030  0.86797238  1
  Na  Na56  1  0.11013832  0.74964519  0.11833300  1
  Na  Na57  1  0.11017488  0.75024613  0.36901335  1
  Na  Na58  1  0.10989729  0.74895489  0.61844329  1
  Na  Na59  1  0.10991638  0.75090823  0.86862332  1
  Na  Na60  1  0.60976661  0.08330774  0.11867630  1
  Na  Na61  1  0.60946333  0.08482889  0.36981616  1
  Na  Na62  1  0.60959970  0.08473308  0.61884777  1
  Na  Na63  1  0.60940516  0.08237600  0.86799157  1
  Na  Na64  1  0.60953375  0.41600017  0.11944534  1
  Na  Na65  1  0.60955140  0.41571035  0.36943898  1
  Na  Na66  1  0.60951947  0.41480822  0.61913463  1
  Na  Na67  1  0.60965369  0.41654108  0.86750404  1
  Na  Na68  1  0.60887397  0.74986807  0.11871228  1
  Na  Na69  1  0.60923917  0.75027387  0.36920366  1
  Na  Na70  1  0.60985451  0.74980944  0.61946311  1
  Na  Na71  1  0.60919876  0.74978616  0.86842873  1
  Na  Na72  1  0.39007508  0.24978106  0.13235704  1
  Na  Na73  1  0.38988117  0.25027887  0.38130827  1
  Na  Na74  1  0.38968884  0.25029888  0.63197974  1
  Na  Na75  1  0.38954147  0.24975652  0.88219201  1
  Na  Na76  1  0.38979022  0.58104542  0.13206935  1
  Na  Na77  1  0.38962879  0.58176689  0.38188602  1
  Na  Na78  1  0.39007511  0.58256559  0.63259877  1
  Na  Na79  1  0.38982267  0.58299885  0.88199934  1
  Na  Na80  1  0.38969422  0.91704707  0.13207211  1
  Na  Na81  1  0.38983558  0.91877426  0.38173495  1
  Na  Na82  1  0.38966698  0.91646882  0.63262979  1
  Na  Na83  1  0.39034901  0.91615767  0.88092922  1
  Na  Na84  1  0.89029378  0.24938736  0.13044541  1
  Na  Na85  1  0.89055544  0.25232450  0.38107983  1
  Na  Na86  1  0.89033838  0.24978873  0.63130650  1
  Na  Na87  1  0.89015831  0.25022414  0.88036370  1
  Na  Na88  1  0.89061465  0.58314398  0.13003893  1
  Na  Na89  1  0.89070974  0.58499435  0.38071945  1
  Na  Na90  1  0.89042473  0.58325491  0.63101248  1
  Na  Na91  1  0.89040431  0.58445951  0.88085488  1
  Na  Na92  1  0.89057084  0.91521995  0.13028030  1
  Na  Na93  1  0.89016084  0.91708061  0.38108820  1
  Na  Na94  1  0.89013011  0.91561404  0.63218603  1
  Na  Na95  1  0.89028516  0.91728915  0.88093961  1
  Mn  Mn96  1  0.00081963  0.83249004  0.24988034  1
  Mn  Mn97  1  -0.00042022  -0.00094039  0.49928740  1
  Mn  Mn98  1  0.49962218  0.00012107  0.74984999  1
  Mn  Mn99  1  0.49906616  0.83376566  -0.00008928  1
  Mn  Mn100  1  0.50065950  0.33351348  0.00045721  1
  Mn  Mn101  1  0.50015031  0.16650939  0.25033711  1
  Mn  Mn102  1  0.74959526  0.33265439  0.12469138  1
  Mn  Mn103  1  0.00016718  0.66696286  0.49968227  1
  Mn  Mn104  1  0.74936486  0.66752007  0.37460627  1
  Mn  Mn105  1  0.00095692  0.33482465  0.49997062  1
  Mn  Mn106  1  0.00109452  0.16582586  0.74977535  1
  Mn  Mn107  1  0.49922745  0.83354301  0.50018102  1
  Mn  Mn108  1  0.49995528  0.00139610  0.50155355  1
  Mn  Mn109  1  0.00016406  -0.00009530  0.24961064  1
  Mn  Mn110  1  0.00055879  0.50072696  0.24871421  1
  Mn  Mn111  1  0.74957714  0.49950246  0.62459131  1
  Mn  Mn112  1  0.00008350  0.33293267  -0.00109509  1
  Mn  Mn113  1  0.75025518  0.66729318  0.12401785  1
  Mn  Mn114  1  0.00017528  0.83318830  0.75051950  1
  Mn  Mn115  1  0.74977577  0.49947869  0.12462061  1
  Mn  Mn116  1  0.50029149  0.49847567  0.50139083  1
  Mn  Mn117  1  0.50013924  0.16573286  0.00084153  1
  Mn  Mn118  1  0.75055684  0.49984051  0.37533046  1
  Mn  Mn119  1  0.00024775  0.00004106  -0.00002535  1
  Mn  Mn120  1  0.25041151  0.83382144  0.37539294  1
  Mn  Mn121  1  0.00033537  0.16700552  0.49937940  1
  Mn  Mn122  1  0.49888072  0.66509108  0.24952601  1
  Mn  Mn123  1  0.74987629  0.00068899  0.37518742  1
  Mn  Mn124  1  -0.00022129  0.16763986  0.24940630  1
  Mn  Mn125  1  0.74966095  0.83370736  0.87471912  1
  Mn  Mn126  1  0.24971931  0.16686939  0.62493252  1
  Mn  Mn127  1  0.25058896  0.83304695  0.87502344  1
  Mn  Mn128  1  0.74964356  0.16608489  0.87409858  1
  Mn  Mn129  1  0.25054600  0.00053725  0.87517157  1
  Mn  Mn130  1  0.24950340  0.33345060  0.37447393  1
  Mn  Mn131  1  0.74923714  0.66587029  0.87512156  1
  Mn  Mn132  1  -0.00009653  0.50079642  -0.00041717  1
  Mn  Mn133  1  0.49956625  0.66615349  0.50005328  1
  Mn  Mn134  1  0.74978153  0.16805709  0.37643597  1
  Mn  Mn135  1  0.49921449  0.66557341  0.00013646  1
  Mn  Mn136  1  0.25057471  0.66618512  0.62541097  1
  Mn  Mn137  1  0.49934437  0.83412398  0.24969665  1
  Mn  Mn138  1  0.75009357  0.00017076  0.12506129  1
  Mn  Mn139  1  0.25037447  0.66595379  0.12518754  1
  Mn  Mn140  1  -0.00010018  0.50120507  0.74951695  1
  Mn  Mn141  1  0.74977936  0.83405053  0.37590611  1
  Mn  Mn142  1  0.00055148  0.33358107  0.74929631  1
  Mn  Mn143  1  0.49977248  0.49965788  0.75002412  1
  Fe  Fe144  1  0.49918301  0.16678846  0.75018346  1
  Fe  Fe145  1  0.50024301  0.33319434  0.25062988  1
  Fe  Fe146  1  0.25010085  0.33393594  0.62535258  1
  Fe  Fe147  1  0.00024846  -0.00021370  0.75010537  1
  Fe  Fe148  1  0.74987493  0.83361129  0.62536062  1
  Fe  Fe149  1  0.25029104  0.50015097  0.62521665  1
  Fe  Fe150  1  0.25014499  0.16679337  0.12506185  1
  Fe  Fe151  1  0.00007126  0.50096300  0.49916148  1
  Fe  Fe152  1  0.00060139  0.83316691  -0.00032911  1
  Fe  Fe153  1  0.24993856  0.16622067  0.37411141  1
  Fe  Fe154  1  0.25019173  0.66636778  0.37533241  1
  Fe  Fe155  1  0.75003529  0.16704209  0.62534779  1
  Fe  Fe156  1  0.00009522  0.83298358  0.50030588  1
  Fe  Fe157  1  0.25005614  0.00047724  0.12517811  1
  Fe  Fe158  1  0.49927103  0.16767767  0.49990496  1
  Fe  Fe159  1  0.49994828  0.66632965  0.75078311  1
  Fe  Fe160  1  0.24996298  0.49979029  0.37495200  1
  Fe  Fe161  1  0.00028132  0.16665089  -0.00044695  1
  Fe  Fe162  1  0.74995341  0.33254330  0.87430517  1
  Fe  Fe163  1  0.49986361  -0.00042687  -0.00051816  1
  Fe  Fe164  1  0.24997889  0.00031628  0.37468079  1
  Fe  Fe165  1  0.00008399  0.66708941  0.24984064  1
  Fe  Fe166  1  0.25030547  0.00041899  0.62475100  1
  Fe  Fe167  1  0.74992451  -0.00002503  0.87445883  1
  Fe  Fe168  1  0.00088424  0.66727953  -0.00010425  1
  Fe  Fe169  1  0.25037017  0.49923423  0.87523071  1
  Fe  Fe170  1  0.49945645  0.33264517  0.75003517  1
  Fe  Fe171  1  0.75042173  0.66654771  0.62517001  1
  Fe  Fe172  1  0.24989372  0.83329993  0.12562623  1
  Fe  Fe173  1  0.74993113  0.16681132  0.12476489  1
  Fe  Fe174  1  0.25006997  0.16731233  0.87587916  1
  Fe  Fe175  1  0.25000870  0.83321935  0.62481037  1
  Fe  Fe176  1  0.50014642  0.49928340  0.00011210  1
  Fe  Fe177  1  0.75015932  0.33324659  0.37543928  1
  Fe  Fe178  1  0.50018958  0.83285880  0.75080588  1
  Fe  Fe179  1  0.25021654  0.49947496  0.12463528  1
  Fe  Fe180  1  0.49985437  0.00048891  0.25074552  1
  Fe  Fe181  1  0.74995872  0.00035720  0.62545602  1
  Fe  Fe182  1  0.25013806  0.33325457  0.87557106  1
  Fe  Fe183  1  0.24962399  0.66605114  0.87518536  1
  Fe  Fe184  1  0.00050160  0.33395120  0.24934913  1
  Fe  Fe185  1  0.49995725  0.49876585  0.25096425  1
  Fe  Fe186  1  0.49912225  0.33259328  0.50007937  1
  Fe  Fe187  1  0.75022518  0.49905609  0.87372169  1
  Fe  Fe188  1  0.00028385  0.66731692  0.74998936  1
  Fe  Fe189  1  0.74951822  0.83371398  0.12466010  1
  Fe  Fe190  1  0.25033127  0.33337798  0.12473159  1
  Fe  Fe191  1  0.74950173  0.33308329  0.62545618  1
  P  P192  1  0.04243925  0.24903275  0.10207898  1
  P  P193  1  0.04292764  0.25230282  0.35181650  1
  P  P194  1  0.04361494  0.24983911  0.60265613  1
  P  P195  1  0.04325772  0.24981803  0.85297565  1
  P  P196  1  0.04273397  0.58484747  0.10222147  1
  P  P197  1  0.04236159  0.58496874  0.35206694  1
  P  P198  1  0.04268927  0.58249294  0.60216226  1
  P  P199  1  0.04242022  0.58582801  0.85264916  1
  P  P200  1  0.04281205  0.91499266  0.10208168  1
  P  P201  1  0.04323831  0.91637852  0.35327401  1
  P  P202  1  0.04216514  0.91503271  0.60270089  1
  P  P203  1  0.04278352  0.91804309  0.85269339  1
  P  P204  1  0.54291390  0.24997324  0.10376568  1
  P  P205  1  0.54175408  0.25114490  0.35342133  1
  P  P206  1  0.54058780  0.24991758  0.60257970  1
  P  P207  1  0.54092759  0.24951462  0.85164585  1
  P  P208  1  0.54181904  0.58077108  0.10296140  1
  P  P209  1  0.54198579  0.58152869  0.35276549  1
  P  P210  1  0.54252571  0.58328980  0.60411114  1
  P  P211  1  0.54206815  0.58373644  0.85282203  1
  P  P212  1  0.54157033  0.91832554  0.10276464  1
  P  P213  1  0.54209687  0.91838766  0.35287672  1
  P  P214  1  0.54192565  0.91636904  0.60424433  1
  P  P215  1  0.54223478  0.91584348  0.85255448  1
  P  P216  1  0.45779122  0.08166442  0.14756884  1
  P  P217  1  0.45756886  0.08490904  0.39792308  1
  P  P218  1  0.45720253  0.08550420  0.64755262  1
  P  P219  1  0.45748087  0.08221773  0.89752265  1
  P  P220  1  0.45848451  0.41622541  0.14876180  1
  P  P221  1  0.45772158  0.41510772  0.39751246  1
  P  P222  1  0.45751969  0.41450598  0.64783953  1
  P  P223  1  0.45791717  0.41727913  0.89765806  1
  P  P224  1  0.45632429  0.74959125  0.14697637  1
  P  P225  1  0.45638059  0.74992581  0.39695701  1
  P  P226  1  0.45842534  0.74963023  0.64923319  1
  P  P227  1  0.45703860  0.74961879  0.89637392  1
  P  P228  1  0.95745471  0.08345325  0.14601719  1
  P  P229  1  0.95697862  0.08389251  0.39651994  1
  P  P230  1  0.95801104  0.08148302  0.64738521  1
  P  P231  1  0.95790566  0.08437907  0.89708613  1
  P  P232  1  0.95793634  0.41543721  0.14689391  1
  P  P233  1  0.95821172  0.41879278  0.39670097  1
  P  P234  1  0.95752545  0.41749470  0.64600265  1
  P  P235  1  0.95737842  0.41747163  0.89624214  1
  P  P236  1  0.95834951  0.74841679  0.14639910  1
  P  P237  1  0.95762288  0.75138412  0.39745987  1
  P  P238  1  0.95804164  0.74895723  0.64742070  1
  P  P239  1  0.95872428  0.75027022  0.89803681  1
  P  P240  1  0.20853509  0.08377628  0.22686756  1
  P  P241  1  0.20879100  0.08338095  0.47645546  1
  P  P242  1  0.20784249  0.08241158  0.72748012  1
  P  P243  1  0.20843986  0.08491033  0.97837549  1
  P  P244  1  0.20883028  0.41693053  0.22642311  1
  P  P245  1  0.20796651  0.41813423  0.47767720  1
  P  P246  1  0.20911289  0.41730566  0.72743730  1
  P  P247  1  0.20894924  0.41632761  0.97719978  1
  P  P248  1  0.20808198  0.75079854  0.22781550  1
  P  P249  1  0.20828878  0.74887168  0.47777016  1
  P  P250  1  0.20805379  0.75089413  0.72752533  1
  P  P251  1  0.20829789  0.74853469  0.97770899  1
  P  P252  1  0.70741623  0.08531830  0.22755372  1
  P  P253  1  0.70735339  0.08362464  0.47972823  1
  P  P254  1  0.70837150  0.08331214  0.72678981  1
  P  P255  1  0.70756328  0.08180428  0.97718345  1
  P  P256  1  0.70734695  0.41622101  0.22861343  1
  P  P257  1  0.70777912  0.41492957  0.47808083  1
  P  P258  1  0.70755420  0.41526522  0.72799599  1
  P  P259  1  0.70834853  0.41580955  0.97565064  1
  P  P260  1  0.70707013  0.75164828  0.22702744  1
  P  P261  1  0.70706177  0.75020563  0.47958745  1
  P  P262  1  0.70891210  0.74973868  0.72666700  1
  P  P263  1  0.70683715  0.75032355  0.97822236  1
  P  P264  1  0.29180650  0.24987182  0.02330254  1
  P  P265  1  0.29181541  0.24860738  0.27174396  1
  P  P266  1  0.29163654  0.25158526  0.52252784  1
  P  P267  1  0.29103883  0.25016713  0.77367407  1
  P  P268  1  0.29233416  0.58114369  0.02203761  1
  P  P269  1  0.29121206  0.58312630  0.27324892  1
  P  P270  1  0.29258556  0.58190123  0.52235185  1
  P  P271  1  0.29125901  0.58258055  0.77365909  1
  P  P272  1  0.29123496  0.91648086  0.02399563  1
  P  P273  1  0.29202692  0.91826939  0.27208584  1
  P  P274  1  0.29156679  0.91695765  0.52325859  1
  P  P275  1  0.29269966  0.91689680  0.77114378  1
  P  P276  1  0.79205088  0.24843496  0.02167218  1
  P  P277  1  0.79246759  0.25118477  0.27260427  1
  P  P278  1  0.79151216  0.25068844  0.52374402  1
  P  P279  1  0.79185749  0.25084394  0.77136253  1
  P  P280  1  0.79255448  0.58236101  0.02073606  1
  P  P281  1  0.79279742  0.58385710  0.27160736  1
  P  P282  1  0.79234023  0.58447835  0.52263280  1
  P  P283  1  0.79195070  0.58219356  0.77179135  1
  P  P284  1  0.79233121  0.91567380  0.02205289  1
  P  P285  1  0.79258245  0.91690082  0.27154573  1
  P  P286  1  0.79152869  0.91732974  0.52412309  1
  P  P287  1  0.79194498  0.91811317  0.77152564  1
  O  O288  1  0.03707743  0.25001773  0.18199394  1
  O  O289  1  0.03810441  0.25216400  0.43180453  1
  O  O290  1  0.03871946  0.24960829  0.68260634  1
  O  O291  1  0.03788903  0.24929282  0.93288078  1
  O  O292  1  0.03763222  0.58494522  0.18216317  1
  O  O293  1  0.03707586  0.58403045  0.43196744  1
  O  O294  1  0.03764584  0.58313636  0.68206109  1
  O  O295  1  0.03719046  0.58601938  0.93257700  1
  O  O296  1  0.03777573  0.91522614  0.18200422  1
  O  O297  1  0.03791186  0.91587919  0.43321008  1
  O  O298  1  0.03705985  0.91586392  0.68264279  1
  O  O299  1  0.03773518  0.91740167  0.93259417  1
  O  O300  1  0.53780610  0.25039706  0.18365459  1
  O  O301  1  0.53610919  0.25078572  0.43326445  1
  O  O302  1  0.53543338  0.24969429  0.68248980  1
  O  O303  1  0.53661033  0.24970876  0.93163815  1
  O  O304  1  0.53649750  0.58043697  0.18290914  1
  O  O305  1  0.53708702  0.58189412  0.43276506  1
  O  O306  1  0.53722263  0.58388785  0.68404073  1
  O  O307  1  0.53706914  0.58300756  0.93275293  1
  O  O308  1  0.53626284  0.91854348  0.18269835  1
  O  O309  1  0.53685145  0.91812478  0.43284137  1
  O  O310  1  0.53660416  0.91574075  0.68414150  1
  O  O311  1  0.53690525  0.91653167  0.93247837  1
  O  O312  1  0.46294789  0.08132267  0.06762746  1
  O  O313  1  0.46288612  0.08405343  0.31801803  1
  O  O314  1  0.46246126  0.08604487  0.56765983  1
  O  O315  1  0.46265467  0.08308773  0.81760714  1
  O  O316  1  0.46353435  0.41674295  0.06880181  1
  O  O317  1  0.46316866  0.41557625  0.31764806  1
  O  O318  1  0.46243373  0.41425668  0.56790969  1
  O  O319  1  0.46272997  0.41678057  0.81775833  1
  O  O320  1  0.46141947  0.74966091  0.06701992  1
  O  O321  1  0.46126263  0.74991969  0.31699536  1
  O  O322  1  0.46308263  0.74956847  0.56920720  1
  O  O323  1  0.46270384  0.74964567  0.81648696  1
  O  O324  1  0.96275939  0.08388969  0.06607738  1
  O  O325  1  0.96198892  0.08401425  0.31655508  1
  O  O326  1  0.96271616  0.08165018  0.56741889  1
  O  O327  1  0.96333841  0.08355493  0.81718145  1
  O  O328  1  0.96292152  0.41567430  0.06695065  1
  O  O329  1  0.96350669  0.41795270  0.31677345  1
  O  O330  1  0.96271460  0.41824385  0.56605444  1
  O  O331  1  0.96246754  0.41752580  0.81632407  1
  O  O332  1  0.96395888  0.74866635  0.06652912  1
  O  O333  1  0.96269415  0.75061171  0.31754472  1
  O  O334  1  0.96306098  0.74981396  0.56752556  1
  O  O335  1  0.96368657  0.74988461  0.81805010  1
  O  O336  1  0.21386522  0.08484886  0.05817539  1
  O  O337  1  0.21337685  0.08345602  0.30675536  1
  O  O338  1  0.21392607  0.08305532  0.55637813  1
  O  O339  1  0.21262842  0.08285236  0.80733595  1
  O  O340  1  0.21366343  0.41607839  0.05705606  1
  O  O341  1  0.21335546  0.41685172  0.30635154  1
  O  O342  1  0.21287927  0.41824942  0.55747120  1
  O  O343  1  0.21419080  0.41725315  0.80727574  1
  O  O344  1  0.21321365  0.74869870  0.05756590  1
  O  O345  1  0.21350836  0.75037197  0.30767111  1
  O  O346  1  0.21375285  0.74924377  0.55765600  1
  O  O347  1  0.21312359  0.75040229  0.80740488  1
  O  O348  1  0.71271578  0.08250811  0.05705798  1
  O  O349  1  0.71243153  0.08524421  0.30750826  1
  O  O350  1  0.71277153  0.08351928  0.55959758  1
  O  O351  1  0.71323090  0.08300288  0.80675135  1
  O  O352  1  0.71320563  0.41588996  0.05563914  1
  O  O353  1  0.71268323  0.41589255  0.30850188  1
  O  O354  1  0.71300363  0.41494221  0.55801688  1
  O  O355  1  0.71315007  0.41555163  0.80780485  1
  O  O356  1  0.71203082  0.75093076  0.05811407  1
  O  O357  1  0.71204808  0.75150985  0.30704295  1
  O  O358  1  0.71262785  0.74973078  0.55946067  1
  O  O359  1  0.71338475  0.74989395  0.80664863  1
  O  O360  1  0.28666309  0.24864146  0.19192698  1
  O  O361  1  0.28670184  0.25140173  0.44270743  1
  O  O362  1  0.28617748  0.25060271  0.69379475  1
  O  O363  1  0.28689054  0.25010500  0.94344681  1
  O  O364  1  0.28625576  0.58250824  0.19332471  1
  O  O365  1  0.28731980  0.58248199  0.44255026  1
  O  O366  1  0.28654584  0.58264376  0.69372238  1
  O  O367  1  0.28693700  0.58112930  0.94226269  1
  O  O368  1  0.28665370  0.91784368  0.19228655  1
  O  O369  1  0.28651816  0.91757997  0.44332385  1
  O  O370  1  0.28731201  0.91680811  0.69130654  1
  O  O371  1  0.28652124  0.91680459  0.94403703  1
  O  O372  1  0.78718019  0.25027607  0.19269930  1
  O  O373  1  0.78653709  0.25121419  0.44377759  1
  O  O374  1  0.78650458  0.25055566  0.69151724  1
  O  O375  1  0.78685493  0.24884585  0.94177611  1
  O  O376  1  0.78785461  0.58371585  0.19163627  1
  O  O377  1  0.78711941  0.58436266  0.44271640  1
  O  O378  1  0.78658617  0.58304625  0.69187379  1
  O  O379  1  0.78718428  0.58174958  0.94080752  1
  O  O380  1  0.78742364  0.91628854  0.19162058  1
  O  O381  1  0.78697974  0.91716080  0.44411630  1
  O  O382  1  0.78641387  0.91792533  0.69169419  1
  O  O383  1  0.78713323  0.91633339  0.94214895  1
  O  O384  1  0.22770666  0.24965101  0.05953731  1
  O  O385  1  0.22765550  0.24830511  0.30790202  1
  O  O386  1  0.22745171  0.25157806  0.55846604  1
  O  O387  1  0.22701553  0.24972308  0.80997714  1
  O  O388  1  0.22815255  0.58119853  0.05823873  1
  O  O389  1  0.22714009  0.58401096  0.30943763  1
  O  O390  1  0.22837179  0.58174081  0.55845657  1
  O  O391  1  0.22710142  0.58200135  0.80961109  1
  O  O392  1  0.22706331  0.91591769  0.05981422  1
  O  O393  1  0.22791499  0.91824279  0.30838039  1
  O  O394  1  0.22747080  0.91638739  0.55948051  1
  O  O395  1  0.22854812  0.91693210  0.80713188  1
  O  O396  1  0.72775210  0.24818330  0.05753157  1
  O  O397  1  0.72813376  0.25209028  0.30846196  1
  O  O398  1  0.72725294  0.25027065  0.55964486  1
  O  O399  1  0.72768353  0.25105319  0.80750723  1
  O  O400  1  0.72823500  0.58303159  0.05621103  1
  O  O401  1  0.72833842  0.58328345  0.30668783  1
  O  O402  1  0.72802303  0.58459883  0.55825054  1
  O  O403  1  0.72771136  0.58156775  0.80767183  1
  O  O404  1  0.72804642  0.91551752  0.05793348  1
  O  O405  1  0.72817376  0.91719936  0.30689802  1
  O  O406  1  0.72723556  0.91775144  0.55966032  1
  O  O407  1  0.72779214  0.91832106  0.80777398  1
  O  O408  1  0.27267747  0.08418460  0.19074179  1
  O  O409  1  0.27286377  0.08375171  0.44013202  1
  O  O410  1  0.27219163  0.08235859  0.69182668  1
  O  O411  1  0.27252978  0.08521441  0.94200484  1
  O  O412  1  0.27308618  0.41732266  0.19059263  1
  O  O413  1  0.27215014  0.41762931  0.44163424  1
  O  O414  1  0.27310581  0.41776493  0.69083605  1
  O  O415  1  0.27309625  0.41671905  0.94106119  1
  O  O416  1  0.27225228  0.75107554  0.19168219  1
  O  O417  1  0.27242022  0.74856459  0.44164891  1
  O  O418  1  0.27234909  0.75135445  0.69173387  1
  O  O419  1  0.27256205  0.74850606  0.94197744  1
  O  O420  1  0.77175558  0.08517213  0.19188549  1
  O  O421  1  0.77157871  0.08383917  0.44387943  1
  O  O422  1  0.77258763  0.08320568  0.69091869  1
  O  O423  1  0.77184054  0.08177546  0.94133204  1
  O  O424  1  0.77165355  0.41607477  0.19307260  1
  O  O425  1  0.77208436  0.41485250  0.44224274  1
  O  O426  1  0.77165383  0.41511059  0.69170245  1
  O  O427  1  0.77259923  0.41535396  0.93981218  1
  O  O428  1  0.77150437  0.75200913  0.19155523  1
  O  O429  1  0.77133971  0.75024073  0.44377549  1
  O  O430  1  0.77316940  0.74958942  0.69111747  1
  O  O431  1  0.77119689  0.74991350  0.94290040  1
  O  O432  1  0.02180019  0.08357702  0.18128914  1
  O  O433  1  0.02152998  0.08332644  0.43121264  1
  O  O434  1  0.02250152  0.08107492  0.68242931  1
  O  O435  1  0.02213880  0.08495929  0.93291388  1
  O  O436  1  0.02238313  0.41557946  0.18209614  1
  O  O437  1  0.02252223  0.41951615  0.43237069  1
  O  O438  1  0.02193182  0.41756194  0.68111261  1
  O  O439  1  0.02182144  0.41727434  0.93116076  1
  O  O440  1  0.02249094  0.74788331  0.18258785  1
  O  O441  1  0.02201528  0.75180620  0.43289635  1
  O  O442  1  0.02235891  0.74889382  0.68296946  1
  O  O443  1  0.02298297  0.75072287  0.93375562  1
  O  O444  1  0.52204234  0.08164257  0.18328649  1
  O  O445  1  0.52177671  0.08559126  0.43373493  1
  O  O446  1  0.52146336  0.08544346  0.68326841  1
  O  O447  1  0.52184042  0.08144791  0.93307243  1
  O  O448  1  0.52263257  0.41619829  0.18476787  1
  O  O449  1  0.52183719  0.41431060  0.43367405  1
  O  O450  1  0.52182590  0.41491753  0.68321387  1
  O  O451  1  0.52234169  0.41777955  0.93301617  1
  O  O452  1  0.52071591  0.74941895  0.18197435  1
  O  O453  1  0.52091739  0.75004228  0.43172355  1
  O  O454  1  0.52269671  0.74958693  0.68481867  1
  O  O455  1  0.52114394  0.74971247  0.93226066  1
  O  O456  1  0.47856174  0.24989591  0.06856892  1
  O  O457  1  0.47775697  0.25124563  0.31705374  1
  O  O458  1  0.47654971  0.24997407  0.56615168  1
  O  O459  1  0.47652385  0.24884996  0.81645516  1
  O  O460  1  0.47755600  0.58057980  0.06725470  1
  O  O461  1  0.47755492  0.58098718  0.31754640  1
  O  O462  1  0.47817113  0.58254333  0.56890565  1
  O  O463  1  0.47773440  0.58414906  0.81737887  1
  O  O464  1  0.47728628  0.91863968  0.06700253  1
  O  O465  1  0.47771426  0.91863213  0.31746058  1
  O  O466  1  0.47765519  0.91706113  0.56881795  1
  O  O467  1  0.47797610  0.91530652  0.81695630  1
  O  O468  1  0.97820232  0.24826705  0.06628670  1
  O  O469  1  0.97843446  0.25273318  0.31678622  1
  O  O470  1  0.97908223  0.25041123  0.56793733  1
  O  O471  1  0.97893825  0.24983333  0.81766951  1
  O  O472  1  0.97841703  0.58496218  0.06676845  1
  O  O473  1  0.97815746  0.58500438  0.31622135  1
  O  O474  1  0.97836266  0.58216512  0.56657917  1
  O  O475  1  0.97813978  0.58586711  0.81697432  1
  O  O476  1  0.97851118  0.91485482  0.06660595  1
  O  O477  1  0.97887788  0.91632458  0.31804394  1
  O  O478  1  0.97781629  0.91454813  0.56717515  1
  O  O479  1  0.97842354  0.91814061  0.81721615  1
  O  O480  1  0.07346429  0.31259206  0.07382445  1
  O  O481  1  0.07378583  0.31570712  0.32308295  1
  O  O482  1  0.07493551  0.31321144  0.57470190  1
  O  O483  1  0.07412698  0.31362482  0.82510398  1
  O  O484  1  0.07385795  0.64793505  0.07326503  1
  O  O485  1  0.07267248  0.64901546  0.32415641  1
  O  O486  1  0.07377213  0.64605039  0.57397927  1
  O  O487  1  0.07324740  0.64910528  0.82360591  1
  O  O488  1  0.07379267  0.97872375  0.07439922  1
  O  O489  1  0.07396124  0.98020375  0.32516693  1
  O  O490  1  0.07330077  0.97839048  0.57419851  1
  O  O491  1  0.07323303  0.98179946  0.82415699  1
  O  O492  1  0.57420905  0.31310472  0.07502260  1
  O  O493  1  0.57270551  0.31456292  0.32477522  1
  O  O494  1  0.57149444  0.31354552  0.57420024  1
  O  O495  1  0.57088905  0.31361450  0.82306163  1
  O  O496  1  0.57256754  0.64482590  0.07550406  1
  O  O497  1  0.57264039  0.64530992  0.32456074  1
  O  O498  1  0.57346008  0.64650611  0.57520818  1
  O  O499  1  0.57280866  0.64743906  0.82451218  1
  O  O500  1  0.57288664  0.98129891  0.07371869  1
  O  O501  1  0.57288850  0.98203943  0.32469345  1
  O  O502  1  0.57308818  0.98014089  0.57675586  1
  O  O503  1  0.57331358  0.97929001  0.82421611  1
  O  O504  1  0.42665632  0.01869200  0.17677197  1
  O  O505  1  0.42659196  0.02147130  0.42647825  1
  O  O506  1  0.42636526  0.02149133  0.67486507  1
  O  O507  1  0.42650661  0.01855931  0.92548519  1
  O  O508  1  0.42796709  0.35214423  0.17659942  1
  O  O509  1  0.42627870  0.35183866  0.42586914  1
  O  O510  1  0.42695172  0.35112434  0.67708491  1
  O  O511  1  0.42708138  0.35366237  0.92603195  1
  O  O512  1  0.42521297  0.68598731  0.17477744  1
  O  O513  1  0.42565030  0.68630684  0.42530179  1
  O  O514  1  0.42764664  0.68582987  0.67738522  1
  O  O515  1  0.42579139  0.68622534  0.92472290  1
  O  O516  1  0.92672602  0.01954867  0.17381150  1
  O  O517  1  0.92555118  0.02062582  0.42461576  1
  O  O518  1  0.92732954  0.01805707  0.67623881  1
  O  O519  1  0.92686016  0.02083045  0.92525403  1
  O  O520  1  0.92745856  0.35180740  0.17551934  1
  O  O521  1  0.92733006  0.35526519  0.42522508  1
  O  O522  1  0.92688998  0.35352586  0.67378381  1
  O  O523  1  0.92616683  0.35402599  0.92422984  1
  O  O524  1  0.92713092  0.68520923  0.17521878  1
  O  O525  1  0.92652369  0.68791327  0.42577219  1
  O  O526  1  0.92774472  0.68499123  0.67565366  1
  O  O527  1  0.92789913  0.68678746  0.92659609  1
  O  O528  1  0.17817295  0.01990976  0.19802068  1
  O  O529  1  0.17799743  0.01971715  0.44821436  1
  O  O530  1  0.17742602  0.01877693  0.69861424  1
  O  O531  1  0.17734759  0.02118728  0.95060357  1
  O  O532  1  0.17882054  0.35283324  0.19782060  1
  O  O533  1  0.17636073  0.35490003  0.44943875  1
  O  O534  1  0.17887512  0.35322012  0.69895413  1
  O  O535  1  0.17855920  0.35250834  0.94829553  1
  O  O536  1  0.17690079  0.68739115  0.19969940  1
  O  O537  1  0.17747830  0.68528866  0.44944097  1
  O  O538  1  0.17708988  0.68725788  0.69953762  1
  O  O539  1  0.17805929  0.68470180  0.94889551  1
  O  O540  1  0.67628810  0.02173299  0.19981080  1
  O  O541  1  0.67625711  0.02030206  0.45104953  1
  O  O542  1  0.67699205  0.02008656  0.69856461  1
  O  O543  1  0.67719812  0.01800787  0.94877708  1
  O  O544  1  0.67593348  0.35315447  0.20000391  1
  O  O545  1  0.67680443  0.35165949  0.44951199  1
  O  O546  1  0.67649555  0.35185569  0.69946872  1
  O  O547  1  0.67728513  0.35213267  0.94784445  1
  O  O548  1  0.67632098  0.68778039  0.19931157  1
  O  O549  1  0.67566509  0.68713816  0.45066135  1
  O  O550  1  0.67790036  0.68612982  0.69880397  1
  O  O551  1  0.67570226  0.68665595  0.95047065  1
  O  O552  1  0.32222573  0.31374943  0.05210411  1
  O  O553  1  0.32271771  0.31234855  0.29969683  1
  O  O554  1  0.32201374  0.31524572  0.55148694  1
  O  O555  1  0.32166615  0.31379910  0.80237484  1
  O  O556  1  0.32354719  0.64469434  0.05005016  1
  O  O557  1  0.32247499  0.64668066  0.30105362  1
  O  O558  1  0.32376976  0.64529129  0.55098710  1
  O  O559  1  0.32106599  0.64692046  0.80201059  1
  O  O560  1  0.32145515  0.98054490  0.05220108  1
  O  O561  1  0.32271880  0.98182235  0.30083657  1
  O  O562  1  0.32217740  0.98067641  0.55176865  1
  O  O563  1  0.32399055  0.98023839  0.79955940  1
  O  O564  1  0.82325351  0.31194962  0.04959037  1
  O  O565  1  0.82349029  0.31469053  0.30077390  1
  O  O566  1  0.82243705  0.31412328  0.55219572  1
  O  O567  1  0.82292692  0.31414985  0.80004073  1
  O  O568  1  0.82383385  0.64594628  0.04837299  1
  O  O569  1  0.82331858  0.64768027  0.29958874  1
  O  O570  1  0.82322922  0.64787759  0.55116188  1
  O  O571  1  0.82303931  0.64564509  0.80003582  1
  O  O572  1  0.82369239  0.97902379  0.05012411  1
  O  O573  1  0.82343697  0.98072844  0.29936347  1
  O  O574  1  0.82285868  0.98068272  0.55207623  1
  O  O575  1  0.82277935  0.98149808  0.80037147  1
  O  O576  1  0.42705078  0.14575505  0.17499475  1
  O  O577  1  0.42654243  0.14857217  0.42577673  1
  O  O578  1  0.42603784  0.14852809  0.67669819  1
  O  O579  1  0.42672137  0.14573586  0.92623572  1
  O  O580  1  0.42727190  0.47946062  0.17750987  1
  O  O581  1  0.42699172  0.47877716  0.42607776  1
  O  O582  1  0.42629291  0.47817726  0.67550093  1
  O  O583  1  0.42722820  0.48080309  0.92635335  1
  O  O584  1  0.42541567  0.81314639  0.17512079  1
  O  O585  1  0.42538156  0.81343168  0.42524654  1
  O  O586  1  0.42773653  0.81343238  0.67728551  1
  O  O587  1  0.42558066  0.81297757  0.92461992  1
  O  O588  1  0.92595312  0.14653912  0.17452936  1
  O  O589  1  0.92648539  0.14769310  0.42485142  1
  O  O590  1  0.92727472  0.14538974  0.67509525  1
  O  O591  1  0.92698045  0.14801511  0.92515717  1
  O  O592  1  0.92679679  0.47909897  0.17458836  1
  O  O593  1  0.92722959  0.48240937  0.42477187  1
  O  O594  1  0.92593532  0.48041764  0.67473922  1
  O  O595  1  0.92655144  0.48106162  0.92443250  1
  O  O596  1  0.92746114  0.81220001  0.17438733  1
  O  O597  1  0.92693113  0.81497982  0.42605646  1
  O  O598  1  0.92660864  0.81204977  0.67608125  1
  O  O599  1  0.92799200  0.81424456  0.92588413  1
  O  O600  1  0.07337546  0.18540717  0.07402577  1
  O  O601  1  0.07357205  0.18838361  0.32402855  1
  O  O602  1  0.07413608  0.18609243  0.57425405  1
  O  O603  1  0.07471502  0.18669156  0.82453065  1
  O  O604  1  0.07345946  0.52081031  0.07451885  1
  O  O605  1  0.07393617  0.52188652  0.32353395  1
  O  O606  1  0.07341838  0.51899355  0.57351232  1
  O  O607  1  0.07337918  0.52193587  0.82513131  1
  O  O608  1  0.07353511  0.85147272  0.07358140  1
  O  O609  1  0.07477341  0.85331810  0.32476862  1
  O  O610  1  0.07282202  0.85125387  0.57454532  1
  O  O611  1  0.07407716  0.85466260  0.82445387  1
  O  O612  1  0.57374936  0.18631234  0.07551409  1
  O  O613  1  0.57316251  0.18764435  0.32542696  1
  O  O614  1  0.57157545  0.18640985  0.57395050  1
  O  O615  1  0.57223224  0.18612379  0.82348390  1
  O  O616  1  0.57302258  0.51768784  0.07387857  1
  O  O617  1  0.57296735  0.51799553  0.32465401  1
  O  O618  1  0.57379408  0.51957464  0.57655697  1
  O  O619  1  0.57318152  0.52033085  0.82444686  1
  O  O620  1  0.57220464  0.85420231  0.07528722  1
  O  O621  1  0.57302975  0.85471730  0.32482203  1
  O  O622  1  0.57297227  0.85315348  0.57549837  1
  O  O623  1  0.57314374  0.85217114  0.82442583  1
  O  O624  1  0.32319122  0.18656173  0.05161111  1
  O  O625  1  0.32286253  0.18535930  0.30075335  1
  O  O626  1  0.32293447  0.18811026  0.55052829  1
  O  O627  1  0.32193935  0.18642793  0.80171565  1
  O  O628  1  0.32317641  0.51779471  0.05110848  1
  O  O629  1  0.32147788  0.51918516  0.30185689  1
  O  O630  1  0.32349441  0.51848529  0.55104876  1
  O  O631  1  0.32302879  0.51951201  0.80179966  1
  O  O632  1  0.32236833  0.85288015  0.05181285  1
  O  O633  1  0.32343949  0.85490250  0.30034258  1
  O  O634  1  0.32255358  0.85309221  0.55086856  1
  O  O635  1  0.32394412  0.85359354  0.79976267  1
  O  O636  1  0.82256879  0.18477726  0.05030860  1
  O  O637  1  0.82325802  0.18764370  0.30115037  1
  O  O638  1  0.82235584  0.18675933  0.55152615  1
  O  O639  1  0.82301375  0.18724249  0.79941072  1
  O  O640  1  0.82360746  0.51903082  0.04930045  1
  O  O641  1  0.82420783  0.52063828  0.29992289  1
  O  O642  1  0.82332027  0.52064931  0.55006588  1
  O  O643  1  0.82281167  0.51844422  0.79969419  1
  O  O644  1  0.82284160  0.85188504  0.05032807  1
  O  O645  1  0.82383075  0.85378745  0.30036667  1
  O  O646  1  0.82164525  0.85323244  0.55255466  1
  O  O647  1  0.82313309  0.85444648  0.79941287  1
  O  O648  1  0.17714579  0.14704741  0.19845276  1
  O  O649  1  0.17792154  0.14718213  0.44842638  1
  O  O650  1  0.17666827  0.14585207  0.69921073  1
  O  O651  1  0.17749264  0.14825989  0.94953058  1
  O  O652  1  0.17743148  0.48021221  0.19818264  1
  O  O653  1  0.17764288  0.48172225  0.44823020  1
  O  O654  1  0.17760394  0.48051352  0.69895493  1
  O  O655  1  0.17750447  0.47958157  0.94876996  1
  O  O656  1  0.17739748  0.81453571  0.19956275  1
  O  O657  1  0.17706818  0.81241625  0.44997613  1
  O  O658  1  0.17722144  0.81439479  0.69898038  1
  O  O659  1  0.17694282  0.81194089  0.94974775  1
  O  O660  1  0.67699826  0.14900592  0.19897488  1
  O  O661  1  0.67606429  0.14707312  0.45155051  1
  O  O662  1  0.67802152  0.14745840  0.69882720  1
  O  O663  1  0.67608524  0.14505945  0.94886799  1
  O  O664  1  0.67648744  0.47991479  0.20048346  1
  O  O665  1  0.67696859  0.47893124  0.45058856  1
  O  O666  1  0.67628950  0.47875322  0.69982600  1
  O  O667  1  0.67795817  0.47970362  0.94738276  1
  O  O668  1  0.67621548  0.81515276  0.19869430  1
  O  O669  1  0.67602286  0.81389058  0.45158511  1
  O  O670  1  0.67854598  0.81380729  0.69858645  1
  O  O671  1  0.67561987  0.81347303  0.94948532  1
