# generated using pymatgen
data_Na2MnFe(PO4)2
_symmetry_space_group_name_H-M   'P 1'
_cell_length_a   22.34056056
_cell_length_b   20.09607396
_cell_length_c   19.45128531
_cell_angle_alpha   90.01600836
_cell_angle_beta   89.93954591
_cell_angle_gamma   89.92907166
_symmetry_Int_Tables_number   1
_chemical_formula_structural   Na2MnFe(PO4)2
_chemical_formula_sum   'Na96 Mn48 Fe48 P96 O384'
_cell_volume   8732.78964320
_cell_formula_units_Z   48
loop_
 _symmetry_equiv_pos_site_id
 _symmetry_equiv_pos_as_xyz
  1  'x, y, z'
loop_
 _atom_site_type_symbol
 _atom_site_label
 _atom_site_symmetry_multiplicity
 _atom_site_fract_x
 _atom_site_fract_y
 _atom_site_fract_z
 _atom_site_occupancy
  Na  Na0  1  0.14053399  0.24920072  0.24421951  1
  Na  Na1  1  0.14092385  0.25110808  0.49353163  1
  Na  Na2  1  0.13981656  0.24989721  0.74420012  1
  Na  Na3  1  0.13990741  0.24882085  0.99169274  1
  Na  Na4  1  0.14062726  0.58388176  0.24415494  1
  Na  Na5  1  0.14112056  0.58411676  0.49291997  1
  Na  Na6  1  0.14084747  0.58251243  0.74381465  1
  Na  Na7  1  0.14050877  0.58306267  0.99340389  1
  Na  Na8  1  0.13977872  0.91677527  0.24312416  1
  Na  Na9  1  0.14054889  0.91677862  0.49311141  1
  Na  Na10  1  0.13994722  0.91627498  0.74375309  1
  Na  Na11  1  0.13992646  0.91775395  0.99334343  1
  Na  Na12  1  0.64067244  0.24958086  0.24309596  1
  Na  Na13  1  0.64122379  0.24903113  0.49303518  1
  Na  Na14  1  0.64067322  0.24880910  0.74474598  1
  Na  Na15  1  0.63993871  0.24970694  0.99361865  1
  Na  Na16  1  0.64091049  0.58309165  0.24371309  1
  Na  Na17  1  0.64094522  0.58301096  0.49411441  1
  Na  Na18  1  0.64066931  0.58457254  0.74372207  1
  Na  Na19  1  0.64091852  0.58378268  0.99332166  1
  Na  Na20  1  0.64061142  0.91763565  0.24244911  1
  Na  Na21  1  0.64075575  0.91761614  0.49485796  1
  Na  Na22  1  0.64075702  0.91647011  0.74356263  1
  Na  Na23  1  0.64004298  0.91655444  0.99422982  1
  Na  Na24  1  0.35972524  0.08206654  0.00639561  1
  Na  Na25  1  0.35875715  0.08242185  0.25675862  1
  Na  Na26  1  0.35924721  0.08421216  0.50554599  1
  Na  Na27  1  0.35977630  0.08308337  0.75880989  1
  Na  Na28  1  0.35964189  0.41483836  0.00617569  1
  Na  Na29  1  0.35937879  0.41615801  0.25729772  1
  Na  Na30  1  0.35966844  0.41782316  0.50564056  1
  Na  Na31  1  0.35961392  0.41510343  0.75618552  1
  Na  Na32  1  0.35897855  0.75137747  0.00580157  1
  Na  Na33  1  0.35859581  0.75060306  0.25652768  1
  Na  Na34  1  0.35915305  0.75030997  0.50520625  1
  Na  Na35  1  0.35943952  0.74950357  0.75601936  1
  Na  Na36  1  0.86000135  0.08275962  0.00775151  1
  Na  Na37  1  0.85931919  0.08363350  0.25570484  1
  Na  Na38  1  0.85958046  0.08279426  0.50545121  1
  Na  Na39  1  0.86035247  0.08280415  0.75705736  1
  Na  Na40  1  0.85981127  0.41709082  0.00691859  1
  Na  Na41  1  0.85955780  0.41526841  0.25573738  1
  Na  Na42  1  0.85974653  0.41623835  0.50653537  1
  Na  Na43  1  0.86006821  0.41727537  0.75722846  1
  Na  Na44  1  0.85865711  0.75062457  0.00624463  1
  Na  Na45  1  0.85935368  0.75145723  0.25541011  1
  Na  Na46  1  0.85950208  0.75140073  0.50702516  1
  Na  Na47  1  0.85933865  0.75075012  0.75639281  1
  Na  Na48  1  0.10953974  0.08332172  0.11788862  1
  Na  Na49  1  0.11035370  0.08267169  0.36747902  1
  Na  Na50  1  0.10994172  0.08438094  0.61994036  1
  Na  Na51  1  0.10953096  0.08359689  0.86802200  1
  Na  Na52  1  0.10959955  0.41587537  0.11834759  1
  Na  Na53  1  0.11027575  0.41619516  0.36896132  1
  Na  Na54  1  0.11019568  0.41586423  0.61873915  1
  Na  Na55  1  0.10966389  0.41541365  0.86875298  1
  Na  Na56  1  0.10954889  0.75171714  0.11848710  1
  Na  Na57  1  0.10980243  0.75105764  0.36740677  1
  Na  Na58  1  0.11000894  0.75049630  0.61862042  1
  Na  Na59  1  0.10964274  0.75119861  0.86846344  1
  Na  Na60  1  0.60963165  0.08351863  0.11803563  1
  Na  Na61  1  0.61040229  0.08408666  0.36754193  1
  Na  Na62  1  0.60986184  0.08271302  0.62026207  1
  Na  Na63  1  0.61016135  0.08253518  0.86982646  1
  Na  Na64  1  0.60971968  0.41454231  0.11868700  1
  Na  Na65  1  0.61011847  0.41650754  0.36882525  1
  Na  Na66  1  0.61001561  0.41637415  0.61951630  1
  Na  Na67  1  0.60977429  0.41623664  0.86905945  1
  Na  Na68  1  0.60979351  0.75068304  0.11787991  1
  Na  Na69  1  0.60986436  0.75068461  0.36875085  1
  Na  Na70  1  0.61020585  0.74863943  0.61861818  1
  Na  Na71  1  0.60974872  0.75026550  0.86809613  1
  Na  Na72  1  0.39002908  0.24854968  0.13074241  1
  Na  Na73  1  0.39001227  0.25136359  0.38182795  1
  Na  Na74  1  0.39013685  0.24969182  0.63177925  1
  Na  Na75  1  0.39050368  0.24842915  0.88191796  1
  Na  Na76  1  0.39033596  0.58207037  0.13152533  1
  Na  Na77  1  0.38997898  0.58336085  0.38151677  1
  Na  Na78  1  0.39025678  0.58301663  0.63016757  1
  Na  Na79  1  0.39063612  0.58293265  0.88038312  1
  Na  Na80  1  0.38886637  0.91717427  0.13162671  1
  Na  Na81  1  0.38955089  0.91750648  0.38059255  1
  Na  Na82  1  0.39013734  0.91658967  0.63185640  1
  Na  Na83  1  0.38964471  0.91757723  0.88193989  1
  Na  Na84  1  0.88977788  0.24936582  0.13115797  1
  Na  Na85  1  0.88962802  0.24974254  0.38134074  1
  Na  Na86  1  0.89093609  0.24980040  0.63098809  1
  Na  Na87  1  0.89122371  0.25016691  0.88231306  1
  Na  Na88  1  0.89024806  0.58396211  0.13050939  1
  Na  Na89  1  0.89050157  0.58323499  0.38137819  1
  Na  Na90  1  0.89040904  0.58387135  0.63251184  1
  Na  Na91  1  0.89002736  0.58322551  0.88200431  1
  Na  Na92  1  0.88968049  0.91761693  0.13170361  1
  Na  Na93  1  0.88957709  0.91742444  0.38047932  1
  Na  Na94  1  0.89026793  0.91813579  0.63280959  1
  Na  Na95  1  0.88997717  0.91832232  0.88129931  1
  Mn  Mn96  1  0.25077624  0.49870325  0.87396429  1
  Mn  Mn97  1  0.49972502  0.49978577  0.75012603  1
  Mn  Mn98  1  -0.00026493  0.66721945  0.50026403  1
  Mn  Mn99  1  0.75004031  0.50010113  0.12499031  1
  Mn  Mn100  1  0.00092455  0.66748068  0.75085267  1
  Mn  Mn101  1  0.25028729  0.66711570  0.87485095  1
  Mn  Mn102  1  -0.00087397  0.83493367  -0.00058296  1
  Mn  Mn103  1  -0.00006657  0.33275966  0.24907726  1
  Mn  Mn104  1  0.25018002  0.00027351  0.62502975  1
  Mn  Mn105  1  -0.00041350  0.66703669  -0.00019587  1
  Mn  Mn106  1  0.25006816  0.16738985  0.62570172  1
  Mn  Mn107  1  0.50015305  0.16668183  0.50000937  1
  Mn  Mn108  1  0.25022064  0.49984821  0.62464304  1
  Mn  Mn109  1  0.74980299  0.50093428  0.62540815  1
  Mn  Mn110  1  -0.00056183  0.49959805  0.24996585  1
  Mn  Mn111  1  0.50092210  0.33379285  0.50103171  1
  Mn  Mn112  1  0.00027835  0.83437519  0.49995248  1
  Mn  Mn113  1  0.00040546  0.66744377  0.24991155  1
  Mn  Mn114  1  0.25017186  0.66775459  0.12451568  1
  Mn  Mn115  1  0.00057244  0.49922935  0.75053599  1
  Mn  Mn116  1  0.24962833  0.33233782  0.12558793  1
  Mn  Mn117  1  0.00063682  0.00039378  0.50031679  1
  Mn  Mn118  1  0.75072751  0.16556859  0.87537890  1
  Mn  Mn119  1  0.49884142  0.83438663  -0.00079457  1
  Mn  Mn120  1  0.75047962  0.33301628  0.62546760  1
  Mn  Mn121  1  0.49986005  0.33177465  0.74968099  1
  Mn  Mn122  1  0.49976202  0.66663431  -0.00003002  1
  Mn  Mn123  1  0.49976507  0.83329398  0.75031925  1
  Mn  Mn124  1  0.49993345  0.66587524  0.49917218  1
  Mn  Mn125  1  0.24980238  0.49985636  0.12514744  1
  Mn  Mn126  1  0.74918280  0.83463906  0.37544169  1
  Mn  Mn127  1  0.00069053  0.49881356  0.50098483  1
  Mn  Mn128  1  0.75057766  0.33372008  0.87507990  1
  Mn  Mn129  1  0.00017637  0.16720353  0.49987820  1
  Mn  Mn130  1  0.50044998  0.49875345  0.24977154  1
  Mn  Mn131  1  0.49958385  0.16684022  0.24943273  1
  Mn  Mn132  1  0.75112444  0.49915211  0.37424816  1
  Mn  Mn133  1  0.25053203  0.83271539  0.62399000  1
  Mn  Mn134  1  0.49990204  0.00056611  0.50055686  1
  Mn  Mn135  1  0.74969572  0.83368783  0.87522413  1
  Mn  Mn136  1  0.00066633  0.16613067  0.24966195  1
  Mn  Mn137  1  0.50053545  0.49842120  0.00031787  1
  Mn  Mn138  1  0.75021072  0.66737781  0.37490568  1
  Mn  Mn139  1  0.50037183  0.83349638  0.50032695  1
  Mn  Mn140  1  0.50020824  0.66671862  0.24987897  1
  Mn  Mn141  1  0.24999450  0.16524531  0.12477663  1
  Mn  Mn142  1  0.49936090  0.83461247  0.24918489  1
  Mn  Mn143  1  0.75089865  0.16533863  0.62437296  1
  Fe  Fe144  1  0.00054198  0.49974127  -0.00007230  1
  Fe  Fe145  1  0.74989141  0.50093317  0.87574696  1
  Fe  Fe146  1  0.49970820  0.33186618  -0.00046708  1
  Fe  Fe147  1  -0.00036589  0.16660204  -0.00050870  1
  Fe  Fe148  1  0.24990838  -0.00067097  0.87544549  1
  Fe  Fe149  1  0.00029261  0.33299506  0.50045461  1
  Fe  Fe150  1  0.00006605  0.00061220  -0.00041405  1
  Fe  Fe151  1  0.24958676  0.66739291  0.37419747  1
  Fe  Fe152  1  0.24966652  0.83393926  0.37481666  1
  Fe  Fe153  1  0.74945915  0.83354628  0.12446731  1
  Fe  Fe154  1  0.24917724  0.83347898  0.87511293  1
  Fe  Fe155  1  0.50051865  0.16569609  0.75133628  1
  Fe  Fe156  1  0.24942365  0.00002962  0.37454893  1
  Fe  Fe157  1  0.49964160  0.16589877  0.00034014  1
  Fe  Fe158  1  0.74996104  0.16619826  0.37421589  1
  Fe  Fe159  1  -0.00030769  0.33300387  0.75057339  1
  Fe  Fe160  1  -0.00059769  0.00024201  0.24913459  1
  Fe  Fe161  1  0.49984429  0.00050379  0.24985893  1
  Fe  Fe162  1  0.75006639  0.66685941  0.12462660  1
  Fe  Fe163  1  0.50014201  0.66617065  0.74949548  1
  Fe  Fe164  1  0.49950700  0.33286766  0.24991509  1
  Fe  Fe165  1  0.74976220  0.33306958  0.12530155  1
  Fe  Fe166  1  0.24904225  -0.00059197  0.12508391  1
  Fe  Fe167  1  -0.00068325  0.83430139  0.24914599  1
  Fe  Fe168  1  -0.00013409  0.33291231  -0.00036891  1
  Fe  Fe169  1  0.74979521  0.00023661  0.12515035  1
  Fe  Fe170  1  0.25018234  0.50054960  0.37536110  1
  Fe  Fe171  1  0.49987119  0.00015356  0.00004803  1
  Fe  Fe172  1  0.00000789  0.16700191  0.75072157  1
  Fe  Fe173  1  -0.00030827  0.83435804  0.75010478  1
  Fe  Fe174  1  0.50007543  0.00030109  0.75098802  1
  Fe  Fe175  1  0.24920022  0.83415947  0.12559612  1
  Fe  Fe176  1  0.25001290  0.16621948  0.87505725  1
  Fe  Fe177  1  0.24985517  0.33242746  0.87507969  1
  Fe  Fe178  1  0.24989885  0.16693598  0.37558793  1
  Fe  Fe179  1  0.25008075  0.33353925  0.37500591  1
  Fe  Fe180  1  0.74953955  0.66739207  0.87497406  1
  Fe  Fe181  1  0.74988024  0.16664227  0.12550519  1
  Fe  Fe182  1  0.74992314  0.00043678  0.37422142  1
  Fe  Fe183  1  0.25031925  0.33333618  0.62445236  1
  Fe  Fe184  1  0.75030860  0.83379063  0.62528172  1
  Fe  Fe185  1  0.75015920  -0.00049612  0.87568187  1
  Fe  Fe186  1  0.24990279  0.66686246  0.62418804  1
  Fe  Fe187  1  0.74996013  0.00013228  0.62483544  1
  Fe  Fe188  1  0.00008145  0.00105674  0.75061347  1
  Fe  Fe189  1  0.50046947  0.49971655  0.49985361  1
  Fe  Fe190  1  0.75081551  0.66696195  0.62538395  1
  Fe  Fe191  1  0.75001273  0.33250201  0.37501995  1
  P  P192  1  0.04151388  0.24945921  0.10070367  1
  P  P193  1  0.04267680  0.25015098  0.35322167  1
  P  P194  1  0.04254133  0.25113341  0.60349859  1
  P  P195  1  0.04115231  0.24999428  0.85257331  1
  P  P196  1  0.04227090  0.58258180  0.10214206  1
  P  P197  1  0.04275388  0.58311597  0.35317392  1
  P  P198  1  0.04328804  0.58334327  0.60344376  1
  P  P199  1  0.04298244  0.58270692  0.85395179  1
  P  P200  1  0.04143480  0.91869837  0.10256787  1
  P  P201  1  0.04111029  0.91717952  0.35078828  1
  P  P202  1  0.04293155  0.91742924  0.60432888  1
  P  P203  1  0.04104621  0.91766773  0.85174155  1
  P  P204  1  0.54094713  0.24948842  0.10172120  1
  P  P205  1  0.54230450  0.25129849  0.35210476  1
  P  P206  1  0.54349680  0.24888038  0.60385947  1
  P  P207  1  0.54230484  0.24800229  0.85368268  1
  P  P208  1  0.54313883  0.58248450  0.10290283  1
  P  P209  1  0.54309669  0.58265844  0.35316451  1
  P  P210  1  0.54245181  0.58189929  0.60257908  1
  P  P211  1  0.54244789  0.58417148  0.85233338  1
  P  P212  1  0.54150730  0.91844410  0.10252036  1
  P  P213  1  0.54255562  0.91836493  0.35207076  1
  P  P214  1  0.54254103  0.91715493  0.60425919  1
  P  P215  1  0.54203114  0.91833201  0.85300739  1
  P  P216  1  0.45723390  0.08191855  0.14696289  1
  P  P217  1  0.45746969  0.08347986  0.39638246  1
  P  P218  1  0.45802932  0.08343981  0.64952988  1
  P  P219  1  0.45882213  0.08287758  0.89816026  1
  P  P220  1  0.45737832  0.41399662  0.14702363  1
  P  P221  1  0.45811573  0.41732302  0.39744934  1
  P  P222  1  0.45718617  0.41660212  0.64667442  1
  P  P223  1  0.45767072  0.41451448  0.89756024  1
  P  P224  1  0.45660507  0.75030357  0.14662379  1
  P  P225  1  0.45704467  0.75070819  0.39664515  1
  P  P226  1  0.45793827  0.74850593  0.64747169  1
  P  P227  1  0.45699825  0.74989242  0.89605306  1
  P  P228  1  0.95773303  0.08252437  0.14645038  1
  P  P229  1  0.95770246  0.08303612  0.39634825  1
  P  P230  1  0.95899418  0.08428857  0.64895017  1
  P  P231  1  0.95868933  0.08358020  0.89778748  1
  P  P232  1  0.95732291  0.41640465  0.14542983  1
  P  P233  1  0.95764931  0.41499068  0.39792203  1
  P  P234  1  0.95801784  0.41483109  0.64796936  1
  P  P235  1  0.95855427  0.41613103  0.89843629  1
  P  P236  1  0.95755775  0.75171324  0.14719825  1
  P  P237  1  0.95718213  0.75115971  0.39636599  1
  P  P238  1  0.95803388  0.75174096  0.64809267  1
  P  P239  1  0.95696113  0.75118360  0.89636773  1
  P  P240  1  0.20753435  0.08148568  0.22808566  1
  P  P241  1  0.20838677  0.08345905  0.47653274  1
  P  P242  1  0.20801068  0.08335448  0.72938674  1
  P  P243  1  0.20869017  0.08254576  0.97651166  1
  P  P244  1  0.20743842  0.41663461  0.22923077  1
  P  P245  1  0.20909820  0.41700740  0.47672728  1
  P  P246  1  0.20817128  0.41448272  0.72739216  1
  P  P247  1  0.20779021  0.41501781  0.97712107  1
  P  P248  1  0.20756749  0.75161228  0.22809036  1
  P  P249  1  0.20835916  0.75031456  0.47613789  1
  P  P250  1  0.20791995  0.74902664  0.72725450  1
  P  P251  1  0.20734538  0.75197320  0.97782107  1
  P  P252  1  0.70849030  0.08352630  0.22692545  1
  P  P253  1  0.70882154  0.08270492  0.47630688  1
  P  P254  1  0.70842349  0.08156440  0.72800596  1
  P  P255  1  0.70857704  0.08162600  0.97868667  1
  P  P256  1  0.70803919  0.41490088  0.22775794  1
  P  P257  1  0.70827018  0.41543585  0.47734083  1
  P  P258  1  0.70767669  0.41739986  0.72901329  1
  P  P259  1  0.70821033  0.41776702  0.97795621  1
  P  P260  1  0.70842690  0.75037987  0.22613554  1
  P  P261  1  0.70744868  0.75066120  0.47911213  1
  P  P262  1  0.70899385  0.75010781  0.72687248  1
  P  P263  1  0.70747418  0.74926102  0.97791476  1
  P  P264  1  0.29188059  0.24895721  0.02116753  1
  P  P265  1  0.29115285  0.24923492  0.27376228  1
  P  P266  1  0.29225343  0.25125472  0.52189647  1
  P  P267  1  0.29157147  0.24982391  0.77349746  1
  P  P268  1  0.29296062  0.58334168  0.02169825  1
  P  P269  1  0.29153551  0.58346758  0.27343382  1
  P  P270  1  0.29173414  0.58482374  0.52137018  1
  P  P271  1  0.29291747  0.58327991  0.77099471  1
  P  P272  1  0.29050737  0.91668351  0.02298827  1
  P  P273  1  0.29071015  0.91668134  0.27264962  1
  P  P274  1  0.29269565  0.91715797  0.52089079  1
  P  P275  1  0.29126502  0.91604845  0.77362951  1
  P  P276  1  0.79092929  0.24978487  0.02380231  1
  P  P277  1  0.79108824  0.24972195  0.27256295  1
  P  P278  1  0.79282491  0.24950737  0.52101711  1
  P  P279  1  0.79352670  0.24929565  0.77235287  1
  P  P280  1  0.79204217  0.58475293  0.02173707  1
  P  P281  1  0.79306040  0.58384161  0.27115660  1
  P  P282  1  0.79307416  0.58474718  0.52286836  1
  P  P283  1  0.79151678  0.58428978  0.77363085  1
  P  P284  1  0.79109859  0.91703813  0.02335443  1
  P  P285  1  0.79144256  0.91830841  0.27158636  1
  P  P286  1  0.79171803  0.91741554  0.52344550  1
  P  P287  1  0.79187753  0.91785312  0.77214686  1
  O  O288  1  0.03699521  0.24903082  0.18072500  1
  O  O289  1  0.03768475  0.25055475  0.43317732  1
  O  O290  1  0.03698273  0.25094019  0.68336901  1
  O  O291  1  0.03561079  0.25009868  0.93242234  1
  O  O292  1  0.03707359  0.58279558  0.18213769  1
  O  O293  1  0.03774489  0.58314425  0.43316311  1
  O  O294  1  0.03837767  0.58337148  0.68346895  1
  O  O295  1  0.03755378  0.58216508  0.93387498  1
  O  O296  1  0.03593821  0.91824165  0.18242317  1
  O  O297  1  0.03692213  0.91704744  0.43086575  1
  O  O298  1  0.03768435  0.91730915  0.68422366  1
  O  O299  1  0.03615188  0.91835010  0.93168790  1
  O  O300  1  0.53607036  0.24981449  0.18167041  1
  O  O301  1  0.53774656  0.25087957  0.43209237  1
  O  O302  1  0.53834416  0.24811757  0.68381687  1
  O  O303  1  0.53656753  0.24859672  0.93353720  1
  O  O304  1  0.53807789  0.58247471  0.18287282  1
  O  O305  1  0.53789229  0.58218794  0.43314314  1
  O  O306  1  0.53708022  0.58277724  0.68253233  1
  O  O307  1  0.53736600  0.58384606  0.93227578  1
  O  O308  1  0.53645161  0.91861294  0.18245990  1
  O  O309  1  0.53786733  0.91790444  0.43210622  1
  O  O310  1  0.53709494  0.91760616  0.68419028  1
  O  O311  1  0.53663369  0.91840853  0.93295648  1
  O  O312  1  0.46233142  0.08204693  0.06705898  1
  O  O313  1  0.46250918  0.08311374  0.31644143  1
  O  O314  1  0.46288581  0.08360651  0.56951029  1
  O  O315  1  0.46379607  0.08299683  0.81826404  1
  O  O316  1  0.46260794  0.41373064  0.06705965  1
  O  O317  1  0.46314446  0.41638644  0.31747239  1
  O  O318  1  0.46270288  0.41720804  0.56676494  1
  O  O319  1  0.46265936  0.41482647  0.81759759  1
  O  O320  1  0.46144474  0.75049095  0.06660054  1
  O  O321  1  0.46191072  0.75085670  0.31667217  1
  O  O322  1  0.46322105  0.74879638  0.56751904  1
  O  O323  1  0.46257596  0.74929194  0.81612263  1
  O  O324  1  0.96280186  0.08265441  0.06655190  1
  O  O325  1  0.96274794  0.08249156  0.31639091  1
  O  O326  1  0.96374015  0.08382730  0.56899526  1
  O  O327  1  0.96377525  0.08401265  0.81790494  1
  O  O328  1  0.96281914  0.41669055  0.06553664  1
  O  O329  1  0.96245708  0.41537989  0.31789025  1
  O  O330  1  0.96333442  0.41470357  0.56804252  1
  O  O331  1  0.96337471  0.41572591  0.81842786  1
  O  O332  1  0.96252061  0.75149096  0.06722435  1
  O  O333  1  0.96230316  0.75166530  0.31635628  1
  O  O334  1  0.96311623  0.75138167  0.56808742  1
  O  O335  1  0.96238711  0.75163508  0.81646769  1
  O  O336  1  0.21285244  0.08218987  0.05652632  1
  O  O337  1  0.21275997  0.08178338  0.30789964  1
  O  O338  1  0.21336048  0.08390649  0.55651469  1
  O  O339  1  0.21331248  0.08335930  0.80924766  1
  O  O340  1  0.21260950  0.41534163  0.05710345  1
  O  O341  1  0.21292418  0.41695467  0.30909880  1
  O  O342  1  0.21401025  0.41632383  0.55667103  1
  O  O343  1  0.21344919  0.41427722  0.80730080  1
  O  O344  1  0.21260207  0.75222954  0.05776363  1
  O  O345  1  0.21285316  0.75153375  0.30795989  1
  O  O346  1  0.21340106  0.74949459  0.55609370  1
  O  O347  1  0.21294948  0.74980021  0.80718953  1
  O  O348  1  0.71382517  0.08190378  0.05853226  1
  O  O349  1  0.71327954  0.08387796  0.30680673  1
  O  O350  1  0.71387570  0.08254137  0.55623632  1
  O  O351  1  0.71367896  0.08145258  0.80791186  1
  O  O352  1  0.71331551  0.41714678  0.05790061  1
  O  O353  1  0.71347849  0.41451961  0.30766013  1
  O  O354  1  0.71331613  0.41606275  0.55732459  1
  O  O355  1  0.71313571  0.41820103  0.80893415  1
  O  O356  1  0.71280187  0.74930768  0.05774110  1
  O  O357  1  0.71319928  0.75114842  0.30612151  1
  O  O358  1  0.71293977  0.75047270  0.55896150  1
  O  O359  1  0.71355872  0.74996734  0.80687439  1
  O  O360  1  0.28640993  0.24885094  0.19377502  1
  O  O361  1  0.28679697  0.25085973  0.44207808  1
  O  O362  1  0.28716797  0.24990152  0.69350868  1
  O  O363  1  0.28663737  0.24909137  0.94129761  1
  O  O364  1  0.28690981  0.58365651  0.19342932  1
  O  O365  1  0.28617028  0.58455568  0.44152623  1
  O  O366  1  0.28740598  0.58357110  0.69107369  1
  O  O367  1  0.28797857  0.58326273  0.94172672  1
  O  O368  1  0.28527266  0.91665280  0.19276728  1
  O  O369  1  0.28730353  0.91716133  0.44102588  1
  O  O370  1  0.28701508  0.91646177  0.69363820  1
  O  O371  1  0.28548786  0.91658932  0.94311428  1
  O  O372  1  0.78602381  0.24979112  0.19266442  1
  O  O373  1  0.78722851  0.24966083  0.44113997  1
  O  O374  1  0.78864179  0.24907263  0.69241232  1
  O  O375  1  0.78665974  0.24957094  0.94383764  1
  O  O376  1  0.78749471  0.58412422  0.19124429  1
  O  O377  1  0.78816009  0.58427045  0.44290136  1
  O  O378  1  0.78663232  0.58454732  0.69361991  1
  O  O379  1  0.78628797  0.58443952  0.94188022  1
  O  O380  1  0.78590995  0.91794283  0.19178911  1
  O  O381  1  0.78676028  0.91742352  0.44350391  1
  O  O382  1  0.78665708  0.91776894  0.69231559  1
  O  O383  1  0.78642647  0.91700110  0.94337241  1
  O  O384  1  0.22764418  0.24885968  0.05695759  1
  O  O385  1  0.22697655  0.24953974  0.30945192  1
  O  O386  1  0.22810209  0.25148946  0.55818317  1
  O  O387  1  0.22724859  0.25002904  0.80912731  1
  O  O388  1  0.22848029  0.58369821  0.05674450  1
  O  O389  1  0.22731990  0.58260196  0.30916233  1
  O  O390  1  0.22774026  0.58483846  0.55798925  1
  O  O391  1  0.22868862  0.58287035  0.80669999  1
  O  O392  1  0.22640239  0.91663511  0.05938289  1
  O  O393  1  0.22673491  0.91662434  0.30938444  1
  O  O394  1  0.22844900  0.91688131  0.55664756  1
  O  O395  1  0.22691048  0.91592036  0.80913203  1
  O  O396  1  0.72664346  0.24987010  0.05924407  1
  O  O397  1  0.72709800  0.25009905  0.30907106  1
  O  O398  1  0.72868551  0.24921294  0.55711298  1
  O  O399  1  0.72905925  0.24947231  0.80737986  1
  O  O400  1  0.72800832  0.58505148  0.05828107  1
  O  O401  1  0.72883436  0.58331494  0.30685537  1
  O  O402  1  0.72860403  0.58551542  0.55821650  1
  O  O403  1  0.72731042  0.58411971  0.80961453  1
  O  O404  1  0.72690424  0.91743822  0.05917517  1
  O  O405  1  0.72733596  0.91898439  0.30799166  1
  O  O406  1  0.72755606  0.91776680  0.55949888  1
  O  O407  1  0.72775659  0.91831679  0.80851644  1
  O  O408  1  0.27170761  0.08102657  0.19190376  1
  O  O409  1  0.27253030  0.08282760  0.44059665  1
  O  O410  1  0.27220977  0.08356594  0.69348684  1
  O  O411  1  0.27295096  0.08254914  0.94096387  1
  O  O412  1  0.27169437  0.41629687  0.19342084  1
  O  O413  1  0.27314749  0.41773377  0.44050158  1
  O  O414  1  0.27240738  0.41485877  0.69152156  1
  O  O415  1  0.27222259  0.41435976  0.94176020  1
  O  O416  1  0.27170691  0.75197947  0.19186971  1
  O  O417  1  0.27245318  0.75125497  0.44004547  1
  O  O418  1  0.27219237  0.74815342  0.69134896  1
  O  O419  1  0.27160249  0.75227076  0.94196772  1
  O  O420  1  0.77261582  0.08304167  0.19081737  1
  O  O421  1  0.77290487  0.08230935  0.44006719  1
  O  O422  1  0.77268195  0.08115673  0.69208280  1
  O  O423  1  0.77276744  0.08114724  0.94254859  1
  O  O424  1  0.77221417  0.41528704  0.19180926  1
  O  O425  1  0.77257574  0.41456704  0.44166448  1
  O  O426  1  0.77194356  0.41735846  0.69342708  1
  O  O427  1  0.77247349  0.41814951  0.94219699  1
  O  O428  1  0.77259268  0.74982150  0.19023210  1
  O  O429  1  0.77163653  0.75103394  0.44315671  1
  O  O430  1  0.77314102  0.74966891  0.69088250  1
  O  O431  1  0.77161207  0.74921274  0.94168035  1
  O  O432  1  0.02197357  0.08177914  0.18226749  1
  O  O433  1  0.02208661  0.08360090  0.43152897  1
  O  O434  1  0.02312488  0.08487279  0.68476533  1
  O  O435  1  0.02277205  0.08326095  0.93396981  1
  O  O436  1  0.02155577  0.41635883  0.18109494  1
  O  O437  1  0.02212582  0.41448938  0.43312129  1
  O  O438  1  0.02230581  0.41458104  0.68359929  1
  O  O439  1  0.02275892  0.41564924  0.93417599  1
  O  O440  1  0.02189093  0.75216562  0.18255301  1
  O  O441  1  0.02163319  0.75078050  0.43142365  1
  O  O442  1  0.02235897  0.75225027  0.68355829  1
  O  O443  1  0.02125510  0.75107314  0.93167609  1
  O  O444  1  0.52153125  0.08200015  0.18269125  1
  O  O445  1  0.52191723  0.08346183  0.43142316  1
  O  O446  1  0.52240997  0.08337441  0.68503423  1
  O  O447  1  0.52280489  0.08250114  0.93448520  1
  O  O448  1  0.52176481  0.41379719  0.18245254  1
  O  O449  1  0.52242709  0.41807220  0.43310267  1
  O  O450  1  0.52145951  0.41604623  0.68206910  1
  O  O451  1  0.52207183  0.41416853  0.93278640  1
  O  O452  1  0.52120455  0.75053126  0.18117930  1
  O  O453  1  0.52156912  0.75020035  0.43140284  1
  O  O454  1  0.52218902  0.74870009  0.68309114  1
  O  O455  1  0.52127676  0.75059565  0.93144571  1
  O  O456  1  0.47683017  0.24962375  0.06585090  1
  O  O457  1  0.47778227  0.25117252  0.31711690  1
  O  O458  1  0.47904119  0.24977572  0.56885756  1
  O  O459  1  0.47823022  0.24737638  0.81733578  1
  O  O460  1  0.47863551  0.58216936  0.06813827  1
  O  O461  1  0.47869967  0.58273899  0.31802058  1
  O  O462  1  0.47823974  0.58109999  0.56668031  1
  O  O463  1  0.47809116  0.58463878  0.81695234  1
  O  O464  1  0.47716413  0.91863709  0.06703911  1
  O  O465  1  0.47797523  0.91871771  0.31717130  1
  O  O466  1  0.47826993  0.91692201  0.56875984  1
  O  O467  1  0.47776897  0.91808314  0.81740753  1
  O  O468  1  0.97713252  0.25004048  0.06547905  1
  O  O469  1  0.97832880  0.24957784  0.31800764  1
  O  O470  1  0.97840936  0.25164435  0.56723931  1
  O  O471  1  0.97722404  0.24973644  0.81594990  1
  O  O472  1  0.97796842  0.58242280  0.06672564  1
  O  O473  1  0.97832641  0.58373212  0.31816592  1
  O  O474  1  0.97877071  0.58295769  0.56873051  1
  O  O475  1  0.97873086  0.58319169  0.81853227  1
  O  O476  1  0.97724803  0.91933482  0.06661325  1
  O  O477  1  0.97676067  0.91734437  0.31549709  1
  O  O478  1  0.97856673  0.91747668  0.56895230  1
  O  O479  1  0.97693040  0.91708158  0.81586033  1
  O  O480  1  0.07267212  0.31293577  0.07285382  1
  O  O481  1  0.07358185  0.31338429  0.32442705  1
  O  O482  1  0.07369990  0.31424805  0.57454576  1
  O  O483  1  0.07199110  0.31359209  0.82418401  1
  O  O484  1  0.07328526  0.64634779  0.07458353  1
  O  O485  1  0.07406742  0.64639781  0.32497233  1
  O  O486  1  0.07392023  0.64694044  0.57511879  1
  O  O487  1  0.07418989  0.64636463  0.82638155  1
  O  O488  1  0.07263590  0.98186940  0.07376454  1
  O  O489  1  0.07182432  0.98084422  0.32264791  1
  O  O490  1  0.07399725  0.98089154  0.57584764  1
  O  O491  1  0.07146471  0.98144405  0.82309999  1
  O  O492  1  0.57227571  0.31260389  0.07311942  1
  O  O493  1  0.57255079  0.31498574  0.32351943  1
  O  O494  1  0.57483578  0.31237188  0.57613288  1
  O  O495  1  0.57330272  0.31151476  0.82535616  1
  O  O496  1  0.57386978  0.64608679  0.07478901  1
  O  O497  1  0.57393263  0.64647138  0.32535319  1
  O  O498  1  0.57330128  0.64546866  0.57433676  1
  O  O499  1  0.57320041  0.64762362  0.82373628  1
  O  O500  1  0.57262930  0.98155534  0.07372244  1
  O  O501  1  0.57308791  0.98190545  0.32343701  1
  O  O502  1  0.57366487  0.98042021  0.57574754  1
  O  O503  1  0.57286836  0.98165670  0.82435398  1
  O  O504  1  0.42651373  0.01863177  0.17610481  1
  O  O505  1  0.42618366  0.02045325  0.42513341  1
  O  O506  1  0.42734795  0.01965305  0.67759140  1
  O  O507  1  0.42741141  0.01954713  0.92637496  1
  O  O508  1  0.42632906  0.35092748  0.17616596  1
  O  O509  1  0.42727858  0.35385476  0.42592687  1
  O  O510  1  0.42603827  0.35298753  0.67442493  1
  O  O511  1  0.42689635  0.35098985  0.92583085  1
  O  O512  1  0.42595577  0.68664754  0.17476553  1
  O  O513  1  0.42589935  0.68726383  0.42459770  1
  O  O514  1  0.42751228  0.68473962  0.67566054  1
  O  O515  1  0.42592431  0.68669888  0.92467073  1
  O  O516  1  0.92643943  0.01952375  0.17546439  1
  O  O517  1  0.92682744  0.01975880  0.42518582  1
  O  O518  1  0.92880489  0.02037839  0.67762702  1
  O  O519  1  0.92751106  0.02012984  0.92596189  1
  O  O520  1  0.92633875  0.35279713  0.17362688  1
  O  O521  1  0.92687535  0.35157395  0.42634190  1
  O  O522  1  0.92677683  0.35182218  0.67684168  1
  O  O523  1  0.92710206  0.35294317  0.92684961  1
  O  O524  1  0.92684025  0.68796525  0.17499400  1
  O  O525  1  0.92620582  0.68758161  0.42450870  1
  O  O526  1  0.92730394  0.68796562  0.67590632  1
  O  O527  1  0.92609208  0.68753289  0.92435132  1
  O  O528  1  0.17643514  0.01832593  0.19919721  1
  O  O529  1  0.17696986  0.02009607  0.44871862  1
  O  O530  1  0.17699116  0.01994058  0.70096561  1
  O  O531  1  0.17773967  0.01919485  0.94774501  1
  O  O532  1  0.17617003  0.35317616  0.20107731  1
  O  O533  1  0.17882871  0.35320285  0.44794183  1
  O  O534  1  0.17751049  0.35114629  0.69849641  1
  O  O535  1  0.17682413  0.35159635  0.94882822  1
  O  O536  1  0.17668947  0.68790167  0.20000727  1
  O  O537  1  0.17811223  0.68658715  0.44718498  1
  O  O538  1  0.17690446  0.68557155  0.69905434  1
  O  O539  1  0.17671491  0.68797892  0.95028863  1
  O  O540  1  0.67707314  0.02033986  0.19858137  1
  O  O541  1  0.67735556  0.01954389  0.44805899  1
  O  O542  1  0.67712699  0.01861419  0.69914108  1
  O  O543  1  0.67747672  0.01842218  0.94990697  1
  O  O544  1  0.67740931  0.35149865  0.19873879  1
  O  O545  1  0.67703514  0.35206283  0.44940718  1
  O  O546  1  0.67687821  0.35346067  0.70157572  1
  O  O547  1  0.67707602  0.35426692  0.94995131  1
  O  O548  1  0.67730913  0.68676219  0.19861047  1
  O  O549  1  0.67643244  0.68733642  0.45036853  1
  O  O550  1  0.67772364  0.68689455  0.69845059  1
  O  O551  1  0.67652014  0.68609363  0.94882336  1
  O  O552  1  0.32306739  0.31213797  0.04989156  1
  O  O553  1  0.32194698  0.31300006  0.30169348  1
  O  O554  1  0.32312636  0.31470198  0.55045280  1
  O  O555  1  0.32272436  0.31310658  0.80192294  1
  O  O556  1  0.32403454  0.64678732  0.04974675  1
  O  O557  1  0.32136146  0.64777271  0.30157131  1
  O  O558  1  0.32253958  0.64833277  0.54990387  1
  O  O559  1  0.32398834  0.64651011  0.79947662  1
  O  O560  1  0.32116202  0.98040546  0.05153527  1
  O  O561  1  0.32157078  0.98033765  0.30085679  1
  O  O562  1  0.32376538  0.98047912  0.54956647  1
  O  O563  1  0.32162731  0.97978570  0.80240789  1
  O  O564  1  0.82160525  0.31355432  0.05182463  1
  O  O565  1  0.82253340  0.31290992  0.30102593  1
  O  O566  1  0.82390654  0.31277872  0.54966910  1
  O  O567  1  0.82443153  0.31280701  0.80044130  1
  O  O568  1  0.82306463  0.64816612  0.05018232  1
  O  O569  1  0.82405704  0.64718724  0.29950253  1
  O  O570  1  0.82411331  0.64804439  0.55131653  1
  O  O571  1  0.82240053  0.64782592  0.80193888  1
  O  O572  1  0.82259299  0.98010173  0.05165228  1
  O  O573  1  0.82268646  0.98154302  0.30014270  1
  O  O574  1  0.82307851  0.98073009  0.55155879  1
  O  O575  1  0.82303427  0.98097275  0.80113557  1
  O  O576  1  0.42600863  0.14557404  0.17503086  1
  O  O577  1  0.42672142  0.14729256  0.42453460  1
  O  O578  1  0.42740279  0.14715775  0.67795416  1
  O  O579  1  0.42830820  0.14670930  0.92688707  1
  O  O580  1  0.42659305  0.47798404  0.17473702  1
  O  O581  1  0.42722624  0.48100388  0.42552985  1
  O  O582  1  0.42593776  0.47984106  0.67520434  1
  O  O583  1  0.42681613  0.47831569  0.92545685  1
  O  O584  1  0.42546216  0.81375014  0.17484509  1
  O  O585  1  0.42641591  0.81431433  0.42518039  1
  O  O586  1  0.42645282  0.81203833  0.67513049  1
  O  O587  1  0.42566486  0.81359436  0.92368005  1
  O  O588  1  0.92709965  0.14642630  0.17470218  1
  O  O589  1  0.92648089  0.14655036  0.42435479  1
  O  O590  1  0.92756783  0.14773568  0.67669443  1
  O  O591  1  0.92801284  0.14729102  0.92668725  1
  O  O592  1  0.92594012  0.47957165  0.17423404  1
  O  O593  1  0.92693513  0.47882715  0.42602376  1
  O  O594  1  0.92716897  0.47885775  0.67561934  1
  O  O595  1  0.92839361  0.48036947  0.92646147  1
  O  O596  1  0.92661895  0.81532093  0.17537349  1
  O  O597  1  0.92605338  0.81447256  0.42510121  1
  O  O598  1  0.92702395  0.81530082  0.67618789  1
  O  O599  1  0.92549652  0.81438641  0.92482116  1
  O  O600  1  0.07184246  0.18552578  0.07213026  1
  O  O601  1  0.07392024  0.18661733  0.32510491  1
  O  O602  1  0.07344874  0.18730700  0.57539558  1
  O  O603  1  0.07237522  0.18641404  0.82441139  1
  O  O604  1  0.07310250  0.51897267  0.07376875  1
  O  O605  1  0.07330597  0.51932613  0.32504327  1
  O  O606  1  0.07452917  0.51981776  0.57549270  1
  O  O607  1  0.07426375  0.51947734  0.82531345  1
  O  O608  1  0.07240433  0.85504416  0.07425445  1
  O  O609  1  0.07160191  0.85335813  0.32229668  1
  O  O610  1  0.07418670  0.85422281  0.57536431  1
  O  O611  1  0.07224385  0.85400169  0.82396976  1
  O  O612  1  0.57129261  0.18533011  0.07358278  1
  O  O613  1  0.57344090  0.18782944  0.32377308  1
  O  O614  1  0.57430618  0.18554713  0.57475467  1
  O  O615  1  0.57359192  0.18451721  0.82552303  1
  O  O616  1  0.57429751  0.51892886  0.07487264  1
  O  O617  1  0.57453054  0.51953565  0.32458423  1
  O  O618  1  0.57353313  0.51830614  0.57447840  1
  O  O619  1  0.57327181  0.52025827  0.82474207  1
  O  O620  1  0.57229777  0.85454009  0.07461808  1
  O  O621  1  0.57345509  0.85470764  0.32378951  1
  O  O622  1  0.57363305  0.85348807  0.57637383  1
  O  O623  1  0.57333586  0.85462489  0.82537827  1
  O  O624  1  0.32308344  0.18546749  0.04946400  1
  O  O625  1  0.32186126  0.18548339  0.30198138  1
  O  O626  1  0.32342051  0.18770358  0.55020081  1
  O  O627  1  0.32180422  0.18579968  0.80208149  1
  O  O628  1  0.32370836  0.51968371  0.04991135  1
  O  O629  1  0.32312120  0.52022460  0.30145745  1
  O  O630  1  0.32311606  0.52129092  0.54928753  1
  O  O631  1  0.32420617  0.51962157  0.79867614  1
  O  O632  1  0.32170549  0.85331816  0.05156629  1
  O  O633  1  0.32196462  0.85323914  0.30094942  1
  O  O634  1  0.32398173  0.85378554  0.54938058  1
  O  O635  1  0.32205342  0.85232903  0.80159570  1
  O  O636  1  0.82160329  0.18605030  0.05223510  1
  O  O637  1  0.82153188  0.18566537  0.30086469  1
  O  O638  1  0.82425826  0.18599977  0.54895938  1
  O  O639  1  0.82439165  0.18582401  0.80079458  1
  O  O640  1  0.82330602  0.52119825  0.04969288  1
  O  O641  1  0.82435507  0.52019366  0.29891179  1
  O  O642  1  0.82362386  0.52085135  0.55093958  1
  O  O643  1  0.82227540  0.52040902  0.80170787  1
  O  O644  1  0.82116681  0.85278593  0.05163097  1
  O  O645  1  0.82226198  0.85463577  0.29991173  1
  O  O646  1  0.82194724  0.85344297  0.55213360  1
  O  O647  1  0.82271276  0.85409539  0.80027100  1
  O  O648  1  0.17657694  0.14518963  0.19977533  1
  O  O649  1  0.17818487  0.14754815  0.44823707  1
  O  O650  1  0.17665866  0.14666901  0.70094062  1
  O  O651  1  0.17823641  0.14649428  0.94820574  1
  O  O652  1  0.17632114  0.47996361  0.20047906  1
  O  O653  1  0.17769706  0.48060613  0.44920948  1
  O  O654  1  0.17689141  0.47818716  0.69981529  1
  O  O655  1  0.17720451  0.47882720  0.94904444  1
  O  O656  1  0.17637760  0.81489407  0.19940535  1
  O  O657  1  0.17684182  0.81390899  0.44867290  1
  O  O658  1  0.17727984  0.81276856  0.69890004  1
  O  O659  1  0.17607058  0.81508541  0.94896731  1
  O  O660  1  0.67813010  0.14743996  0.19802412  1
  O  O661  1  0.67857783  0.14678266  0.44789359  1
  O  O662  1  0.67778210  0.14557518  0.70025522  1
  O  O663  1  0.67769423  0.14541540  0.95062530  1
  O  O664  1  0.67657431  0.47850286  0.20037828  1
  O  O665  1  0.67781362  0.47937065  0.44928121  1
  O  O666  1  0.67611548  0.48040027  0.70031358  1
  O  O667  1  0.67740546  0.48142847  0.94968169  1
  O  O668  1  0.67807020  0.81431132  0.19751449  1
  O  O669  1  0.67598025  0.81402847  0.45080099  1
  O  O670  1  0.67892203  0.81440553  0.69885055  1
  O  O671  1  0.67636826  0.81299044  0.94995255  1
