# generated using pymatgen
data_Na2MnFe(PO4)2
_symmetry_space_group_name_H-M   'P 1'
_cell_length_a   22.33974388
_cell_length_b   20.08866569
_cell_length_c   19.45223369
_cell_angle_alpha   89.98817500
_cell_angle_beta   89.98327553
_cell_angle_gamma   90.05479166
_symmetry_Int_Tables_number   1
_chemical_formula_structural   Na2MnFe(PO4)2
_chemical_formula_sum   'Na96 Mn48 Fe48 P96 O384'
_cell_volume   8729.68420032
_cell_formula_units_Z   48
loop_
 _symmetry_equiv_pos_site_id
 _symmetry_equiv_pos_as_xyz
  1  'x, y, z'
loop_
 _atom_site_type_symbol
 _atom_site_label
 _atom_site_symmetry_multiplicity
 _atom_site_fract_x
 _atom_site_fract_y
 _atom_site_fract_z
 _atom_site_occupancy
  Na  Na0  1  0.13985185  0.25019469  0.24420382  1
  Na  Na1  1  0.14037432  0.24821685  0.49335580  1
  Na  Na2  1  0.14012954  0.25030645  0.74287247  1
  Na  Na3  1  0.14001254  0.24943984  0.99421973  1
  Na  Na4  1  0.14052453  0.58358781  0.24435379  1
  Na  Na5  1  0.14136761  0.58223494  0.49377806  1
  Na  Na6  1  0.14123367  0.58406711  0.74411436  1
  Na  Na7  1  0.14081969  0.58488189  0.99446750  1
  Na  Na8  1  0.14056245  0.91684284  0.24527128  1
  Na  Na9  1  0.14050414  0.91539120  0.49286143  1
  Na  Na10  1  0.14039602  0.91683379  0.74365351  1
  Na  Na11  1  0.14051756  0.91677419  0.99382733  1
  Na  Na12  1  0.63973920  0.24956422  0.24394624  1
  Na  Na13  1  0.64013991  0.24968851  0.49383627  1
  Na  Na14  1  0.64019415  0.24989290  0.74256030  1
  Na  Na15  1  0.64014600  0.25077169  0.99428903  1
  Na  Na16  1  0.64078792  0.58282896  0.24369635  1
  Na  Na17  1  0.64100731  0.58237303  0.49303859  1
  Na  Na18  1  0.64089088  0.58313891  0.74284709  1
  Na  Na19  1  0.64049374  0.58401778  0.99351612  1
  Na  Na20  1  0.63987809  0.91655171  0.24348259  1
  Na  Na21  1  0.63959740  0.91668621  0.49370939  1
  Na  Na22  1  0.63983205  0.91721378  0.74203439  1
  Na  Na23  1  0.64007164  0.91851385  0.99390413  1
  Na  Na24  1  0.35953737  0.08260964  0.00630296  1
  Na  Na25  1  0.35972370  0.08388588  0.25793026  1
  Na  Na26  1  0.36006030  0.08192925  0.50620618  1
  Na  Na27  1  0.35955046  0.08272032  0.75583397  1
  Na  Na28  1  0.36021035  0.41693179  0.00740262  1
  Na  Na29  1  0.35956217  0.41661303  0.25656401  1
  Na  Na30  1  0.35961816  0.41511445  0.50645481  1
  Na  Na31  1  0.36032075  0.41660993  0.75622536  1
  Na  Na32  1  0.35993643  0.75160636  0.00570762  1
  Na  Na33  1  0.35972198  0.75122008  0.25687087  1
  Na  Na34  1  0.36003837  0.74944076  0.50600190  1
  Na  Na35  1  0.36001758  0.75201625  0.75570692  1
  Na  Na36  1  0.85896174  0.08437449  0.00601130  1
  Na  Na37  1  0.85915103  0.08313031  0.25646490  1
  Na  Na38  1  0.85906810  0.08355762  0.50737704  1
  Na  Na39  1  0.85926857  0.08293660  0.75548625  1
  Na  Na40  1  0.86002730  0.41629605  0.00627484  1
  Na  Na41  1  0.85961120  0.41604030  0.25672983  1
  Na  Na42  1  0.85926003  0.41547295  0.50569987  1
  Na  Na43  1  0.85960307  0.41515423  0.75554162  1
  Na  Na44  1  0.85924215  0.75125431  0.00607128  1
  Na  Na45  1  0.85917942  0.74969348  0.25618563  1
  Na  Na46  1  0.85956496  0.75050419  0.50691240  1
  Na  Na47  1  0.85969589  0.75073820  0.75577156  1
  Na  Na48  1  0.10977345  0.08539733  0.11971495  1
  Na  Na49  1  0.10960666  0.08469878  0.36852587  1
  Na  Na50  1  0.10967047  0.08292397  0.61798120  1
  Na  Na51  1  0.10930744  0.08296872  0.86837809  1
  Na  Na52  1  0.10934531  0.41756356  0.11983749  1
  Na  Na53  1  0.10972868  0.41558522  0.36841792  1
  Na  Na54  1  0.10999783  0.41509974  0.61886279  1
  Na  Na55  1  0.10992179  0.41514911  0.86911851  1
  Na  Na56  1  0.10998104  0.74975301  0.11967579  1
  Na  Na57  1  0.11030066  0.74989024  0.36849466  1
  Na  Na58  1  0.11024999  0.75050518  0.61843722  1
  Na  Na59  1  0.10986163  0.74976641  0.86931337  1
  Na  Na60  1  0.60923551  0.08417747  0.11892368  1
  Na  Na61  1  0.60926150  0.08234494  0.36936346  1
  Na  Na62  1  0.60940801  0.08194497  0.61814407  1
  Na  Na63  1  0.60950350  0.08358425  0.86812021  1
  Na  Na64  1  0.60958894  0.41653747  0.11914484  1
  Na  Na65  1  0.61023362  0.41611655  0.36864719  1
  Na  Na66  1  0.61013562  0.41513368  0.61726730  1
  Na  Na67  1  0.60933600  0.41661927  0.86942634  1
  Na  Na68  1  0.60955972  0.75201614  0.11825462  1
  Na  Na69  1  0.60985495  0.75179932  0.36842014  1
  Na  Na70  1  0.60965853  0.75098863  0.61776094  1
  Na  Na71  1  0.60998530  0.75170587  0.86795761  1
  Na  Na72  1  0.39016842  0.24944028  0.13228898  1
  Na  Na73  1  0.39000812  0.24876415  0.38251553  1
  Na  Na74  1  0.39022536  0.24811214  0.63094613  1
  Na  Na75  1  0.39066304  0.25025105  0.88152748  1
  Na  Na76  1  0.39076203  0.58457616  0.13130268  1
  Na  Na77  1  0.39068830  0.58433201  0.38163297  1
  Na  Na78  1  0.39111752  0.58222937  0.63115546  1
  Na  Na79  1  0.39118228  0.58312004  0.88121563  1
  Na  Na80  1  0.39041022  0.91835753  0.13170901  1
  Na  Na81  1  0.39046049  0.91747485  0.38210285  1
  Na  Na82  1  0.38985797  0.91608710  0.63075448  1
  Na  Na83  1  0.38995454  0.91721200  0.88041896  1
  Na  Na84  1  0.89018072  0.25192509  0.13159767  1
  Na  Na85  1  0.88968055  0.25047001  0.38066387  1
  Na  Na86  1  0.88974360  0.24920105  0.63144514  1
  Na  Na87  1  0.88976151  0.24956807  0.88000653  1
  Na  Na88  1  0.89080578  0.58300653  0.13110450  1
  Na  Na89  1  0.89035028  0.58284522  0.38145384  1
  Na  Na90  1  0.89043346  0.58265631  0.63091092  1
  Na  Na91  1  0.89086829  0.58222015  0.88050029  1
  Na  Na92  1  0.88956883  0.91749316  0.13191113  1
  Na  Na93  1  0.88978275  0.91688166  0.38198858  1
  Na  Na94  1  0.88989030  0.91674900  0.63183392  1
  Na  Na95  1  0.88993688  0.91512305  0.88113966  1
  Mn  Mn96  1  0.75057712  0.66826244  0.87357484  1
  Mn  Mn97  1  0.49945443  0.16691245  -0.00016393  1
  Mn  Mn98  1  -0.00047760  0.83385468  0.25006297  1
  Mn  Mn99  1  0.25074346  0.66678324  0.62494137  1
  Mn  Mn100  1  0.49995673  0.50039794  0.24975462  1
  Mn  Mn101  1  0.49998193  0.83524664  -0.00093572  1
  Mn  Mn102  1  0.25060787  0.49952330  0.37497302  1
  Mn  Mn103  1  0.75002552  0.16708024  0.12564715  1
  Mn  Mn104  1  0.25067357  0.83323193  0.12537428  1
  Mn  Mn105  1  -0.00045099  0.00025097  -0.00004813  1
  Mn  Mn106  1  0.74955052  -0.00102775  0.37593585  1
  Mn  Mn107  1  0.00119271  0.49819862  0.75102988  1
  Mn  Mn108  1  0.24981653  0.33255180  0.12594983  1
  Mn  Mn109  1  0.24982045  -0.00042531  0.62457030  1
  Mn  Mn110  1  0.50100426  0.66821867  0.25034997  1
  Mn  Mn111  1  0.00028356  0.00171670  0.25104359  1
  Mn  Mn112  1  0.50067054  0.66710106  0.49988933  1
  Mn  Mn113  1  0.00097352  0.66696760  0.50064256  1
  Mn  Mn114  1  0.50108879  0.49866243  0.75068398  1
  Mn  Mn115  1  0.00061394  0.66664759  0.75013515  1
  Mn  Mn116  1  0.50001903  0.33218601  0.49960236  1
  Mn  Mn117  1  0.74918869  0.33270541  0.87415547  1
  Mn  Mn118  1  0.75003704  0.66759247  0.12447681  1
  Mn  Mn119  1  -0.00066966  0.16783981  -0.00075646  1
  Mn  Mn120  1  0.25006635  0.00071746  0.12539558  1
  Mn  Mn121  1  0.00035420  0.49954394  -0.00002166  1
  Mn  Mn122  1  0.50004883  0.16614784  0.75030838  1
  Mn  Mn123  1  0.75014709  0.66676224  0.62427056  1
  Mn  Mn124  1  0.25018405  0.16579615  0.87460633  1
  Mn  Mn125  1  -0.00013623  -0.00075730  0.74928205  1
  Mn  Mn126  1  0.75060977  0.49941201  0.12464025  1
  Mn  Mn127  1  0.50110008  0.66695015  0.74968477  1
  Mn  Mn128  1  0.74972592  0.66670635  0.37482615  1
  Mn  Mn129  1  0.25049293  0.33269489  0.62497108  1
  Mn  Mn130  1  0.25063650  0.50089342  0.87579107  1
  Mn  Mn131  1  0.00047851  0.83253388  0.00101486  1
  Mn  Mn132  1  0.75011282  0.49997714  0.87425253  1
  Mn  Mn133  1  0.49975056  0.66717315  -0.00047956  1
  Mn  Mn134  1  0.74979518  0.00045006  0.87466434  1
  Mn  Mn135  1  0.25047292  0.33324004  0.87528097  1
  Mn  Mn136  1  -0.00001455  0.49906469  0.50031269  1
  Mn  Mn137  1  0.25015774  0.50130102  0.12630439  1
  Mn  Mn138  1  -0.00086123  0.66630184  0.25053410  1
  Mn  Mn139  1  -0.00033070  0.00063983  0.50036967  1
  Mn  Mn140  1  0.74917004  0.16697489  0.37552425  1
  Mn  Mn141  1  0.25143674  0.66856495  0.87372177  1
  Mn  Mn142  1  -0.00022595  0.33186834  0.49910770  1
  Mn  Mn143  1  0.49901576  0.33269650  0.25031454  1
  Fe  Fe144  1  0.74953119  0.16668856  0.87471697  1
  Fe  Fe145  1  0.50010615  0.16625924  0.25036447  1
  Fe  Fe146  1  0.25054252  0.49946242  0.62463541  1
  Fe  Fe147  1  0.75041472  0.49947037  0.62390620  1
  Fe  Fe148  1  0.75021355  0.83350886  0.37518053  1
  Fe  Fe149  1  -0.00103130  0.16774042  0.24928846  1
  Fe  Fe150  1  0.24996329  0.16621939  0.37521497  1
  Fe  Fe151  1  0.24962972  0.83436180  0.87527596  1
  Fe  Fe152  1  0.49964824  0.83486183  0.24944614  1
  Fe  Fe153  1  0.00004209  0.33339184  0.00044184  1
  Fe  Fe154  1  0.74958093  0.33336456  0.12505747  1
  Fe  Fe155  1  -0.00015336  0.66626498  0.00020965  1
  Fe  Fe156  1  0.24998209  -0.00009421  0.37555023  1
  Fe  Fe157  1  0.00016550  0.83277748  0.75050173  1
  Fe  Fe158  1  0.00000960  0.16627006  0.74983321  1
  Fe  Fe159  1  -0.00022343  0.33359747  0.25001102  1
  Fe  Fe160  1  0.74953098  0.83353995  0.62494534  1
  Fe  Fe161  1  0.50001668  0.16533946  0.50069249  1
  Fe  Fe162  1  -0.00015481  0.83347317  0.50028511  1
  Fe  Fe163  1  0.25068821  0.66630668  0.37545086  1
  Fe  Fe164  1  0.50031388  0.49943774  0.50014369  1
  Fe  Fe165  1  0.74968432  0.83410320  0.12509890  1
  Fe  Fe166  1  0.74977044  0.33303606  0.37542934  1
  Fe  Fe167  1  -0.00015448  0.33197370  0.74944343  1
  Fe  Fe168  1  0.74983033  -0.00029625  0.62549602  1
  Fe  Fe169  1  0.25017656  0.66772368  0.12512378  1
  Fe  Fe170  1  0.74992075  0.33317157  0.62441354  1
  Fe  Fe171  1  0.00025177  0.50008436  0.24987408  1
  Fe  Fe172  1  0.74954610  0.00025385  0.12487683  1
  Fe  Fe173  1  0.49987191  0.83401703  0.49942329  1
  Fe  Fe174  1  0.24968373  0.33234656  0.37574863  1
  Fe  Fe175  1  0.49960627  0.00062403  0.25062215  1
  Fe  Fe176  1  0.24973526  0.83323812  0.62426773  1
  Fe  Fe177  1  0.49990221  0.83408889  0.74906603  1
  Fe  Fe178  1  0.25017345  0.83256229  0.37475981  1
  Fe  Fe179  1  0.49995823  0.33350115  0.00068415  1
  Fe  Fe180  1  0.49978678  -0.00075295  0.49940872  1
  Fe  Fe181  1  0.24926259  0.00019792  0.87492738  1
  Fe  Fe182  1  0.74943664  0.16663015  0.62498365  1
  Fe  Fe183  1  0.49985028  0.00077963  0.00007736  1
  Fe  Fe184  1  0.25009053  0.16670984  0.12596544  1
  Fe  Fe185  1  0.49939994  -0.00023532  0.74898823  1
  Fe  Fe186  1  -0.00037964  0.16698938  0.49964616  1
  Fe  Fe187  1  0.49990575  0.33306150  0.75044874  1
  Fe  Fe188  1  0.74954020  0.83464790  0.87493919  1
  Fe  Fe189  1  0.75010868  0.49913317  0.37461711  1
  Fe  Fe190  1  0.24982706  0.16587592  0.62445401  1
  Fe  Fe191  1  0.50054712  0.50006068  0.00003944  1
  P  P192  1  0.04177060  0.25177123  0.10319282  1
  P  P193  1  0.04095471  0.24957397  0.35135164  1
  P  P194  1  0.04205791  0.24816028  0.60276624  1
  P  P195  1  0.04160784  0.24980645  0.85144291  1
  P  P196  1  0.04224481  0.58408550  0.10302143  1
  P  P197  1  0.04251030  0.58197542  0.35263181  1
  P  P198  1  0.04357602  0.58257170  0.60348826  1
  P  P199  1  0.04333286  0.58304292  0.85386525  1
  P  P200  1  0.04295569  0.91758370  0.10365030  1
  P  P201  1  0.04227276  0.91699490  0.35416571  1
  P  P202  1  0.04196172  0.91544375  0.60268009  1
  P  P203  1  0.04214246  0.91523590  0.85254600  1
  P  P204  1  0.54186761  0.25065064  0.10295518  1
  P  P205  1  0.54163359  0.24790610  0.35316489  1
  P  P206  1  0.54206481  0.24790758  0.60271345  1
  P  P207  1  0.54218546  0.25137718  0.85298515  1
  P  P208  1  0.54252489  0.58307021  0.10218520  1
  P  P209  1  0.54312003  0.58348447  0.35360142  1
  P  P210  1  0.54286473  0.58183275  0.60216435  1
  P  P211  1  0.54355935  0.58307575  0.85348718  1
  P  P212  1  0.54163801  0.91920859  0.10298972  1
  P  P213  1  0.54110163  0.91707619  0.35198850  1
  P  P214  1  0.54086432  0.91655293  0.60170684  1
  P  P215  1  0.54141364  0.91770055  0.85083493  1
  P  P216  1  0.45812423  0.08357346  0.14869809  1
  P  P217  1  0.45888298  0.08304455  0.39803953  1
  P  P218  1  0.45772497  0.08173459  0.64675320  1
  P  P219  1  0.45769501  0.08195922  0.89711413  1
  P  P220  1  0.45708060  0.41660042  0.14630913  1
  P  P221  1  0.45768650  0.41738996  0.39777828  1
  P  P222  1  0.45839840  0.41470059  0.64743361  1
  P  P223  1  0.45855699  0.41631565  0.89867445  1
  P  P224  1  0.45779585  0.75229969  0.14747639  1
  P  P225  1  0.45828768  0.75211022  0.39697463  1
  P  P226  1  0.45845613  0.75136458  0.64680562  1
  P  P227  1  0.45768922  0.75116141  0.89583160  1
  P  P228  1  0.95708221  0.08527772  0.14752492  1
  P  P229  1  0.95712769  0.08540682  0.39735749  1
  P  P230  1  0.95787054  0.08463003  0.64712819  1
  P  P231  1  0.95685725  0.08348843  0.89597015  1
  P  P232  1  0.95846847  0.41688367  0.14838963  1
  P  P233  1  0.95743030  0.41615675  0.39585519  1
  P  P234  1  0.95786180  0.41457030  0.64760745  1
  P  P235  1  0.95794936  0.41421353  0.89738599  1
  P  P236  1  0.95682289  0.74960797  0.14678317  1
  P  P237  1  0.95776886  0.75092202  0.39814209  1
  P  P238  1  0.95828132  0.75150195  0.64734451  1
  P  P239  1  0.95781612  0.74861712  0.89759114  1
  P  P240  1  0.20811979  0.08479975  0.22884756  1
  P  P241  1  0.20852685  0.08292277  0.47686353  1
  P  P242  1  0.20751275  0.08395374  0.72717272  1
  P  P243  1  0.20721391  0.08232557  0.97778563  1
  P  P244  1  0.20744497  0.41627444  0.22920061  1
  P  P245  1  0.20785305  0.41493629  0.47783495  1
  P  P246  1  0.20814494  0.41780310  0.72740395  1
  P  P247  1  0.20755579  0.41686257  0.97884189  1
  P  P248  1  0.20819267  0.74898058  0.22868346  1
  P  P249  1  0.20904678  0.74937016  0.47686770  1
  P  P250  1  0.20817476  0.75208113  0.72741650  1
  P  P251  1  0.20809876  0.75132194  0.97764318  1
  P  P252  1  0.70742617  0.08187104  0.22765512  1
  P  P253  1  0.70732810  0.08316323  0.47935463  1
  P  P254  1  0.70816369  0.08349940  0.72663024  1
  P  P255  1  0.70751458  0.08482003  0.97752328  1
  P  P256  1  0.70779944  0.41522745  0.22819326  1
  P  P257  1  0.70871081  0.41619320  0.47717973  1
  P  P258  1  0.70862270  0.41662059  0.72567508  1
  P  P259  1  0.70739563  0.41629857  0.97804408  1
  P  P260  1  0.70763703  0.75149888  0.22752332  1
  P  P261  1  0.70791021  0.75151037  0.47755963  1
  P  P262  1  0.70742937  0.75147305  0.72705183  1
  P  P263  1  0.70774427  0.75249333  0.97723469  1
  P  P264  1  0.29234010  0.24826640  0.02314666  1
  P  P265  1  0.29145921  0.24965033  0.27383409  1
  P  P266  1  0.29195355  0.24768217  0.52168575  1
  P  P267  1  0.29312754  0.24959079  0.77142729  1
  P  P268  1  0.29283137  0.58558142  0.02297267  1
  P  P269  1  0.29273152  0.58510900  0.27252690  1
  P  P270  1  0.29281408  0.58184222  0.52226884  1
  P  P271  1  0.29373980  0.58347290  0.77123550  1
  P  P272  1  0.29253029  0.91712157  0.02153421  1
  P  P273  1  0.29138343  0.91706842  0.27403625  1
  P  P274  1  0.29162715  0.91496290  0.52148867  1
  P  P275  1  0.29110349  0.91718505  0.77299287  1
  P  P276  1  0.79214023  0.25113525  0.02247806  1
  P  P277  1  0.79143403  0.25125745  0.27256017  1
  P  P278  1  0.79093937  0.24992161  0.52316332  1
  P  P279  1  0.79130661  0.24809717  0.77125267  1
  P  P280  1  0.79304956  0.58402382  0.02142113  1
  P  P281  1  0.79224262  0.58193042  0.27266359  1
  P  P282  1  0.79228505  0.58166468  0.52152322  1
  P  P283  1  0.79308378  0.58326487  0.77050040  1
  P  P284  1  0.79128063  0.91737084  0.02314541  1
  P  P285  1  0.79188648  0.91530924  0.27217899  1
  P  P286  1  0.79113214  0.91632947  0.52356992  1
  P  P287  1  0.79163949  0.91586946  0.77169363  1
  O  O288  1  0.03614529  0.25152421  0.18302696  1
  O  O289  1  0.03612213  0.24886109  0.43130443  1
  O  O290  1  0.03689872  0.24827127  0.68263294  1
  O  O291  1  0.03678517  0.25034077  0.93139471  1
  O  O292  1  0.03664464  0.58336391  0.18295176  1
  O  O293  1  0.03756191  0.58230390  0.43259558  1
  O  O294  1  0.03870648  0.58258964  0.68345861  1
  O  O295  1  0.03775952  0.58361221  0.93378456  1
  O  O296  1  0.03783837  0.91792648  0.18363859  1
  O  O297  1  0.03684265  0.91635218  0.43410498  1
  O  O298  1  0.03693191  0.91514890  0.68266089  1
  O  O299  1  0.03708595  0.91564519  0.93249509  1
  O  O300  1  0.53676011  0.24982787  0.18290258  1
  O  O301  1  0.53643616  0.24762750  0.43310487  1
  O  O302  1  0.53693204  0.24865524  0.68262229  1
  O  O303  1  0.53675407  0.25158191  0.93291755  1
  O  O304  1  0.53742864  0.58362132  0.18218134  1
  O  O305  1  0.53787835  0.58292798  0.43355824  1
  O  O306  1  0.53792588  0.58200219  0.68214736  1
  O  O307  1  0.53812091  0.58279355  0.93340982  1
  O  O308  1  0.53617490  0.91889805  0.18281859  1
  O  O309  1  0.53594529  0.91666412  0.43187131  1
  O  O310  1  0.53589125  0.91670331  0.68156552  1
  O  O311  1  0.53667261  0.91805776  0.93078589  1
  O  O312  1  0.46288967  0.08358422  0.06874225  1
  O  O313  1  0.46386765  0.08295502  0.31816138  1
  O  O314  1  0.46319573  0.08221152  0.56693227  1
  O  O315  1  0.46293958  0.08186420  0.81722427  1
  O  O316  1  0.46249150  0.41653650  0.06640918  1
  O  O317  1  0.46242398  0.41718538  0.31781767  1
  O  O318  1  0.46339969  0.41524378  0.56750293  1
  O  O319  1  0.46388257  0.41567608  0.81867929  1
  O  O320  1  0.46268280  0.75204907  0.06749337  1
  O  O321  1  0.46371690  0.75228674  0.31706110  1
  O  O322  1  0.46378703  0.75146129  0.56684620  1
  O  O323  1  0.46314005  0.75124032  0.81592235  1
  O  O324  1  0.96206122  0.08484979  0.06754716  1
  O  O325  1  0.96236643  0.08547950  0.31740072  1
  O  O326  1  0.96306330  0.08482324  0.56719035  1
  O  O327  1  0.96233990  0.08348290  0.81604698  1
  O  O328  1  0.96347131  0.41651720  0.06843299  1
  O  O329  1  0.96285405  0.41651276  0.31598451  1
  O  O330  1  0.96274854  0.41482080  0.56762975  1
  O  O331  1  0.96327452  0.41392374  0.81747236  1
  O  O332  1  0.96226091  0.74889037  0.06688054  1
  O  O333  1  0.96220311  0.75058109  0.31812174  1
  O  O334  1  0.96368932  0.75191979  0.56740182  1
  O  O335  1  0.96318462  0.74950618  0.81763527  1
  O  O336  1  0.21230988  0.08309690  0.05770925  1
  O  O337  1  0.21354830  0.08461754  0.30870890  1
  O  O338  1  0.21324743  0.08332112  0.55684221  1
  O  O339  1  0.21262673  0.08314912  0.80708376  1
  O  O340  1  0.21249020  0.41683309  0.05882651  1
  O  O341  1  0.21287220  0.41560527  0.30912136  1
  O  O342  1  0.21326980  0.41558458  0.55775053  1
  O  O343  1  0.21332113  0.41751696  0.80737154  1
  O  O344  1  0.21323420  0.75044006  0.05759933  1
  O  O345  1  0.21376475  0.74881659  0.30854021  1
  O  O346  1  0.21377638  0.74997062  0.55684498  1
  O  O347  1  0.21354133  0.75255797  0.80732307  1
  O  O348  1  0.71277878  0.08421915  0.05740686  1
  O  O349  1  0.71239615  0.08189648  0.30758925  1
  O  O350  1  0.71275197  0.08328861  0.55918608  1
  O  O351  1  0.71282243  0.08358767  0.80662073  1
  O  O352  1  0.71256750  0.41586496  0.05797232  1
  O  O353  1  0.71330479  0.41557409  0.30809140  1
  O  O354  1  0.71396320  0.41657728  0.55705958  1
  O  O355  1  0.71321740  0.41631426  0.80566104  1
  O  O356  1  0.71309821  0.75259094  0.05718598  1
  O  O357  1  0.71282978  0.75126939  0.30748379  1
  O  O358  1  0.71321838  0.75147296  0.55746895  1
  O  O359  1  0.71255242  0.75164506  0.80699608  1
  O  O360  1  0.28658238  0.24904299  0.19386180  1
  O  O361  1  0.28635223  0.24808299  0.44181812  1
  O  O362  1  0.28803084  0.24930267  0.69147615  1
  O  O363  1  0.28743199  0.24850688  0.94316863  1
  O  O364  1  0.28722126  0.58556884  0.19262469  1
  O  O365  1  0.28739074  0.58240819  0.44235291  1
  O  O366  1  0.28844183  0.58257702  0.69130779  1
  O  O367  1  0.28786400  0.58527607  0.94297804  1
  O  O368  1  0.28682198  0.91716921  0.19407060  1
  O  O369  1  0.28635810  0.91538526  0.44168779  1
  O  O370  1  0.28604666  0.91682583  0.69303281  1
  O  O371  1  0.28695417  0.91721230  0.94167352  1
  O  O372  1  0.78631076  0.25138208  0.19265987  1
  O  O373  1  0.78603793  0.25061912  0.44321943  1
  O  O374  1  0.78587619  0.24812401  0.69142191  1
  O  O375  1  0.78676792  0.25035999  0.94257512  1
  O  O376  1  0.78749323  0.58236571  0.19269207  1
  O  O377  1  0.78657822  0.58141628  0.44163081  1
  O  O378  1  0.78775278  0.58275335  0.69052687  1
  O  O379  1  0.78800767  0.58421190  0.94145235  1
  O  O380  1  0.78657311  0.91566356  0.19233349  1
  O  O381  1  0.78663279  0.91615704  0.44357378  1
  O  O382  1  0.78635274  0.91589430  0.69184333  1
  O  O383  1  0.78625294  0.91732134  0.94316226  1
  O  O384  1  0.22792510  0.24793849  0.05850542  1
  O  O385  1  0.22718980  0.25003027  0.30961788  1
  O  O386  1  0.22790887  0.24787217  0.55806587  1
  O  O387  1  0.22871805  0.24969793  0.80662301  1
  O  O388  1  0.22844993  0.58577859  0.05851930  1
  O  O389  1  0.22854394  0.58477229  0.30850422  1
  O  O390  1  0.22864728  0.58182122  0.55829477  1
  O  O391  1  0.22942015  0.58409178  0.80664365  1
  O  O392  1  0.22840166  0.91691299  0.05751866  1
  O  O393  1  0.22717344  0.91723382  0.30960203  1
  O  O394  1  0.22749254  0.91489532  0.55766246  1
  O  O395  1  0.22699208  0.91742170  0.80925568  1
  O  O396  1  0.72789988  0.25143848  0.05847407  1
  O  O397  1  0.72718529  0.25163235  0.30839785  1
  O  O398  1  0.72678300  0.24948120  0.55903649  1
  O  O399  1  0.72716932  0.24794182  0.80749242  1
  O  O400  1  0.72866677  0.58349419  0.05662699  1
  O  O401  1  0.72787581  0.58209041  0.30796127  1
  O  O402  1  0.72816453  0.58175664  0.55767700  1
  O  O403  1  0.72877051  0.58378737  0.80593245  1
  O  O404  1  0.72711382  0.91759558  0.05920806  1
  O  O405  1  0.72765966  0.91483573  0.30826368  1
  O  O406  1  0.72683226  0.91616854  0.55909546  1
  O  O407  1  0.72743178  0.91595641  0.80773495  1
  O  O408  1  0.27228779  0.08502863  0.19267653  1
  O  O409  1  0.27278598  0.08282475  0.44120498  1
  O  O410  1  0.27180767  0.08415356  0.69143882  1
  O  O411  1  0.27155788  0.08143462  0.94212232  1
  O  O412  1  0.27168682  0.41656374  0.19363927  1
  O  O413  1  0.27208985  0.41436690  0.44198061  1
  O  O414  1  0.27247386  0.41782116  0.69178775  1
  O  O415  1  0.27209166  0.41680471  0.94393956  1
  O  O416  1  0.27235575  0.74861879  0.19243138  1
  O  O417  1  0.27323963  0.74884147  0.44106403  1
  O  O418  1  0.27241698  0.75193461  0.69156726  1
  O  O419  1  0.27237633  0.75259775  0.94185962  1
  O  O420  1  0.77172175  0.08186036  0.19203710  1
  O  O421  1  0.77143744  0.08321253  0.44337057  1
  O  O422  1  0.77232523  0.08399868  0.69077499  1
  O  O423  1  0.77173121  0.08501648  0.94154233  1
  O  O424  1  0.77196697  0.41463867  0.19192192  1
  O  O425  1  0.77268554  0.41563642  0.44066153  1
  O  O426  1  0.77294136  0.41705688  0.69024084  1
  O  O427  1  0.77167411  0.41610225  0.94254677  1
  O  O428  1  0.77191343  0.75171714  0.19183606  1
  O  O429  1  0.77213381  0.75146273  0.44169233  1
  O  O430  1  0.77179053  0.75146612  0.69150584  1
  O  O431  1  0.77196986  0.75295221  0.94125619  1
  O  O432  1  0.02149576  0.08605217  0.18288313  1
  O  O433  1  0.02146435  0.08524098  0.43299296  1
  O  O434  1  0.02208988  0.08425396  0.68286445  1
  O  O435  1  0.02113305  0.08371183  0.93151415  1
  O  O436  1  0.02256883  0.41714333  0.18453634  1
  O  O437  1  0.02167642  0.41581925  0.43155126  1
  O  O438  1  0.02226467  0.41383299  0.68296764  1
  O  O439  1  0.02222466  0.41461952  0.93313672  1
  O  O440  1  0.02114536  0.74971936  0.18213717  1
  O  O441  1  0.02233967  0.75119612  0.43295441  1
  O  O442  1  0.02252742  0.75148654  0.68313741  1
  O  O443  1  0.02206890  0.74794045  0.93347232  1
  O  O444  1  0.52235095  0.08338476  0.18462653  1
  O  O445  1  0.52285272  0.08320947  0.43442278  1
  O  O446  1  0.52184284  0.08142465  0.68299351  1
  O  O447  1  0.52191369  0.08240449  0.93298908  1
  O  O448  1  0.52131214  0.41622737  0.18200136  1
  O  O449  1  0.52210579  0.41725324  0.43300115  1
  O  O450  1  0.52275256  0.41402251  0.68300583  1
  O  O451  1  0.52266123  0.41665513  0.93486945  1
  O  O452  1  0.52221654  0.75296596  0.18276592  1
  O  O453  1  0.52246752  0.75210377  0.43291295  1
  O  O454  1  0.52265322  0.75182009  0.68262553  1
  O  O455  1  0.52187940  0.75104592  0.93150752  1
  O  O456  1  0.47763052  0.25099830  0.06719732  1
  O  O457  1  0.47738662  0.24765651  0.31739864  1
  O  O458  1  0.47782909  0.24777957  0.56692102  1
  O  O459  1  0.47796891  0.25110727  0.81709390  1
  O  O460  1  0.47823185  0.58229982  0.06661174  1
  O  O461  1  0.47878737  0.58424627  0.31830950  1
  O  O462  1  0.47854669  0.58203538  0.56667545  1
  O  O463  1  0.47932149  0.58306785  0.81795679  1
  O  O464  1  0.47754147  0.91923102  0.06669735  1
  O  O465  1  0.47700594  0.91731480  0.31568177  1
  O  O466  1  0.47680129  0.91618518  0.56547285  1
  O  O467  1  0.47714675  0.91773194  0.81496249  1
  O  O468  1  0.97764047  0.25197123  0.06693206  1
  O  O469  1  0.97676738  0.24982493  0.31544244  1
  O  O470  1  0.97772858  0.24785959  0.56697134  1
  O  O471  1  0.97736521  0.24988641  0.81551938  1
  O  O472  1  0.97812574  0.58438979  0.06686301  1
  O  O473  1  0.97806244  0.58127585  0.31738201  1
  O  O474  1  0.97904740  0.58311055  0.56869235  1
  O  O475  1  0.97911473  0.58250727  0.81824663  1
  O  O476  1  0.97847299  0.91679172  0.06873187  1
  O  O477  1  0.97800764  0.91749743  0.31868008  1
  O  O478  1  0.97761572  0.91598539  0.56726653  1
  O  O479  1  0.97782798  0.91509697  0.81700545  1
  O  O480  1  0.07281760  0.31522066  0.07458442  1
  O  O481  1  0.07168171  0.31360047  0.32365977  1
  O  O482  1  0.07299512  0.31185729  0.57442883  1
  O  O483  1  0.07285892  0.31304586  0.82270302  1
  O  O484  1  0.07306705  0.64777006  0.07487705  1
  O  O485  1  0.07306727  0.64597475  0.32480852  1
  O  O486  1  0.07482768  0.64604167  0.57534562  1
  O  O487  1  0.07451799  0.64630988  0.82522233  1
  O  O488  1  0.07349865  0.98128659  0.07520844  1
  O  O489  1  0.07343813  0.98080288  0.32669036  1
  O  O490  1  0.07325242  0.97921437  0.57518979  1
  O  O491  1  0.07325646  0.97880482  0.82448570  1
  O  O492  1  0.57267284  0.31433203  0.07474022  1
  O  O493  1  0.57229972  0.31201496  0.32567736  1
  O  O494  1  0.57344841  0.31117605  0.57425892  1
  O  O495  1  0.57304832  0.31467212  0.82394428  1
  O  O496  1  0.57322040  0.64702221  0.07438645  1
  O  O497  1  0.57446314  0.64710235  0.32580077  1
  O  O498  1  0.57420629  0.64548131  0.57465787  1
  O  O499  1  0.57461209  0.64670094  0.82538256  1
  O  O500  1  0.57236690  0.98276726  0.07414380  1
  O  O501  1  0.57225135  0.98076852  0.32403574  1
  O  O502  1  0.57139516  0.98036790  0.57292269  1
  O  O503  1  0.57255846  0.98104331  0.82219667  1
  O  O504  1  0.42684703  0.02027483  0.17723184  1
  O  O505  1  0.42827650  0.01913926  0.42659665  1
  O  O506  1  0.42655243  0.01821219  0.67500277  1
  O  O507  1  0.42703290  0.01859197  0.92613502  1
  O  O508  1  0.42558515  0.35336245  0.17497368  1
  O  O509  1  0.42652981  0.35365879  0.42537747  1
  O  O510  1  0.42740374  0.35113890  0.67583093  1
  O  O511  1  0.42750382  0.35281722  0.92709593  1
  O  O512  1  0.42727857  0.68841046  0.17556907  1
  O  O513  1  0.42733465  0.68825874  0.42471872  1
  O  O514  1  0.42777412  0.68729166  0.67434353  1
  O  O515  1  0.42650092  0.68760037  0.92395390  1
  O  O516  1  0.92653540  0.02149791  0.17584802  1
  O  O517  1  0.92601202  0.02166685  0.42525272  1
  O  O518  1  0.92663534  0.02074935  0.67443859  1
  O  O519  1  0.92592100  0.01980890  0.92416280  1
  O  O520  1  0.92762535  0.35329077  0.17693561  1
  O  O521  1  0.92617165  0.35262887  0.42406285  1
  O  O522  1  0.92674084  0.35108541  0.67574384  1
  O  O523  1  0.92712468  0.35091622  0.92644966  1
  O  O524  1  0.92530140  0.68658236  0.17556510  1
  O  O525  1  0.92695750  0.68714221  0.42619908  1
  O  O526  1  0.92730362  0.68743870  0.67453868  1
  O  O527  1  0.92684366  0.68492170  0.92549090  1
  O  O528  1  0.17688923  0.02117905  0.20093714  1
  O  O529  1  0.17787977  0.01890047  0.44902942  1
  O  O530  1  0.17616187  0.02062764  0.69883432  1
  O  O531  1  0.17620227  0.01884944  0.94932650  1
  O  O532  1  0.17608102  0.35311593  0.20069440  1
  O  O533  1  0.17687668  0.35122321  0.44984064  1
  O  O534  1  0.17703921  0.35408784  0.69967039  1
  O  O535  1  0.17665607  0.35326301  0.95053583  1
  O  O536  1  0.17687506  0.68591195  0.19969699  1
  O  O537  1  0.17792567  0.68559107  0.44925242  1
  O  O538  1  0.17719985  0.68813468  0.69996090  1
  O  O539  1  0.17751522  0.68770781  0.94897103  1
  O  O540  1  0.67677568  0.01839395  0.19894608  1
  O  O541  1  0.67611605  0.01966615  0.45115634  1
  O  O542  1  0.67825828  0.01911827  0.69833622  1
  O  O543  1  0.67622017  0.02145120  0.94923944  1
  O  O544  1  0.67651892  0.35191481  0.19967568  1
  O  O545  1  0.67728118  0.35260152  0.44931854  1
  O  O546  1  0.67839355  0.35251901  0.69732441  1
  O  O547  1  0.67584909  0.35320386  0.94951621  1
  O  O548  1  0.67676465  0.68760472  0.19962807  1
  O  O549  1  0.67686391  0.68765327  0.44999403  1
  O  O550  1  0.67648532  0.68767085  0.69915539  1
  O  O551  1  0.67707266  0.68852272  0.94945727  1
  O  O552  1  0.32323882  0.31196580  0.05110976  1
  O  O553  1  0.32236277  0.31346780  0.30172000  1
  O  O554  1  0.32360889  0.31105617  0.54961110  1
  O  O555  1  0.32405178  0.31323332  0.79970251  1
  O  O556  1  0.32359226  0.64924756  0.05112871  1
  O  O557  1  0.32377663  0.64826871  0.30153717  1
  O  O558  1  0.32430283  0.64528415  0.55009875  1
  O  O559  1  0.32487823  0.64737399  0.79856094  1
  O  O560  1  0.32371486  0.98048188  0.05016045  1
  O  O561  1  0.32247147  0.98059952  0.30228534  1
  O  O562  1  0.32281082  0.97851595  0.54976071  1
  O  O563  1  0.32175855  0.98115075  0.80090362  1
  O  O564  1  0.82285198  0.31481816  0.05075592  1
  O  O565  1  0.82284658  0.31420908  0.30139269  1
  O  O566  1  0.82160922  0.31363352  0.55184051  1
  O  O567  1  0.82244173  0.31185509  0.79903231  1
  O  O568  1  0.82366287  0.64768307  0.04979753  1
  O  O569  1  0.82346891  0.64548462  0.30066242  1
  O  O570  1  0.82335250  0.64564358  0.54879096  1
  O  O571  1  0.82428118  0.64693393  0.79820936  1
  O  O572  1  0.82200608  0.98126982  0.05129634  1
  O  O573  1  0.82284667  0.97898487  0.30052333  1
  O  O574  1  0.82137955  0.98047523  0.55193356  1
  O  O575  1  0.82293599  0.97946891  0.79964495  1
  O  O576  1  0.42783107  0.14752762  0.17715147  1
  O  O577  1  0.42759239  0.14628036  0.42662464  1
  O  O578  1  0.42667675  0.14513714  0.67532493  1
  O  O579  1  0.42652450  0.14567825  0.92479420  1
  O  O580  1  0.42610186  0.48013685  0.17463383  1
  O  O581  1  0.42730581  0.48103898  0.42642758  1
  O  O582  1  0.42766563  0.47832290  0.67582666  1
  O  O583  1  0.42794171  0.48037646  0.92627922  1
  O  O584  1  0.42675926  0.81572109  0.17584436  1
  O  O585  1  0.42718436  0.81532325  0.42559543  1
  O  O586  1  0.42717357  0.81454508  0.67540071  1
  O  O587  1  0.42648808  0.81451151  0.92401288  1
  O  O588  1  0.92597623  0.14874589  0.17558140  1
  O  O589  1  0.92629031  0.14873636  0.42605158  1
  O  O590  1  0.92706089  0.14785295  0.67609663  1
  O  O591  1  0.92551929  0.14674534  0.92419731  1
  O  O592  1  0.92768323  0.48073173  0.17623412  1
  O  O593  1  0.92632919  0.47935028  0.42474589  1
  O  O594  1  0.92744224  0.47841932  0.67569795  1
  O  O595  1  0.92679471  0.47796790  0.92496542  1
  O  O596  1  0.92600902  0.81347942  0.17439947  1
  O  O597  1  0.92713315  0.81451358  0.42661612  1
  O  O598  1  0.92723705  0.81460610  0.67641989  1
  O  O599  1  0.92691324  0.81221152  0.92586117  1
  O  O600  1  0.07281238  0.18822248  0.07490843  1
  O  O601  1  0.07185999  0.18624241  0.32258131  1
  O  O602  1  0.07307329  0.18497912  0.57368686  1
  O  O603  1  0.07192122  0.18566631  0.82346039  1
  O  O604  1  0.07348359  0.52057277  0.07514022  1
  O  O605  1  0.07355619  0.51868863  0.32414592  1
  O  O606  1  0.07413972  0.51892347  0.57522856  1
  O  O607  1  0.07454470  0.51934209  0.82636242  1
  O  O608  1  0.07440087  0.85415095  0.07601243  1
  O  O609  1  0.07346396  0.85383751  0.32550337  1
  O  O610  1  0.07258996  0.85211519  0.57353611  1
  O  O611  1  0.07276423  0.85153923  0.82439452  1
  O  O612  1  0.57299155  0.18723753  0.07457154  1
  O  O613  1  0.57285866  0.18483323  0.32429632  1
  O  O614  1  0.57261715  0.18411944  0.57461198  1
  O  O615  1  0.57320766  0.18754248  0.82549468  1
  O  O616  1  0.57357473  0.51956462  0.07420708  1
  O  O617  1  0.57396386  0.52011050  0.32493036  1
  O  O618  1  0.57313806  0.51802473  0.57371311  1
  O  O619  1  0.57492462  0.51980075  0.82520697  1
  O  O620  1  0.57292960  0.85580437  0.07472928  1
  O  O621  1  0.57188568  0.85358886  0.32312529  1
  O  O622  1  0.57225689  0.85329146  0.57324485  1
  O  O623  1  0.57169634  0.85365435  0.82262479  1
  O  O624  1  0.32305951  0.18470289  0.05156663  1
  O  O625  1  0.32225313  0.18614162  0.30249254  1
  O  O626  1  0.32254693  0.18402491  0.55020839  1
  O  O627  1  0.32437183  0.18634463  0.79982845  1
  O  O628  1  0.32361129  0.52183955  0.05091491  1
  O  O629  1  0.32385315  0.52118388  0.29972397  1
  O  O630  1  0.32329333  0.51801074  0.55043236  1
  O  O631  1  0.32482791  0.52040963  0.80035341  1
  O  O632  1  0.32395302  0.85387923  0.04997417  1
  O  O633  1  0.32173770  0.85304776  0.30209084  1
  O  O634  1  0.32244251  0.85154851  0.55031771  1
  O  O635  1  0.32201764  0.85369985  0.80137939  1
  O  O636  1  0.82333654  0.18773955  0.05075946  1
  O  O637  1  0.82180579  0.18704386  0.30016260  1
  O  O638  1  0.82198633  0.18630227  0.55103777  1
  O  O639  1  0.82214549  0.18483340  0.80038804  1
  O  O640  1  0.82437143  0.52060086  0.04932830  1
  O  O641  1  0.82263638  0.51816266  0.30101406  1
  O  O642  1  0.82336733  0.51843789  0.55020842  1
  O  O643  1  0.82409409  0.51992079  0.79908952  1
  O  O644  1  0.82216985  0.85383400  0.05142918  1
  O  O645  1  0.82298142  0.85203754  0.30102054  1
  O  O646  1  0.82240778  0.85309135  0.55198876  1
  O  O647  1  0.82244016  0.85256190  0.80079315  1
  O  O648  1  0.17733599  0.14823903  0.19997207  1
  O  O649  1  0.17750318  0.14624734  0.44814370  1
  O  O650  1  0.17707372  0.14773884  0.69885294  1
  O  O651  1  0.17636960  0.14588345  0.94938448  1
  O  O652  1  0.17652640  0.48008191  0.20159583  1
  O  O653  1  0.17682735  0.47843931  0.44969373  1
  O  O654  1  0.17748269  0.48135165  0.69897140  1
  O  O655  1  0.17669195  0.48043453  0.95074991  1
  O  O656  1  0.17739027  0.81292843  0.20097993  1
  O  O657  1  0.17864707  0.81303658  0.44786459  1
  O  O658  1  0.17720521  0.81522175  0.69839995  1
  O  O659  1  0.17686390  0.81482215  0.94968984  1
  O  O660  1  0.67648080  0.14568451  0.20015386  1
  O  O661  1  0.67608157  0.14642094  0.45072771  1
  O  O662  1  0.67650815  0.14648917  0.69825241  1
  O  O663  1  0.67696333  0.14854546  0.94916846  1
  O  O664  1  0.67698000  0.47898011  0.20002865  1
  O  O665  1  0.67820122  0.47986791  0.44830633  1
  O  O666  1  0.67750216  0.48005204  0.69757437  1
  O  O667  1  0.67672594  0.48011331  0.95005437  1
  O  O668  1  0.67660590  0.81472657  0.19876324  1
  O  O669  1  0.67701377  0.81483661  0.44887864  1
  O  O670  1  0.67647469  0.81475198  0.69830733  1
  O  O671  1  0.67651199  0.81577347  0.94874623  1
