# generated using pymatgen
data_Na2MnFe(PO4)2
_symmetry_space_group_name_H-M   'P 1'
_cell_length_a   22.34116166
_cell_length_b   20.09513275
_cell_length_c   19.45030804
_cell_angle_alpha   89.98826923
_cell_angle_beta   90.04482008
_cell_angle_gamma   89.99854982
_symmetry_Int_Tables_number   1
_chemical_formula_structural   Na2MnFe(PO4)2
_chemical_formula_sum   'Na96 Mn48 Fe48 P96 O384'
_cell_volume   8732.18588840
_cell_formula_units_Z   48
loop_
 _symmetry_equiv_pos_site_id
 _symmetry_equiv_pos_as_xyz
  1  'x, y, z'
loop_
 _atom_site_type_symbol
 _atom_site_label
 _atom_site_symmetry_multiplicity
 _atom_site_fract_x
 _atom_site_fract_y
 _atom_site_fract_z
 _atom_site_occupancy
  Na  Na0  1  0.14038535  0.25010389  0.24486795  1
  Na  Na1  1  0.14055922  0.24877633  0.49326792  1
  Na  Na2  1  0.14027274  0.24885391  0.74313348  1
  Na  Na3  1  0.14009230  0.25029893  0.99249555  1
  Na  Na4  1  0.13995812  0.58412600  0.24231687  1
  Na  Na5  1  0.14037937  0.58333311  0.49400450  1
  Na  Na6  1  0.14063769  0.58290022  0.74336665  1
  Na  Na7  1  0.13972823  0.58360640  0.99364822  1
  Na  Na8  1  0.14084866  0.91633193  0.24418971  1
  Na  Na9  1  0.14078785  0.91737271  0.49473663  1
  Na  Na10  1  0.14009225  0.91582134  0.74251324  1
  Na  Na11  1  0.14043738  0.91703527  0.99320184  1
  Na  Na12  1  0.63970833  0.25117174  0.24249068  1
  Na  Na13  1  0.64033753  0.24965163  0.49412724  1
  Na  Na14  1  0.64033858  0.25033125  0.74497774  1
  Na  Na15  1  0.63978519  0.24927852  0.99432041  1
  Na  Na16  1  0.64019257  0.58400650  0.24220592  1
  Na  Na17  1  0.63958950  0.58434437  0.49382750  1
  Na  Na18  1  0.63979637  0.58302257  0.74360428  1
  Na  Na19  1  0.63998207  0.58278460  0.99465169  1
  Na  Na20  1  0.64021357  0.91660088  0.24323861  1
  Na  Na21  1  0.64040133  0.91709876  0.49445394  1
  Na  Na22  1  0.63980941  0.91735506  0.74319554  1
  Na  Na23  1  0.63990342  0.91665492  0.99357111  1
  Na  Na24  1  0.36007277  0.08295705  0.00661352  1
  Na  Na25  1  0.35924965  0.08290214  0.25779350  1
  Na  Na26  1  0.36023220  0.08179327  0.50657684  1
  Na  Na27  1  0.36037105  0.08138473  0.75637014  1
  Na  Na28  1  0.35940474  0.41706323  0.00606055  1
  Na  Na29  1  0.35969985  0.41587377  0.25668592  1
  Na  Na30  1  0.35937368  0.41709586  0.50657043  1
  Na  Na31  1  0.36003972  0.41650136  0.75642436  1
  Na  Na32  1  0.35972624  0.74957998  0.00722776  1
  Na  Na33  1  0.36003774  0.75063553  0.25651727  1
  Na  Na34  1  0.35928812  0.75002726  0.50681410  1
  Na  Na35  1  0.35964284  0.74896493  0.75554562  1
  Na  Na36  1  0.86038566  0.08313099  0.00634900  1
  Na  Na37  1  0.85947721  0.08419342  0.25443265  1
  Na  Na38  1  0.86014855  0.08424480  0.50712282  1
  Na  Na39  1  0.86058602  0.08485863  0.75728817  1
  Na  Na40  1  0.85964463  0.41652166  0.00762461  1
  Na  Na41  1  0.85995366  0.41676136  0.25517813  1
  Na  Na42  1  0.85954125  0.41706220  0.50624334  1
  Na  Na43  1  0.86001798  0.41709222  0.75709869  1
  Na  Na44  1  0.85952502  0.74906218  0.00667585  1
  Na  Na45  1  0.86010187  0.74956583  0.25424217  1
  Na  Na46  1  0.85996329  0.75012805  0.50550688  1
  Na  Na47  1  0.85958296  0.75076125  0.75627587  1
  Na  Na48  1  0.10985809  0.08379716  0.11879842  1
  Na  Na49  1  0.11010510  0.08460563  0.36924454  1
  Na  Na50  1  0.11005817  0.08297077  0.61906451  1
  Na  Na51  1  0.10936477  0.08351216  0.86811305  1
  Na  Na52  1  0.10931443  0.41690561  0.11857670  1
  Na  Na53  1  0.10946108  0.41698586  0.36824796  1
  Na  Na54  1  0.10981847  0.41576267  0.61924050  1
  Na  Na55  1  0.10918419  0.41664961  0.86784368  1
  Na  Na56  1  0.11014630  0.74938538  0.11761917  1
  Na  Na57  1  0.11022159  0.75005701  0.36800298  1
  Na  Na58  1  0.10975645  0.75040251  0.61854368  1
  Na  Na59  1  0.10934442  0.74945692  0.86883943  1
  Na  Na60  1  0.60872501  0.08405186  0.11774279  1
  Na  Na61  1  0.60939567  0.08373771  0.36915122  1
  Na  Na62  1  0.60987242  0.08345323  0.61877326  1
  Na  Na63  1  0.60958093  0.08218119  0.86929973  1
  Na  Na64  1  0.60935244  0.41590929  0.11777877  1
  Na  Na65  1  0.60897016  0.41826984  0.36834350  1
  Na  Na66  1  0.60909419  0.41753597  0.61884244  1
  Na  Na67  1  0.60961317  0.41551079  0.87003291  1
  Na  Na68  1  0.60976334  0.75089571  0.11827742  1
  Na  Na69  1  0.60920130  0.74992492  0.36868576  1
  Na  Na70  1  0.60923094  0.75011157  0.61837173  1
  Na  Na71  1  0.60915234  0.74923118  0.86900586  1
  Na  Na72  1  0.38994799  0.24978200  0.13099146  1
  Na  Na73  1  0.39036960  0.25065020  0.38269813  1
  Na  Na74  1  0.39079899  0.24874824  0.63095682  1
  Na  Na75  1  0.39064348  0.24837765  0.88212396  1
  Na  Na76  1  0.39036218  0.58443299  0.13175553  1
  Na  Na77  1  0.39059870  0.58406208  0.38128569  1
  Na  Na78  1  0.38977399  0.58362129  0.63153693  1
  Na  Na79  1  0.38989648  0.58154178  0.88125490  1
  Na  Na80  1  0.39032912  0.91595710  0.13240971  1
  Na  Na81  1  0.39019675  0.91588748  0.38249541  1
  Na  Na82  1  0.39032821  0.91649848  0.63137951  1
  Na  Na83  1  0.39062809  0.91575842  0.88073647  1
  Na  Na84  1  0.89042120  0.25045462  0.13088117  1
  Na  Na85  1  0.89012616  0.25094669  0.38031346  1
  Na  Na86  1  0.89100663  0.24983407  0.63268373  1
  Na  Na87  1  0.89077539  0.25070778  0.88190690  1
  Na  Na88  1  0.89055944  0.58261096  0.13158655  1
  Na  Na89  1  0.89031017  0.58328102  0.37931429  1
  Na  Na90  1  0.89032007  0.58374649  0.63213565  1
  Na  Na91  1  0.89059924  0.58297859  0.88162180  1
  Na  Na92  1  0.89071161  0.91632016  0.13003595  1
  Na  Na93  1  0.89054700  0.91745303  0.38049092  1
  Na  Na94  1  0.89115094  0.91804440  0.63237991  1
  Na  Na95  1  0.89056212  0.91724633  0.88126323  1
  Mn  Mn96  1  0.00049057  0.00132904  0.50080670  1
  Mn  Mn97  1  0.24951784  0.50077193  0.12565031  1
  Mn  Mn98  1  0.49924119  -0.00032969  0.25015653  1
  Mn  Mn99  1  0.75069705  0.00135593  0.62457930  1
  Mn  Mn100  1  0.50015135  0.33427426  0.50050050  1
  Mn  Mn101  1  0.00093460  0.83296132  0.24940176  1
  Mn  Mn102  1  -0.00020509  0.00089859  0.24984835  1
  Mn  Mn103  1  0.50001662  0.83357357  0.50014774  1
  Mn  Mn104  1  0.00001706  0.49975400  0.49964693  1
  Mn  Mn105  1  0.24936193  -0.00074168  0.12585913  1
  Mn  Mn106  1  0.75017060  0.49927897  0.87517388  1
  Mn  Mn107  1  0.49926716  0.16744737  0.24962721  1
  Mn  Mn108  1  0.25021395  0.33320237  0.87429500  1
  Mn  Mn109  1  0.00019800  0.83333280  -0.00035054  1
  Mn  Mn110  1  0.24996661  0.33337852  0.12461846  1
  Mn  Mn111  1  0.74958115  0.33318732  0.62570578  1
  Mn  Mn112  1  0.49984824  0.50053544  0.24959796  1
  Mn  Mn113  1  0.75062392  0.83333735  0.62485501  1
  Mn  Mn114  1  0.25031268  0.49969823  0.37463494  1
  Mn  Mn115  1  0.25090089  0.33274538  0.62522730  1
  Mn  Mn116  1  0.74974483  0.33363930  0.37459197  1
  Mn  Mn117  1  0.25087297  -0.00033628  0.87497459  1
  Mn  Mn118  1  0.75011965  0.00067975  0.37435132  1
  Mn  Mn119  1  0.49957753  0.83284903  0.00001347  1
  Mn  Mn120  1  0.74883996  0.83385600  0.87484077  1
  Mn  Mn121  1  0.24964249  0.83262494  0.87469618  1
  Mn  Mn122  1  0.50045498  0.16523690  0.75082282  1
  Mn  Mn123  1  0.00029152  0.66671407  0.75011001  1
  Mn  Mn124  1  0.74984863  -0.00003873  0.12501596  1
  Mn  Mn125  1  0.50013208  0.66601477  0.74973975  1
  Mn  Mn126  1  0.24954591  0.66601013  0.87503106  1
  Mn  Mn127  1  0.74982843  0.66697874  0.37397722  1
  Mn  Mn128  1  0.75030436  0.16718945  0.87586101  1
  Mn  Mn129  1  0.74936522  0.50084271  0.62565401  1
  Mn  Mn130  1  0.49966615  0.49935196  0.00089715  1
  Mn  Mn131  1  0.00001209  0.33369820  -0.00029361  1
  Mn  Mn132  1  0.50024810  0.33327295  0.75001422  1
  Mn  Mn133  1  0.00013509  0.66647715  0.49987607  1
  Mn  Mn134  1  -0.00042487  0.33290422  0.50015412  1
  Mn  Mn135  1  0.75011717  0.83348249  0.37456910  1
  Mn  Mn136  1  -0.00066929  0.16775645  0.24910539  1
  Mn  Mn137  1  0.75011489  0.16723007  0.37464087  1
  Mn  Mn138  1  0.24995274  0.16682292  0.12593151  1
  Mn  Mn139  1  0.74981965  0.66649134  0.87579111  1
  Mn  Mn140  1  0.24987955  0.66757330  0.37508708  1
  Mn  Mn141  1  0.00018453  0.83367306  0.49953275  1
  Mn  Mn142  1  0.74988489  0.50042713  0.37473590  1
  Mn  Mn143  1  0.25099029  0.16507827  0.62393146  1
  Fe  Fe144  1  0.25001961  0.16586933  0.87439953  1
  Fe  Fe145  1  0.00061172  0.00033227  -0.00077393  1
  Fe  Fe146  1  0.49973576  -0.00085114  0.00004298  1
  Fe  Fe147  1  0.00052973  0.16712094  -0.00048237  1
  Fe  Fe148  1  -0.00036605  0.49999952  0.00010471  1
  Fe  Fe149  1  0.74973536  0.49945103  0.12462692  1
  Fe  Fe150  1  0.49994910  -0.00058756  0.75007839  1
  Fe  Fe151  1  0.50043978  0.83323124  0.25040929  1
  Fe  Fe152  1  0.25031745  -0.00090963  0.37550602  1
  Fe  Fe153  1  0.00023156  0.50001930  0.75062699  1
  Fe  Fe154  1  0.25003659  0.50012641  0.87485231  1
  Fe  Fe155  1  0.75051489  0.83357625  0.12417576  1
  Fe  Fe156  1  0.50032168  0.16683028  0.50011877  1
  Fe  Fe157  1  0.75010472  0.00050028  0.87531565  1
  Fe  Fe158  1  0.49951159  0.16586478  0.00017070  1
  Fe  Fe159  1  0.74998001  0.33309674  0.12493864  1
  Fe  Fe160  1  0.25037955  0.83352220  0.12561704  1
  Fe  Fe161  1  0.00022504  0.33324495  0.75032801  1
  Fe  Fe162  1  0.74944441  0.16669061  0.12435090  1
  Fe  Fe163  1  0.00042266  0.00051149  0.75047699  1
  Fe  Fe164  1  0.25008220  -0.00075433  0.62481233  1
  Fe  Fe165  1  0.00055545  0.16653018  0.75046798  1
  Fe  Fe166  1  0.74986190  0.66702574  0.62491387  1
  Fe  Fe167  1  0.49957818  0.50098253  0.49936009  1
  Fe  Fe168  1  0.25020681  0.66733269  0.12471676  1
  Fe  Fe169  1  0.00011843  0.66623720  0.24882616  1
  Fe  Fe170  1  0.24975479  0.49950278  0.62483155  1
  Fe  Fe171  1  0.50033456  0.66728852  0.25062010  1
  Fe  Fe172  1  0.49964981  0.33370015  0.25021059  1
  Fe  Fe173  1  0.49974873  0.49980850  0.75024277  1
  Fe  Fe174  1  0.74975700  0.66664371  0.12452315  1
  Fe  Fe175  1  0.49965224  0.66631503  -0.00007910  1
  Fe  Fe176  1  -0.00015912  0.83340178  0.75049377  1
  Fe  Fe177  1  0.24999946  0.83307575  0.62465585  1
  Fe  Fe178  1  -0.00002840  0.16705164  0.50056396  1
  Fe  Fe179  1  0.00039281  0.33364929  0.24980299  1
  Fe  Fe180  1  -0.00036681  0.66598097  -0.00071875  1
  Fe  Fe181  1  0.49985752  0.83307375  0.74993910  1
  Fe  Fe182  1  0.24946035  0.33305854  0.37571263  1
  Fe  Fe183  1  0.24981993  0.66628037  0.62504725  1
  Fe  Fe184  1  0.74989232  0.33322024  0.87586096  1
  Fe  Fe185  1  0.25049164  0.16596434  0.37543891  1
  Fe  Fe186  1  0.50065077  -0.00017795  0.50050300  1
  Fe  Fe187  1  0.75018697  0.16745224  0.62600034  1
  Fe  Fe188  1  0.49925921  0.33262324  -0.00033993  1
  Fe  Fe189  1  0.49954777  0.66693558  0.50003070  1
  Fe  Fe190  1  0.00027710  0.50026189  0.24927655  1
  Fe  Fe191  1  0.24958417  0.83350581  0.37579533  1
  P  P192  1  0.04243998  0.24958839  0.10213294  1
  P  P193  1  0.04207264  0.25122835  0.35264900  1
  P  P194  1  0.04246494  0.24859079  0.60334292  1
  P  P195  1  0.04157385  0.24972726  0.85183031  1
  P  P196  1  0.04107248  0.58304686  0.10184025  1
  P  P197  1  0.04178205  0.58358579  0.35075773  1
  P  P198  1  0.04256721  0.58269314  0.60364656  1
  P  P199  1  0.04217231  0.58217051  0.85320405  1
  P  P200  1  0.04264655  0.91794359  0.10176943  1
  P  P201  1  0.04305789  0.91739421  0.35292803  1
  P  P202  1  0.04264280  0.91687001  0.60419622  1
  P  P203  1  0.04147726  0.91691313  0.85182186  1
  P  P204  1  0.54042580  0.25018132  0.10165546  1
  P  P205  1  0.54199237  0.25149353  0.35263789  1
  P  P206  1  0.54215050  0.24893639  0.60251439  1
  P  P207  1  0.54227596  0.24935595  0.85425738  1
  P  P208  1  0.54174782  0.58509777  0.10304904  1
  P  P209  1  0.54219024  0.58486724  0.35285016  1
  P  P210  1  0.54074200  0.58325446  0.60182468  1
  P  P211  1  0.54205056  0.58165279  0.85295285  1
  P  P212  1  0.54187866  0.91731826  0.10263587  1
  P  P213  1  0.54226579  0.91569202  0.35287341  1
  P  P214  1  0.54218139  0.91774704  0.60341911  1
  P  P215  1  0.54122862  0.91617844  0.85191455  1
  P  P216  1  0.45665325  0.08318850  0.14636884  1
  P  P217  1  0.45894728  0.08307550  0.39880628  1
  P  P218  1  0.45829494  0.08156190  0.64716192  1
  P  P219  1  0.45866541  0.08182227  0.89830189  1
  P  P220  1  0.45760433  0.41520405  0.14723330  1
  P  P221  1  0.45740772  0.41832625  0.39734059  1
  P  P222  1  0.45789477  0.41830342  0.64716388  1
  P  P223  1  0.45749593  0.41531665  0.89748648  1
  P  P224  1  0.45879872  0.75004163  0.14854170  1
  P  P225  1  0.45782243  0.74898381  0.39736565  1
  P  P226  1  0.45800029  0.75094282  0.64728683  1
  P  P227  1  0.45745272  0.74828239  0.89724917  1
  P  P228  1  0.95741088  0.08367155  0.14519028  1
  P  P229  1  0.95767763  0.08550030  0.39785666  1
  P  P230  1  0.95901009  0.08411368  0.64879828  1
  P  P231  1  0.95912409  0.08393222  0.89762794  1
  P  P232  1  0.95913211  0.41676050  0.14789318  1
  P  P233  1  0.95721264  0.41667862  0.39588777  1
  P  P234  1  0.95877109  0.41667186  0.64899038  1
  P  P235  1  0.95783438  0.41815179  0.89721606  1
  P  P236  1  0.95850673  0.74833591  0.14632793  1
  P  P237  1  0.95768033  0.74941586  0.39578640  1
  P  P238  1  0.95777044  0.75145474  0.64780878  1
  P  P239  1  0.95773126  0.74912993  0.89717548  1
  P  P240  1  0.20748484  0.08309321  0.22966269  1
  P  P241  1  0.20916004  0.08201052  0.47684463  1
  P  P242  1  0.20835109  0.08175971  0.72735311  1
  P  P243  1  0.20788142  0.08410038  0.97722466  1
  P  P244  1  0.20715156  0.41609386  0.22863321  1
  P  P245  1  0.20774134  0.41588127  0.47788515  1
  P  P246  1  0.20833566  0.41740971  0.72761222  1
  P  P247  1  0.20756687  0.41804699  0.97690343  1
  P  P248  1  0.20861586  0.75064167  0.22685430  1
  P  P249  1  0.20768302  0.75155398  0.47847607  1
  P  P250  1  0.20849432  0.74962088  0.72618552  1
  P  P251  1  0.20731562  0.74982962  0.97890294  1
  P  P252  1  0.70682786  0.08496859  0.22683546  1
  P  P253  1  0.70740055  0.08404242  0.47840434  1
  P  P254  1  0.70813375  0.08498507  0.72820774  1
  P  P255  1  0.70801590  0.08252277  0.97799121  1
  P  P256  1  0.70806187  0.41670520  0.22599481  1
  P  P257  1  0.70673379  0.41704469  0.47806520  1
  P  P258  1  0.70676280  0.41650398  0.72905321  1
  P  P259  1  0.70814797  0.41501663  0.97881792  1
  P  P260  1  0.70875066  0.75059027  0.22564087  1
  P  P261  1  0.70711306  0.74994011  0.47820241  1
  P  P262  1  0.70722548  0.74912411  0.72731108  1
  P  P263  1  0.70700337  0.75011314  0.97910973  1
  P  P264  1  0.29230288  0.24955280  0.02120784  1
  P  P265  1  0.29156528  0.25000742  0.27434853  1
  P  P266  1  0.29295210  0.24952552  0.52088120  1
  P  P267  1  0.29281474  0.24783995  0.77236221  1
  P  P268  1  0.29207806  0.58432952  0.02258562  1
  P  P269  1  0.29256800  0.58438452  0.27162702  1
  P  P270  1  0.29098487  0.58317261  0.52349093  1
  P  P271  1  0.29192525  0.58178197  0.77163702  1
  P  P272  1  0.29245870  0.91546668  0.02312567  1
  P  P273  1  0.29172502  0.91585628  0.27383464  1
  P  P274  1  0.29158145  0.91629672  0.52288980  1
  P  P275  1  0.29238300  0.91563223  0.77085357  1
  P  P276  1  0.79142962  0.25011805  0.02319883  1
  P  P277  1  0.79236682  0.25050116  0.27037622  1
  P  P278  1  0.79266665  0.24923253  0.52318707  1
  P  P279  1  0.79248917  0.25144959  0.77309564  1
  P  P280  1  0.79134699  0.58269674  0.02365613  1
  P  P281  1  0.79213252  0.58325681  0.27004058  1
  P  P282  1  0.79233963  0.58488893  0.52269625  1
  P  P283  1  0.79273749  0.58381537  0.77195979  1
  P  P284  1  0.79228264  0.91602701  0.02179779  1
  P  P285  1  0.79299538  0.91668613  0.27083160  1
  P  P286  1  0.79376987  0.91699975  0.52179474  1
  P  P287  1  0.79204589  0.91858115  0.77274396  1
  O  O288  1  0.03702636  0.25046353  0.18201007  1
  O  O289  1  0.03683635  0.25051533  0.43255717  1
  O  O290  1  0.03753412  0.24854183  0.68323227  1
  O  O291  1  0.03683813  0.24974514  0.93178814  1
  O  O292  1  0.03595449  0.58323858  0.18176163  1
  O  O293  1  0.03732781  0.58334402  0.43079294  1
  O  O294  1  0.03754616  0.58241365  0.68359751  1
  O  O295  1  0.03651776  0.58249899  0.93306074  1
  O  O296  1  0.03757034  0.91756683  0.18170786  1
  O  O297  1  0.03790905  0.91733815  0.43288754  1
  O  O298  1  0.03730996  0.91649334  0.68411010  1
  O  O299  1  0.03663823  0.91765784  0.93179542  1
  O  O300  1  0.53569143  0.25061132  0.18163772  1
  O  O301  1  0.53706458  0.25096909  0.43258395  1
  O  O302  1  0.53717569  0.24880973  0.68245045  1
  O  O303  1  0.53670446  0.24944477  0.93411477  1
  O  O304  1  0.53641826  0.58538770  0.18295568  1
  O  O305  1  0.53670686  0.58460294  0.43272412  1
  O  O306  1  0.53595916  0.58280263  0.68181828  1
  O  O307  1  0.53678883  0.58215115  0.93287354  1
  O  O308  1  0.53680002  0.91675137  0.18252925  1
  O  O309  1  0.53724864  0.91611376  0.43281768  1
  O  O310  1  0.53676142  0.91738832  0.68328216  1
  O  O311  1  0.53592551  0.91653878  0.93186865  1
  O  O312  1  0.46180157  0.08288312  0.06647627  1
  O  O313  1  0.46340727  0.08350256  0.31879518  1
  O  O314  1  0.46357258  0.08185840  0.56732998  1
  O  O315  1  0.46375909  0.08150813  0.81835520  1
  O  O316  1  0.46283760  0.41484857  0.06728594  1
  O  O317  1  0.46272414  0.41761562  0.31740033  1
  O  O318  1  0.46332886  0.41867578  0.56723945  1
  O  O319  1  0.46283028  0.41611949  0.81756531  1
  O  O320  1  0.46337528  0.74970927  0.06854030  1
  O  O321  1  0.46322732  0.74916571  0.31751143  1
  O  O322  1  0.46320273  0.75057052  0.56739599  1
  O  O323  1  0.46279365  0.74886890  0.81737410  1
  O  O324  1  0.96298767  0.08344877  0.06532081  1
  O  O325  1  0.96251022  0.08529994  0.31787152  1
  O  O326  1  0.96355728  0.08427682  0.56882453  1
  O  O327  1  0.96452082  0.08399323  0.81772075  1
  O  O328  1  0.96378682  0.41736499  0.06791463  1
  O  O329  1  0.96257088  0.41660082  0.31601816  1
  O  O330  1  0.96330019  0.41622701  0.56898241  1
  O  O331  1  0.96303774  0.41810321  0.81739662  1
  O  O332  1  0.96369538  0.74815201  0.06638723  1
  O  O333  1  0.96310581  0.74880162  0.31582224  1
  O  O334  1  0.96298372  0.75106070  0.56785570  1
  O  O335  1  0.96304115  0.74991957  0.81725101  1
  O  O336  1  0.21257286  0.08389359  0.05724314  1
  O  O337  1  0.21305894  0.08279282  0.30952906  1
  O  O338  1  0.21400615  0.08163276  0.55681838  1
  O  O339  1  0.21354989  0.08271186  0.80730116  1
  O  O340  1  0.21253421  0.41763229  0.05690143  1
  O  O341  1  0.21243247  0.41551044  0.30857286  1
  O  O342  1  0.21333272  0.41650754  0.55782156  1
  O  O343  1  0.21359406  0.41760162  0.80753864  1
  O  O344  1  0.21259489  0.74994548  0.05881272  1
  O  O345  1  0.21340331  0.75085558  0.30686265  1
  O  O346  1  0.21318423  0.75118048  0.55832095  1
  O  O347  1  0.21298420  0.74913599  0.80620027  1
  O  O348  1  0.71316021  0.08316244  0.05789825  1
  O  O349  1  0.71197833  0.08468575  0.30682291  1
  O  O350  1  0.71259935  0.08455637  0.55838573  1
  O  O351  1  0.71328509  0.08421920  0.80818211  1
  O  O352  1  0.71383720  0.41519869  0.05871661  1
  O  O353  1  0.71277086  0.41681759  0.30602981  1
  O  O354  1  0.71148065  0.41713266  0.55806533  1
  O  O355  1  0.71200099  0.41600871  0.80902716  1
  O  O356  1  0.71253394  0.75046303  0.05896627  1
  O  O357  1  0.71342568  0.75032519  0.30564063  1
  O  O358  1  0.71222498  0.74956793  0.55816263  1
  O  O359  1  0.71209025  0.74945160  0.80732542  1
  O  O360  1  0.28670483  0.24997607  0.19428846  1
  O  O361  1  0.28736719  0.24996394  0.44103088  1
  O  O362  1  0.28803338  0.24801423  0.69233918  1
  O  O363  1  0.28713393  0.24902968  0.94125999  1
  O  O364  1  0.28731995  0.58497370  0.19170109  1
  O  O365  1  0.28638218  0.58361188  0.44349860  1
  O  O366  1  0.28647360  0.58174012  0.69177169  1
  O  O367  1  0.28717065  0.58377902  0.94260263  1
  O  O368  1  0.28645328  0.91560069  0.19386837  1
  O  O369  1  0.28612237  0.91635796  0.44299248  1
  O  O370  1  0.28691797  0.91583124  0.69097539  1
  O  O371  1  0.28755947  0.91563557  0.94315533  1
  O  O372  1  0.78699283  0.25035682  0.19045932  1
  O  O373  1  0.78772096  0.24953926  0.44318035  1
  O  O374  1  0.78720275  0.25063473  0.69319176  1
  O  O375  1  0.78636042  0.25087123  0.94323263  1
  O  O376  1  0.78677070  0.58297918  0.19016290  1
  O  O377  1  0.78727984  0.58438984  0.44265389  1
  O  O378  1  0.78757905  0.58443264  0.69199407  1
  O  O379  1  0.78677694  0.58268429  0.94366047  1
  O  O380  1  0.78767817  0.91627580  0.19085331  1
  O  O381  1  0.78870394  0.91708605  0.44178547  1
  O  O382  1  0.78737122  0.91836052  0.69275180  1
  O  O383  1  0.78669744  0.91682883  0.94189043  1
  O  O384  1  0.22796985  0.24982609  0.05654305  1
  O  O385  1  0.22736853  0.24990580  0.31003412  1
  O  O386  1  0.22882529  0.24937924  0.55675662  1
  O  O387  1  0.22836357  0.24813274  0.80746821  1
  O  O388  1  0.22774146  0.58488274  0.05799258  1
  O  O389  1  0.22824808  0.58382060  0.30690403  1
  O  O390  1  0.22680016  0.58288505  0.55907328  1
  O  O391  1  0.22778555  0.58149651  0.80783804  1
  O  O392  1  0.22801416  0.91474004  0.05835763  1
  O  O393  1  0.22756626  0.91626214  0.30989027  1
  O  O394  1  0.22761531  0.91637256  0.55946162  1
  O  O395  1  0.22819313  0.91643969  0.80661709  1
  O  O396  1  0.72725199  0.24991950  0.05911762  1
  O  O397  1  0.72807928  0.25044917  0.30594550  1
  O  O398  1  0.72817448  0.24871313  0.55834937  1
  O  O399  1  0.72823550  0.25165903  0.80885237  1
  O  O400  1  0.72705912  0.58227554  0.05902109  1
  O  O401  1  0.72790832  0.58331664  0.30579281  1
  O  O402  1  0.72788042  0.58530246  0.55800765  1
  O  O403  1  0.72833683  0.58315324  0.80707312  1
  O  O404  1  0.72809844  0.91532716  0.05770871  1
  O  O405  1  0.72859750  0.91704087  0.30607966  1
  O  O406  1  0.72928629  0.91719138  0.55665867  1
  O  O407  1  0.72758738  0.91897780  0.80786639  1
  O  O408  1  0.27164724  0.08284874  0.19382278  1
  O  O409  1  0.27331900  0.08172318  0.44102495  1
  O  O410  1  0.27261421  0.08077253  0.69165913  1
  O  O411  1  0.27234568  0.08441356  0.94208341  1
  O  O412  1  0.27150274  0.41666403  0.19334849  1
  O  O413  1  0.27193452  0.41512959  0.44197866  1
  O  O414  1  0.27256771  0.41756538  0.69186326  1
  O  O415  1  0.27194961  0.41787215  0.94158105  1
  O  O416  1  0.27284753  0.75082566  0.19097138  1
  O  O417  1  0.27182617  0.75181444  0.44232394  1
  O  O418  1  0.27270467  0.75006444  0.69062621  1
  O  O419  1  0.27158781  0.74955703  0.94338632  1
  O  O420  1  0.77124833  0.08521775  0.19162007  1
  O  O421  1  0.77181388  0.08379403  0.44324228  1
  O  O422  1  0.77247026  0.08577319  0.69262391  1
  O  O423  1  0.77226177  0.08226554  0.94229602  1
  O  O424  1  0.77241573  0.41675555  0.19059743  1
  O  O425  1  0.77130679  0.41693018  0.44336445  1
  O  O426  1  0.77112784  0.41697148  0.69385187  1
  O  O427  1  0.77222039  0.41485274  0.94250572  1
  O  O428  1  0.77295223  0.75093109  0.18999056  1
  O  O429  1  0.77151216  0.75005039  0.44302924  1
  O  O430  1  0.77170422  0.74840945  0.69215003  1
  O  O431  1  0.77120814  0.75056291  0.94341636  1
  O  O432  1  0.02154975  0.08401109  0.18120220  1
  O  O433  1  0.02213868  0.08577766  0.43321683  1
  O  O434  1  0.02326243  0.08406409  0.68449774  1
  O  O435  1  0.02312014  0.08411006  0.93424584  1
  O  O436  1  0.02320300  0.41618224  0.18398252  1
  O  O437  1  0.02150072  0.41630420  0.43165187  1
  O  O438  1  0.02301968  0.41685158  0.68464779  1
  O  O439  1  0.02206342  0.41834855  0.93318038  1
  O  O440  1  0.02272960  0.74812964  0.18224593  1
  O  O441  1  0.02201666  0.74972071  0.43128461  1
  O  O442  1  0.02209786  0.75170247  0.68345463  1
  O  O443  1  0.02198539  0.74867529  0.93291195  1
  O  O444  1  0.52095768  0.08332701  0.18192073  1
  O  O445  1  0.52315452  0.08284489  0.43453639  1
  O  O446  1  0.52245691  0.08120321  0.68334301  1
  O  O447  1  0.52267379  0.08150882  0.93467596  1
  O  O448  1  0.52186932  0.41538229  0.18304220  1
  O  O449  1  0.52166046  0.41892618  0.43322004  1
  O  O450  1  0.52207080  0.41828943  0.68323606  1
  O  O451  1  0.52167401  0.41498638  0.93347992  1
  O  O452  1  0.52301787  0.75063646  0.18446850  1
  O  O453  1  0.52196047  0.74888077  0.43346799  1
  O  O454  1  0.52214289  0.75112937  0.68334826  1
  O  O455  1  0.52168515  0.74816243  0.93319731  1
  O  O456  1  0.47635085  0.25008966  0.06558906  1
  O  O457  1  0.47755964  0.25192217  0.31713181  1
  O  O458  1  0.47789089  0.24938402  0.56689605  1
  O  O459  1  0.47821181  0.24934499  0.81814662  1
  O  O460  1  0.47757714  0.58464942  0.06701885  1
  O  O461  1  0.47803085  0.58490356  0.31670541  1
  O  O462  1  0.47657948  0.58287414  0.56580230  1
  O  O463  1  0.47782860  0.58157216  0.81701425  1
  O  O464  1  0.47756753  0.91764441  0.06690907  1
  O  O465  1  0.47789517  0.91492167  0.31732435  1
  O  O466  1  0.47806504  0.91814968  0.56716772  1
  O  O467  1  0.47717974  0.91577676  0.81557262  1
  O  O468  1  0.97819470  0.24891849  0.06619513  1
  O  O469  1  0.97788013  0.25223955  0.31660151  1
  O  O470  1  0.97809741  0.24838527  0.56759484  1
  O  O471  1  0.97741936  0.24971219  0.81594109  1
  O  O472  1  0.97701379  0.58297227  0.06534822  1
  O  O473  1  0.97751162  0.58404819  0.31519971  1
  O  O474  1  0.97817224  0.58297256  0.56837253  1
  O  O475  1  0.97807391  0.58230586  0.81693736  1
  O  O476  1  0.97834203  0.91818169  0.06617633  1
  O  O477  1  0.97868420  0.91671064  0.31766190  1
  O  O478  1  0.97846962  0.91727704  0.56828161  1
  O  O479  1  0.97731968  0.91625173  0.81588998  1
  O  O480  1  0.07342287  0.31309618  0.07377913  1
  O  O481  1  0.07321295  0.31464524  0.32439899  1
  O  O482  1  0.07335624  0.31229111  0.57519274  1
  O  O483  1  0.07192714  0.31373113  0.82342459  1
  O  O484  1  0.07198545  0.64658456  0.07329755  1
  O  O485  1  0.07312811  0.64692108  0.32260650  1
  O  O486  1  0.07350320  0.64637107  0.57561762  1
  O  O487  1  0.07372427  0.64559567  0.82524474  1
  O  O488  1  0.07349569  0.98141590  0.07335498  1
  O  O489  1  0.07351046  0.98124775  0.32500491  1
  O  O490  1  0.07392706  0.98039923  0.57613007  1
  O  O491  1  0.07192816  0.98067459  0.82307916  1
  O  O492  1  0.57172279  0.31342541  0.07321695  1
  O  O493  1  0.57258358  0.31519643  0.32412258  1
  O  O494  1  0.57361588  0.31249337  0.57517530  1
  O  O495  1  0.57360342  0.31260634  0.82573663  1
  O  O496  1  0.57245482  0.64838088  0.07404578  1
  O  O497  1  0.57318550  0.64827123  0.32418443  1
  O  O498  1  0.57076524  0.64761708  0.57390687  1
  O  O499  1  0.57337775  0.64504016  0.82479262  1
  O  O500  1  0.57270328  0.98087154  0.07420519  1
  O  O501  1  0.57308546  0.97932669  0.32471452  1
  O  O502  1  0.57333108  0.98101068  0.57465935  1
  O  O503  1  0.57215848  0.97974276  0.82365193  1
  O  O504  1  0.42550130  0.01994881  0.17527392  1
  O  O505  1  0.42804702  0.01931397  0.42652906  1
  O  O506  1  0.42721686  0.01831574  0.67611418  1
  O  O507  1  0.42707203  0.01862373  0.92640820  1
  O  O508  1  0.42668240  0.35202238  0.17627551  1
  O  O509  1  0.42643377  0.35491602  0.42579422  1
  O  O510  1  0.42699855  0.35424111  0.67438955  1
  O  O511  1  0.42664291  0.35160478  0.92541471  1
  O  O512  1  0.42816600  0.68643963  0.17709695  1
  O  O513  1  0.42690603  0.68557382  0.42625222  1
  O  O514  1  0.42672834  0.68745061  0.67511404  1
  O  O515  1  0.42688739  0.68455767  0.92564860  1
  O  O516  1  0.92631195  0.02031295  0.17385681  1
  O  O517  1  0.92690623  0.02173545  0.42579626  1
  O  O518  1  0.92863060  0.02017327  0.67728743  1
  O  O519  1  0.92837178  0.02009229  0.92571025  1
  O  O520  1  0.92807696  0.35303960  0.17554450  1
  O  O521  1  0.92568155  0.35369193  0.42474495  1
  O  O522  1  0.92851639  0.35270232  0.67751493  1
  O  O523  1  0.92696614  0.35436111  0.92536480  1
  O  O524  1  0.92733202  0.68517761  0.17500899  1
  O  O525  1  0.92653010  0.68619796  0.42458518  1
  O  O526  1  0.92680584  0.68777337  0.67559135  1
  O  O527  1  0.92687149  0.68544369  0.92523734  1
  O  O528  1  0.17605755  0.01992482  0.20093578  1
  O  O529  1  0.17757939  0.01894294  0.44847131  1
  O  O530  1  0.17724194  0.01829518  0.69920564  1
  O  O531  1  0.17718465  0.02024363  0.94935482  1
  O  O532  1  0.17614154  0.35290284  0.19976627  1
  O  O533  1  0.17663711  0.35233786  0.44984898  1
  O  O534  1  0.17760269  0.35330661  0.70022156  1
  O  O535  1  0.17628947  0.35462154  0.94878855  1
  O  O536  1  0.17831507  0.68662838  0.19853741  1
  O  O537  1  0.17662061  0.68792507  0.45022829  1
  O  O538  1  0.17832190  0.68557018  0.69775476  1
  O  O539  1  0.17598263  0.68660776  0.95026595  1
  O  O540  1  0.67589884  0.02121161  0.19913668  1
  O  O541  1  0.67652091  0.02034641  0.45029597  1
  O  O542  1  0.67715921  0.02155845  0.69976146  1
  O  O543  1  0.67743311  0.01880285  0.94960336  1
  O  O544  1  0.67739634  0.35296700  0.19779192  1
  O  O545  1  0.67583888  0.35352723  0.44975259  1
  O  O546  1  0.67566653  0.35320707  0.70055644  1
  O  O547  1  0.67716222  0.35162140  0.95021458  1
  O  O548  1  0.67845257  0.68653165  0.19739878  1
  O  O549  1  0.67589136  0.68682026  0.44938200  1
  O  O550  1  0.67617973  0.68579284  0.69885676  1
  O  O551  1  0.67615909  0.68636086  0.95108832  1
  O  O552  1  0.32321446  0.31335075  0.04906208  1
  O  O553  1  0.32234900  0.31370322  0.30234467  1
  O  O554  1  0.32431386  0.31265212  0.54971257  1
  O  O555  1  0.32403304  0.31144952  0.79998186  1
  O  O556  1  0.32284021  0.64791807  0.05114779  1
  O  O557  1  0.32361015  0.64758139  0.30046642  1
  O  O558  1  0.32134643  0.64708804  0.55199027  1
  O  O559  1  0.32289974  0.64558393  0.79945050  1
  O  O560  1  0.32286735  0.97939257  0.05114893  1
  O  O561  1  0.32281925  0.97952223  0.30179290  1
  O  O562  1  0.32255169  0.97989268  0.55123614  1
  O  O563  1  0.32421754  0.97855406  0.79949882  1
  O  O564  1  0.82259528  0.31340653  0.05185009  1
  O  O565  1  0.82335288  0.31397412  0.29894506  1
  O  O566  1  0.82338496  0.31307962  0.55107467  1
  O  O567  1  0.82306564  0.31516770  0.80136292  1
  O  O568  1  0.82145737  0.64685784  0.05177907  1
  O  O569  1  0.82327434  0.64674361  0.29827022  1
  O  O570  1  0.82313056  0.64842316  0.55098480  1
  O  O571  1  0.82375068  0.64706886  0.80074215  1
  O  O572  1  0.82339129  0.97945773  0.04999817  1
  O  O573  1  0.82393034  0.98047247  0.29864835  1
  O  O574  1  0.82498355  0.98034185  0.55005064  1
  O  O575  1  0.82285078  0.98205180  0.80131682  1
  O  O576  1  0.42550402  0.14660903  0.17483575  1
  O  O577  1  0.42870800  0.14705225  0.42721197  1
  O  O578  1  0.42723281  0.14517421  0.67540273  1
  O  O579  1  0.42848452  0.14605228  0.92626699  1
  O  O580  1  0.42664339  0.47916726  0.17451657  1
  O  O581  1  0.42645579  0.48197852  0.42524230  1
  O  O582  1  0.42691962  0.48143164  0.67618616  1
  O  O583  1  0.42626502  0.47862269  0.92592231  1
  O  O584  1  0.42803294  0.81381918  0.17671095  1
  O  O585  1  0.42653801  0.81243495  0.42548153  1
  O  O586  1  0.42738270  0.81459919  0.67564951  1
  O  O587  1  0.42616926  0.81167299  0.92543510  1
  O  O588  1  0.92597827  0.14700139  0.17335471  1
  O  O589  1  0.92695771  0.14900211  0.42637129  1
  O  O590  1  0.92786279  0.14738448  0.67735559  1
  O  O591  1  0.92796752  0.14746742  0.92585365  1
  O  O592  1  0.92870889  0.48052184  0.17656335  1
  O  O593  1  0.92639047  0.48032792  0.42435199  1
  O  O594  1  0.92772982  0.48027906  0.67680320  1
  O  O595  1  0.92669871  0.48123890  0.92636024  1
  O  O596  1  0.92779008  0.81237056  0.17378215  1
  O  O597  1  0.92656490  0.81308165  0.42346049  1
  O  O598  1  0.92690826  0.81492923  0.67618247  1
  O  O599  1  0.92659869  0.81256573  0.92541419  1
  O  O600  1  0.07345638  0.18608935  0.07396369  1
  O  O601  1  0.07285476  0.18759314  0.32444880  1
  O  O602  1  0.07331376  0.18532089  0.57406205  1
  O  O603  1  0.07287038  0.18639249  0.82368377  1
  O  O604  1  0.07204801  0.51932196  0.07378036  1
  O  O605  1  0.07190261  0.51953971  0.32226288  1
  O  O606  1  0.07363337  0.51945714  0.57495465  1
  O  O607  1  0.07290121  0.51867356  0.82452179  1
  O  O608  1  0.07352720  0.85418131  0.07400649  1
  O  O609  1  0.07451399  0.85416160  0.32476862  1
  O  O610  1  0.07380324  0.85366678  0.57542620  1
  O  O611  1  0.07261300  0.85315801  0.82427750  1
  O  O612  1  0.57079551  0.18605918  0.07356551  1
  O  O613  1  0.57293064  0.18799667  0.32423687  1
  O  O614  1  0.57238276  0.18521817  0.57371577  1
  O  O615  1  0.57355772  0.18585053  0.82621385  1
  O  O616  1  0.57289815  0.52118744  0.07591597  1
  O  O617  1  0.57344816  0.52142993  0.32454300  1
  O  O618  1  0.57226176  0.52022464  0.57326361  1
  O  O619  1  0.57265823  0.51795715  0.82462817  1
  O  O620  1  0.57290393  0.85390182  0.07424570  1
  O  O621  1  0.57317964  0.85221319  0.32435431  1
  O  O622  1  0.57326947  0.85416798  0.57530688  1
  O  O623  1  0.57204967  0.85231942  0.82406964  1
  O  O624  1  0.32349611  0.18647633  0.05013380  1
  O  O625  1  0.32229934  0.18611451  0.30238345  1
  O  O626  1  0.32421113  0.18593395  0.54874779  1
  O  O627  1  0.32312950  0.18406767  0.80089015  1
  O  O628  1  0.32318565  0.52083717  0.05078183  1
  O  O629  1  0.32381592  0.52075257  0.29934768  1
  O  O630  1  0.32205176  0.51955217  0.55132748  1
  O  O631  1  0.32293152  0.51858820  0.80082872  1
  O  O632  1  0.32361023  0.85220680  0.05168372  1
  O  O633  1  0.32245249  0.85229669  0.30237327  1
  O  O634  1  0.32258747  0.85267372  0.55114349  1
  O  O635  1  0.32298929  0.85185845  0.79915829  1
  O  O636  1  0.82196056  0.18592739  0.05053451  1
  O  O637  1  0.82373006  0.18723688  0.29887873  1
  O  O638  1  0.82344342  0.18588022  0.55202201  1
  O  O639  1  0.82381897  0.18814626  0.80142794  1
  O  O640  1  0.82263971  0.51928095  0.05168916  1
  O  O641  1  0.82328055  0.51994276  0.29878736  1
  O  O642  1  0.82317769  0.52116582  0.55075297  1
  O  O643  1  0.82393030  0.52027457  0.79999099  1
  O  O644  1  0.82335772  0.85241506  0.04978742  1
  O  O645  1  0.82415109  0.85342594  0.29930728  1
  O  O646  1  0.82454141  0.85338960  0.55003096  1
  O  O647  1  0.82273184  0.85469126  0.80051255  1
  O  O648  1  0.17643285  0.14665759  0.20139878  1
  O  O649  1  0.17903628  0.14630551  0.44881468  1
  O  O650  1  0.17759450  0.14534270  0.69882393  1
  O  O651  1  0.17713498  0.14750126  0.94839330  1
  O  O652  1  0.17603321  0.47976981  0.20084582  1
  O  O653  1  0.17680933  0.47949934  0.44964546  1
  O  O654  1  0.17713251  0.48047001  0.69867580  1
  O  O655  1  0.17720491  0.48186370  0.94867930  1
  O  O656  1  0.17743786  0.81404362  0.19857609  1
  O  O657  1  0.17667163  0.81488986  0.44969889  1
  O  O658  1  0.17726422  0.81309085  0.69837361  1
  O  O659  1  0.17620826  0.81321489  0.95023330  1
  O  O660  1  0.67601007  0.14839949  0.19820737  1
  O  O661  1  0.67612022  0.14719252  0.44980289  1
  O  O662  1  0.67732895  0.14872457  0.70007829  1
  O  O663  1  0.67673081  0.14594305  0.94998782  1
  O  O664  1  0.67712103  0.48030820  0.19780489  1
  O  O665  1  0.67597825  0.48059355  0.44961204  1
  O  O666  1  0.67559884  0.48002106  0.70097777  1
  O  O667  1  0.67689479  0.47867492  0.95104706  1
  O  O668  1  0.67763064  0.81412869  0.19772938  1
  O  O669  1  0.67622076  0.81365915  0.45010898  1
  O  O670  1  0.67684268  0.81318145  0.69951041  1
  O  O671  1  0.67534755  0.81310500  0.95029247  1
