# generated using pymatgen
data_Na2MnFe(PO4)2
_symmetry_space_group_name_H-M   'P 1'
_cell_length_a   22.34116990
_cell_length_b   20.09519971
_cell_length_c   19.45142691
_cell_angle_alpha   89.93330041
_cell_angle_beta   89.97088423
_cell_angle_gamma   89.98592402
_symmetry_Int_Tables_number   1
_chemical_formula_structural   Na2MnFe(PO4)2
_chemical_formula_sum   'Na96 Mn48 Fe48 P96 O384'
_cell_volume   8732.71607373
_cell_formula_units_Z   48
loop_
 _symmetry_equiv_pos_site_id
 _symmetry_equiv_pos_as_xyz
  1  'x, y, z'
loop_
 _atom_site_type_symbol
 _atom_site_label
 _atom_site_symmetry_multiplicity
 _atom_site_fract_x
 _atom_site_fract_y
 _atom_site_fract_z
 _atom_site_occupancy
  Na  Na0  1  0.14060324  0.25127486  0.24341377  1
  Na  Na1  1  0.14085068  0.24924773  0.49374881  1
  Na  Na2  1  0.14039689  0.24887142  0.74353784  1
  Na  Na3  1  0.14055335  0.25038783  0.99334444  1
  Na  Na4  1  0.14122102  0.58439305  0.24419731  1
  Na  Na5  1  0.14087172  0.58456586  0.49336697  1
  Na  Na6  1  0.14001515  0.58420245  0.74490528  1
  Na  Na7  1  0.13965246  0.58372957  0.99430015  1
  Na  Na8  1  0.14048213  0.91533457  0.24436496  1
  Na  Na9  1  0.14127431  0.91547103  0.49407718  1
  Na  Na10  1  0.14119895  0.91759398  0.74370858  1
  Na  Na11  1  0.14068776  0.91610121  0.99482831  1
  Na  Na12  1  0.64033942  0.25043722  0.24462536  1
  Na  Na13  1  0.64007209  0.25061232  0.49350894  1
  Na  Na14  1  0.64057466  0.25123757  0.74238457  1
  Na  Na15  1  0.64003545  0.25055602  0.99278978  1
  Na  Na16  1  0.64056870  0.58406833  0.24462625  1
  Na  Na17  1  0.63992512  0.58479791  0.49339802  1
  Na  Na18  1  0.64001580  0.58464097  0.74220929  1
  Na  Na19  1  0.64018859  0.58299865  0.99317382  1
  Na  Na20  1  0.64002167  0.91560560  0.24379804  1
  Na  Na21  1  0.64064167  0.91625236  0.49389345  1
  Na  Na22  1  0.64056225  0.91671441  0.74099075  1
  Na  Na23  1  0.64026775  0.91473220  0.99320729  1
  Na  Na24  1  0.35982229  0.08170407  0.00563436  1
  Na  Na25  1  0.35974126  0.08213929  0.25691832  1
  Na  Na26  1  0.35939103  0.08226593  0.50692968  1
  Na  Na27  1  0.36000631  0.08283599  0.75512404  1
  Na  Na28  1  0.35986510  0.41739241  0.00609362  1
  Na  Na29  1  0.35962213  0.41821679  0.25654326  1
  Na  Na30  1  0.35992405  0.41657224  0.50721893  1
  Na  Na31  1  0.36043588  0.41645634  0.75655510  1
  Na  Na32  1  0.35982430  0.74890512  0.00683515  1
  Na  Na33  1  0.35906851  0.75010758  0.25697701  1
  Na  Na34  1  0.36044305  0.75078258  0.50710591  1
  Na  Na35  1  0.36053233  0.75053839  0.75657151  1
  Na  Na36  1  0.85916062  0.08197092  0.00580272  1
  Na  Na37  1  0.85891255  0.08228412  0.25606786  1
  Na  Na38  1  0.85912877  0.08332872  0.50672412  1
  Na  Na39  1  0.85961167  0.08420885  0.75590959  1
  Na  Na40  1  0.85975297  0.41703276  0.00717637  1
  Na  Na41  1  0.85938517  0.41676916  0.25605645  1
  Na  Na42  1  0.85899735  0.41764974  0.50610241  1
  Na  Na43  1  0.85898151  0.41822133  0.75684502  1
  Na  Na44  1  0.85880409  0.74812899  0.00664124  1
  Na  Na45  1  0.85926205  0.74922409  0.25621872  1
  Na  Na46  1  0.85941527  0.74946689  0.50650893  1
  Na  Na47  1  0.85963599  0.74935211  0.75533585  1
  Na  Na48  1  0.10921645  0.08383469  0.11889854  1
  Na  Na49  1  0.10987759  0.08260046  0.36888215  1
  Na  Na50  1  0.11045173  0.08367120  0.61880642  1
  Na  Na51  1  0.10964239  0.08227506  0.86882312  1
  Na  Na52  1  0.10952695  0.41803301  0.11838634  1
  Na  Na53  1  0.10976094  0.41732810  0.36879480  1
  Na  Na54  1  0.10944813  0.41730210  0.61935434  1
  Na  Na55  1  0.10958157  0.41722910  0.86967838  1
  Na  Na56  1  0.11001505  0.75055611  0.11889750  1
  Na  Na57  1  0.11059945  0.74959925  0.36858176  1
  Na  Na58  1  0.11027869  0.74995623  0.61874437  1
  Na  Na59  1  0.10958773  0.74953222  0.87047694  1
  Na  Na60  1  0.60913701  0.08355826  0.11920913  1
  Na  Na61  1  0.61000490  0.08431510  0.36938550  1
  Na  Na62  1  0.61005212  0.08341805  0.61697308  1
  Na  Na63  1  0.60944188  0.08309294  0.86697019  1
  Na  Na64  1  0.60985748  0.41792874  0.11834582  1
  Na  Na65  1  0.60973781  0.41771201  0.36996407  1
  Na  Na66  1  0.60932772  0.41756472  0.61809813  1
  Na  Na67  1  0.60954578  0.41700433  0.86782938  1
  Na  Na68  1  0.61027761  0.74993941  0.11806477  1
  Na  Na69  1  0.61050730  0.75080435  0.36889181  1
  Na  Na70  1  0.60978885  0.74909673  0.61763137  1
  Na  Na71  1  0.60925529  0.74883944  0.86714593  1
  Na  Na72  1  0.39076032  0.25006174  0.13058855  1
  Na  Na73  1  0.39087889  0.25069708  0.38216040  1
  Na  Na74  1  0.39065783  0.24975938  0.63107194  1
  Na  Na75  1  0.39076492  0.25003302  0.88005882  1
  Na  Na76  1  0.38951635  0.58397137  0.13157919  1
  Na  Na77  1  0.39022884  0.58382347  0.38343434  1
  Na  Na78  1  0.39100433  0.58321576  0.63154533  1
  Na  Na79  1  0.39051836  0.58204823  0.88140198  1
  Na  Na80  1  0.39034119  0.91641248  0.13209309  1
  Na  Na81  1  0.39015868  0.91721618  0.38281825  1
  Na  Na82  1  0.39037695  0.91547999  0.63230365  1
  Na  Na83  1  0.39051127  0.91602546  0.88025137  1
  Na  Na84  1  0.89028591  0.25048498  0.13011129  1
  Na  Na85  1  0.89026754  0.25012799  0.38073098  1
  Na  Na86  1  0.88997823  0.24982431  0.63127552  1
  Na  Na87  1  0.89048132  0.24990032  0.88126020  1
  Na  Na88  1  0.88938950  0.58325534  0.13194725  1
  Na  Na89  1  0.88954297  0.58324261  0.38169522  1
  Na  Na90  1  0.88966761  0.58379648  0.63091243  1
  Na  Na91  1  0.88999031  0.58316613  0.88206409  1
  Na  Na92  1  0.88989504  0.91640744  0.13065442  1
  Na  Na93  1  0.88977024  0.91469732  0.38136764  1
  Na  Na94  1  0.89007233  0.91633999  0.63181107  1
  Na  Na95  1  0.89022723  0.91574046  0.88025210  1
  Mn  Mn96  1  0.00075331  0.83188609  0.75096329  1
  Mn  Mn97  1  0.74998380  0.33383625  0.12531301  1
  Mn  Mn98  1  0.50049289  0.16687804  0.25018418  1
  Mn  Mn99  1  0.24941582  0.33286616  0.62534569  1
  Mn  Mn100  1  -0.00018202  0.50098706  0.75009463  1
  Mn  Mn101  1  0.00039453  0.83193800  0.50092836  1
  Mn  Mn102  1  -0.00047261  0.50097664  0.49989404  1
  Mn  Mn103  1  0.25051508  0.33391362  0.87450106  1
  Mn  Mn104  1  0.24945217  -0.00143764  0.12601549  1
  Mn  Mn105  1  0.25113202  0.66758245  0.62482191  1
  Mn  Mn106  1  0.50032727  -0.00020343  0.50026975  1
  Mn  Mn107  1  0.25010117  0.50029289  0.62489946  1
  Mn  Mn108  1  0.50007160  0.33408606  0.25057550  1
  Mn  Mn109  1  -0.00000557  0.33363848  0.50036564  1
  Mn  Mn110  1  0.74998670  0.33371472  0.37537560  1
  Mn  Mn111  1  0.25055284  0.16558842  0.37473285  1
  Mn  Mn112  1  0.74986208  0.50064963  0.87511344  1
  Mn  Mn113  1  0.74859111  -0.00201894  0.12561018  1
  Mn  Mn114  1  0.00015277  0.16699063  0.49938725  1
  Mn  Mn115  1  0.50032457  0.83235307  -0.00016566  1
  Mn  Mn116  1  0.49945891  0.83413381  0.25002958  1
  Mn  Mn117  1  -0.00067510  0.16766429  0.24877842  1
  Mn  Mn118  1  0.50090737  0.16663626  0.74949151  1
  Mn  Mn119  1  0.75003353  0.33459907  0.62423872  1
  Mn  Mn120  1  0.24982969  0.83384140  0.87582220  1
  Mn  Mn121  1  -0.00001629  0.49977035  0.25006900  1
  Mn  Mn122  1  0.00012510  0.66720735  0.24995808  1
  Mn  Mn123  1  0.00057409  0.00014231  0.75018764  1
  Mn  Mn124  1  0.74976953  -0.00065950  0.87412499  1
  Mn  Mn125  1  0.25031964  0.16557032  0.87437105  1
  Mn  Mn126  1  0.50002419  0.66734001  0.25092317  1
  Mn  Mn127  1  0.74995861  0.83188339  0.87337472  1
  Mn  Mn128  1  0.50043567  -0.00051254  -0.00081602  1
  Mn  Mn129  1  -0.00017980  0.16656076  0.00034811  1
  Mn  Mn130  1  0.49968871  0.50011028  -0.00078013  1
  Mn  Mn131  1  -0.00042086  0.83355227  -0.00034764  1
  Mn  Mn132  1  0.25060353  0.33463125  0.12443182  1
  Mn  Mn133  1  0.74909371  0.16727463  0.87490206  1
  Mn  Mn134  1  0.24986020  0.66628426  0.87596400  1
  Mn  Mn135  1  0.74943659  0.16614579  0.12442280  1
  Mn  Mn136  1  0.25058672  0.33402308  0.37456306  1
  Mn  Mn137  1  0.49982130  0.50077887  0.25034622  1
  Mn  Mn138  1  -0.00052682  0.33292651  0.75015346  1
  Mn  Mn139  1  0.49953123  0.16739143  -0.00102863  1
  Mn  Mn140  1  0.25002624  0.16601955  0.12497904  1
  Mn  Mn141  1  -0.00025687  -0.00042352  0.49987706  1
  Mn  Mn142  1  0.74970552  -0.00057460  0.37521571  1
  Mn  Mn143  1  -0.00078294  -0.00056264  0.24968912  1
  Fe  Fe144  1  0.50007211  0.00057678  0.25080502  1
  Fe  Fe145  1  0.25025250  0.50066994  0.37530333  1
  Fe  Fe146  1  0.00004387  0.66623473  0.75052982  1
  Fe  Fe147  1  0.75011102  0.66689515  0.37474784  1
  Fe  Fe148  1  0.50037857  0.33329334  0.74936711  1
  Fe  Fe149  1  0.75007074  0.00055450  0.62381404  1
  Fe  Fe150  1  0.75009090  0.83169621  0.12454368  1
  Fe  Fe151  1  0.24958446  -0.00114151  0.37607484  1
  Fe  Fe152  1  0.75027753  0.83314584  0.62412757  1
  Fe  Fe153  1  0.00043914  0.33336164  -0.00026739  1
  Fe  Fe154  1  0.49992526  0.49966575  0.74963988  1
  Fe  Fe155  1  0.25036549  -0.00047102  0.62489452  1
  Fe  Fe156  1  0.49968660  0.66608096  -0.00114740  1
  Fe  Fe157  1  0.49997851  0.50012151  0.50110832  1
  Fe  Fe158  1  0.74959719  0.50095580  0.37524985  1
  Fe  Fe159  1  0.25015382  0.83352978  0.62512549  1
  Fe  Fe160  1  0.50002752  0.33373897  -0.00048948  1
  Fe  Fe161  1  0.24976135  0.50103985  0.12588823  1
  Fe  Fe162  1  0.49993434  0.16673816  0.50028332  1
  Fe  Fe163  1  0.74998579  0.66718770  0.62396213  1
  Fe  Fe164  1  0.75008771  0.33410353  0.87451979  1
  Fe  Fe165  1  0.74944341  0.66603823  0.12543336  1
  Fe  Fe166  1  0.50058018  0.83342026  0.50084482  1
  Fe  Fe167  1  0.50027181  -0.00078068  0.74893736  1
  Fe  Fe168  1  0.50001737  0.33377901  0.50059030  1
  Fe  Fe169  1  0.50043079  0.83220447  0.74983331  1
  Fe  Fe170  1  0.25002714  0.50050604  0.87547305  1
  Fe  Fe171  1  0.74940205  0.66640815  0.87465774  1
  Fe  Fe172  1  0.74983940  0.16650198  0.37513609  1
  Fe  Fe173  1  0.74942939  0.50046500  0.12573895  1
  Fe  Fe174  1  0.24990904  0.66652983  0.12591828  1
  Fe  Fe175  1  -0.00023786  0.33391934  0.24953593  1
  Fe  Fe176  1  0.00037757  0.16628033  0.75058950  1
  Fe  Fe177  1  0.25051700  0.16578926  0.62450665  1
  Fe  Fe178  1  0.74954324  0.50147427  0.62532871  1
  Fe  Fe179  1  -0.00012913  -0.00001086  -0.00008142  1
  Fe  Fe180  1  0.00037343  0.66656163  0.49987013  1
  Fe  Fe181  1  0.25078787  0.83285456  0.12583457  1
  Fe  Fe182  1  0.25048576  0.83312735  0.37548473  1
  Fe  Fe183  1  -0.00036784  0.83331230  0.24966643  1
  Fe  Fe184  1  -0.00055546  0.50001574  0.00030900  1
  Fe  Fe185  1  -0.00105921  0.66684417  0.00046247  1
  Fe  Fe186  1  0.50022962  0.66703377  0.50093439  1
  Fe  Fe187  1  0.49978268  0.66608634  0.74915078  1
  Fe  Fe188  1  0.25036188  -0.00016611  0.87461266  1
  Fe  Fe189  1  0.25081066  0.66731051  0.37488621  1
  Fe  Fe190  1  0.75022310  0.16761123  0.62496971  1
  Fe  Fe191  1  0.75020336  0.83270444  0.37494499  1
  P  P192  1  0.04259790  0.25189976  0.10245111  1
  P  P193  1  0.04241129  0.25147476  0.35177818  1
  P  P194  1  0.04306845  0.24967161  0.60369903  1
  P  P195  1  0.04234810  0.24888939  0.85296943  1
  P  P196  1  0.04050240  0.58371196  0.10163902  1
  P  P197  1  0.04284759  0.58375666  0.35326509  1
  P  P198  1  0.04258713  0.58508831  0.60281792  1
  P  P199  1  0.04168898  0.58457021  0.85390989  1
  P  P200  1  0.04195343  0.91769294  0.10267103  1
  P  P201  1  0.04198538  0.91477339  0.35249464  1
  P  P202  1  0.04298986  0.91639514  0.60338642  1
  P  P203  1  0.04308994  0.91639968  0.85373647  1
  P  P204  1  0.54247289  0.25148442  0.10195218  1
  P  P205  1  0.54266377  0.25058102  0.35446766  1
  P  P206  1  0.54141343  0.25056037  0.60180963  1
  P  P207  1  0.54273080  0.25166611  0.85201840  1
  P  P208  1  0.54193854  0.58480861  0.10178464  1
  P  P209  1  0.54244179  0.58373750  0.35467983  1
  P  P210  1  0.54096814  0.58343434  0.60242556  1
  P  P211  1  0.54112759  0.58323826  0.85089502  1
  P  P212  1  0.54284247  0.91667677  0.10322418  1
  P  P213  1  0.54204663  0.91794970  0.35314758  1
  P  P214  1  0.54215487  0.91504127  0.60345399  1
  P  P215  1  0.54180126  0.91598975  0.85056600  1
  P  P216  1  0.45769143  0.08237085  0.14772019  1
  P  P217  1  0.45797539  0.08448663  0.39789275  1
  P  P218  1  0.45870739  0.08230383  0.64686006  1
  P  P219  1  0.45766219  0.08279578  0.89553852  1
  P  P220  1  0.45725123  0.41721113  0.14662431  1
  P  P221  1  0.45858237  0.41724034  0.39941791  1
  P  P222  1  0.45898334  0.41648427  0.64765106  1
  P  P223  1  0.45800220  0.41521722  0.89636609  1
  P  P224  1  0.45706096  0.74979729  0.14682582  1
  P  P225  1  0.45930244  0.75070319  0.39943143  1
  P  P226  1  0.45904005  0.74947235  0.64763311  1
  P  P227  1  0.45781092  0.74832982  0.89639133  1
  P  P228  1  0.95643980  0.08318873  0.14607198  1
  P  P229  1  0.95664590  0.08315150  0.39652438  1
  P  P230  1  0.95790055  0.08464331  0.64770591  1
  P  P231  1  0.95749288  0.08215231  0.89728917  1
  P  P232  1  0.95774714  0.41576167  0.14653272  1
  P  P233  1  0.95684599  0.41678130  0.39664845  1
  P  P234  1  0.95659681  0.41721410  0.64728043  1
  P  P235  1  0.95839076  0.41667725  0.89863723  1
  P  P236  1  0.95759263  0.75119699  0.14709851  1
  P  P237  1  0.95779002  0.74871253  0.39744355  1
  P  P238  1  0.95820446  0.74790063  0.64759898  1
  P  P239  1  0.95716793  0.74820469  0.89748517  1
  P  P240  1  0.20687976  0.08237684  0.22892315  1
  P  P241  1  0.20816872  0.08137985  0.47840736  1
  P  P242  1  0.20906374  0.08255240  0.72650080  1
  P  P243  1  0.20784257  0.08131048  0.97731288  1
  P  P244  1  0.20790683  0.41884284  0.22790518  1
  P  P245  1  0.20784676  0.41787693  0.47733060  1
  P  P246  1  0.20720492  0.41732954  0.72872511  1
  P  P247  1  0.20810948  0.41856929  0.97790391  1
  P  P248  1  0.20901308  0.74999857  0.22773992  1
  P  P249  1  0.20947205  0.75036530  0.47693029  1
  P  P250  1  0.20819932  0.75146818  0.72759531  1
  P  P251  1  0.20749016  0.74974898  0.97970212  1
  P  P252  1  0.70687742  0.08289937  0.22871611  1
  P  P253  1  0.70814899  0.08461218  0.47825350  1
  P  P254  1  0.70856689  0.08387496  0.72566079  1
  P  P255  1  0.70640574  0.08234967  0.97753393  1
  P  P256  1  0.70743126  0.41850502  0.22817152  1
  P  P257  1  0.70795299  0.41902554  0.47797135  1
  P  P258  1  0.70768116  0.41860736  0.72737320  1
  P  P259  1  0.70768728  0.41605528  0.97742890  1
  P  P260  1  0.70856429  0.74939970  0.22711490  1
  P  P261  1  0.70910691  0.75002117  0.47696616  1
  P  P262  1  0.70846653  0.74993964  0.72556409  1
  P  P263  1  0.70739225  0.74803281  0.97726645  1
  P  P264  1  0.29302448  0.24987576  0.02156393  1
  P  P265  1  0.29339477  0.25016842  0.27176396  1
  P  P266  1  0.29228682  0.24861689  0.52256425  1
  P  P267  1  0.29284026  0.24922799  0.77100755  1
  P  P268  1  0.29105004  0.58313620  0.02371277  1
  P  P269  1  0.29177333  0.58379499  0.27347639  1
  P  P270  1  0.29321576  0.58376242  0.52118176  1
  P  P271  1  0.29253443  0.58267396  0.77292435  1
  P  P272  1  0.29276094  0.91515284  0.02303696  1
  P  P273  1  0.29171296  0.91597866  0.27407298  1
  P  P274  1  0.29178339  0.91635727  0.52323781  1
  P  P275  1  0.29224700  0.91783983  0.77184317  1
  P  P276  1  0.79229055  0.25052936  0.02122419  1
  P  P277  1  0.79196165  0.24888660  0.27273699  1
  P  P278  1  0.79202461  0.24917245  0.52203523  1
  P  P279  1  0.79184484  0.25161064  0.77213906  1
  P  P280  1  0.79077791  0.58303207  0.02370112  1
  P  P281  1  0.79130891  0.58351458  0.27300846  1
  P  P282  1  0.79079371  0.58368844  0.52250593  1
  P  P283  1  0.79171683  0.58513128  0.77187302  1
  P  P284  1  0.79181806  0.91425055  0.02226877  1
  P  P285  1  0.79177530  0.91431240  0.27229122  1
  P  P286  1  0.79154287  0.91630894  0.52285032  1
  P  P287  1  0.79246605  0.91635958  0.77000306  1
  O  O288  1  0.03714855  0.25203439  0.18235407  1
  O  O289  1  0.03726286  0.25101811  0.43178211  1
  O  O290  1  0.03790955  0.24887217  0.68367755  1
  O  O291  1  0.03688730  0.24953240  0.93289048  1
  O  O292  1  0.03600421  0.58323236  0.18161089  1
  O  O293  1  0.03798072  0.58413974  0.43322035  1
  O  O294  1  0.03760854  0.58507682  0.68282429  1
  O  O295  1  0.03585634  0.58434622  0.93372590  1
  O  O296  1  0.03628110  0.91684987  0.18257671  1
  O  O297  1  0.03706919  0.91479726  0.43248614  1
  O  O298  1  0.03821004  0.91623299  0.68334406  1
  O  O299  1  0.03760828  0.91710358  0.93363627  1
  O  O300  1  0.53740090  0.25103324  0.18196714  1
  O  O301  1  0.53706122  0.25037724  0.43435442  1
  O  O302  1  0.53659441  0.25060400  0.68179749  1
  O  O303  1  0.53728265  0.25160299  0.93193864  1
  O  O304  1  0.53713582  0.58457447  0.18175854  1
  O  O305  1  0.53734380  0.58362102  0.43456185  1
  O  O306  1  0.53616875  0.58358386  0.68229083  1
  O  O307  1  0.53612490  0.58333675  0.93083123  1
  O  O308  1  0.53754527  0.91720400  0.18316985  1
  O  O309  1  0.53699341  0.91706319  0.43309338  1
  O  O310  1  0.53674781  0.91527791  0.68329566  1
  O  O311  1  0.53726067  0.91570045  0.93058805  1
  O  O312  1  0.46271454  0.08258198  0.06772256  1
  O  O313  1  0.46302100  0.08390172  0.31793870  1
  O  O314  1  0.46403919  0.08302695  0.56693855  1
  O  O315  1  0.46338773  0.08232462  0.81561430  1
  O  O316  1  0.46221296  0.41693088  0.06664176  1
  O  O317  1  0.46321824  0.41766887  0.31942157  1
  O  O318  1  0.46395926  0.41675504  0.56775092  1
  O  O319  1  0.46332160  0.41538624  0.81649602  1
  O  O320  1  0.46182622  0.74944976  0.06687216  1
  O  O321  1  0.46370081  0.75072636  0.31944680  1
  O  O322  1  0.46421004  0.75024676  0.56776998  1
  O  O323  1  0.46311425  0.74836084  0.81650038  1
  O  O324  1  0.96179241  0.08273942  0.06612117  1
  O  O325  1  0.96143447  0.08314905  0.31652956  1
  O  O326  1  0.96278584  0.08438572  0.56769875  1
  O  O327  1  0.96309598  0.08306129  0.81735230  1
  O  O328  1  0.96330074  0.41599049  0.06666257  1
  O  O329  1  0.96195741  0.41647309  0.31666422  1
  O  O330  1  0.96162644  0.41740018  0.56734685  1
  O  O331  1  0.96297524  0.41722858  0.81864040  1
  O  O332  1  0.96260275  0.75067730  0.06717013  1
  O  O333  1  0.96273258  0.74974773  0.31749637  1
  O  O334  1  0.96344836  0.74781655  0.56765768  1
  O  O335  1  0.96275843  0.74779119  0.81758240  1
  O  O336  1  0.21270586  0.08162924  0.05728959  1
  O  O337  1  0.21203540  0.08199816  0.30887119  1
  O  O338  1  0.21404507  0.08188664  0.55826411  1
  O  O339  1  0.21399675  0.08226054  0.80645562  1
  O  O340  1  0.21339124  0.41868902  0.05784379  1
  O  O341  1  0.21327894  0.41874664  0.30781952  1
  O  O342  1  0.21271318  0.41722897  0.55731826  1
  O  O343  1  0.21251866  0.41781965  0.80866874  1
  O  O344  1  0.21274412  0.74960772  0.05956478  1
  O  O345  1  0.21416029  0.74976875  0.30760461  1
  O  O346  1  0.21400408  0.75071430  0.55688502  1
  O  O347  1  0.21296964  0.75106157  0.80754874  1
  O  O348  1  0.71133927  0.08210712  0.05751413  1
  O  O349  1  0.71243875  0.08333544  0.30866386  1
  O  O350  1  0.71380598  0.08467840  0.55810411  1
  O  O351  1  0.71286675  0.08331070  0.80568575  1
  O  O352  1  0.71241081  0.41638339  0.05735951  1
  O  O353  1  0.71292994  0.41851800  0.30808466  1
  O  O354  1  0.71341623  0.41915326  0.55787448  1
  O  O355  1  0.71306187  0.41776127  0.80729676  1
  O  O356  1  0.71252124  0.74834761  0.05711184  1
  O  O357  1  0.71360125  0.74918033  0.30697008  1
  O  O358  1  0.71419433  0.75021684  0.55679437  1
  O  O359  1  0.71275445  0.74918450  0.80549585  1
  O  O360  1  0.28828828  0.25026737  0.19179339  1
  O  O361  1  0.28740333  0.24893611  0.44259639  1
  O  O362  1  0.28741802  0.24870671  0.69107771  1
  O  O363  1  0.28780600  0.24989791  0.94157264  1
  O  O364  1  0.28662581  0.58409208  0.19358898  1
  O  O365  1  0.28822056  0.58368977  0.44128780  1
  O  O366  1  0.28775382  0.58321189  0.69296218  1
  O  O367  1  0.28629009  0.58302336  0.94374733  1
  O  O368  1  0.28674544  0.91536100  0.19415609  1
  O  O369  1  0.28647604  0.91629076  0.44339044  1
  O  O370  1  0.28672397  0.91748500  0.69199862  1
  O  O371  1  0.28768203  0.91603298  0.94313587  1
  O  O372  1  0.78664534  0.24936103  0.19280198  1
  O  O373  1  0.78666242  0.24883715  0.44213054  1
  O  O374  1  0.78675439  0.25129308  0.69216478  1
  O  O375  1  0.78700752  0.25135086  0.94127930  1
  O  O376  1  0.78600495  0.58330513  0.19317256  1
  O  O377  1  0.78587498  0.58382843  0.44263642  1
  O  O378  1  0.78652009  0.58475069  0.69204330  1
  O  O379  1  0.78634227  0.58358005  0.94376583  1
  O  O380  1  0.78636654  0.91390833  0.19239373  1
  O  O381  1  0.78666089  0.91632687  0.44290806  1
  O  O382  1  0.78729436  0.91667453  0.69011438  1
  O  O383  1  0.78672281  0.91464779  0.94228656  1
  O  O384  1  0.22864354  0.25021028  0.05680727  1
  O  O385  1  0.22894130  0.25004820  0.30676001  1
  O  O386  1  0.22794877  0.24833813  0.55797073  1
  O  O387  1  0.22860707  0.24962542  0.80659797  1
  O  O388  1  0.22690792  0.58276058  0.05977945  1
  O  O389  1  0.22774037  0.58340904  0.30983502  1
  O  O390  1  0.22888169  0.58419158  0.55663485  1
  O  O391  1  0.22810558  0.58207711  0.80826413  1
  O  O392  1  0.22841246  0.91409147  0.05876027  1
  O  O393  1  0.22748711  0.91622521  0.31004378  1
  O  O394  1  0.22774064  0.91645699  0.55972744  1
  O  O395  1  0.22816565  0.91821190  0.80827131  1
  O  O396  1  0.72796549  0.25052701  0.05662616  1
  O  O397  1  0.72775377  0.24893386  0.30858890  1
  O  O398  1  0.72782623  0.24940336  0.55799094  1
  O  O399  1  0.72752307  0.25201736  0.80771421  1
  O  O400  1  0.72651826  0.58237834  0.05938093  1
  O  O401  1  0.72729329  0.58379553  0.30953946  1
  O  O402  1  0.72673224  0.58338875  0.55882255  1
  O  O403  1  0.72748277  0.58481675  0.80790016  1
  O  O404  1  0.72750686  0.91344390  0.05792713  1
  O  O405  1  0.72760782  0.91462063  0.30833824  1
  O  O406  1  0.72740161  0.91564806  0.55881314  1
  O  O407  1  0.72815353  0.91597450  0.80560683  1
  O  O408  1  0.27131879  0.08227267  0.19379742  1
  O  O409  1  0.27221756  0.08079021  0.44196206  1
  O  O410  1  0.27318178  0.08224050  0.69040438  1
  O  O411  1  0.27226466  0.08121234  0.94196845  1
  O  O412  1  0.27219367  0.41931820  0.19214147  1
  O  O413  1  0.27228789  0.41838936  0.44205267  1
  O  O414  1  0.27157554  0.41673323  0.69344323  1
  O  O415  1  0.27234616  0.41871220  0.94197993  1
  O  O416  1  0.27301679  0.75029355  0.19130831  1
  O  O417  1  0.27370342  0.75057094  0.44125561  1
  O  O418  1  0.27263791  0.75203030  0.69225094  1
  O  O419  1  0.27166829  0.74997229  0.94381992  1
  O  O420  1  0.77102741  0.08234608  0.19290228  1
  O  O421  1  0.77209858  0.08439127  0.44165704  1
  O  O422  1  0.77289909  0.08453882  0.69030994  1
  O  O423  1  0.77090398  0.08290120  0.94257447  1
  O  O424  1  0.77165716  0.41872575  0.19220638  1
  O  O425  1  0.77201364  0.41883665  0.44173976  1
  O  O426  1  0.77189663  0.41914996  0.69149900  1
  O  O427  1  0.77208843  0.41616511  0.94197431  1
  O  O428  1  0.77258530  0.74967350  0.19066387  1
  O  O429  1  0.77312079  0.74984162  0.44053479  1
  O  O430  1  0.77278076  0.75065591  0.68998914  1
  O  O431  1  0.77167351  0.74785584  0.94129512  1
  O  O432  1  0.02078622  0.08337518  0.18131000  1
  O  O433  1  0.02124200  0.08295154  0.43119399  1
  O  O434  1  0.02232779  0.08509219  0.68300835  1
  O  O435  1  0.02172366  0.08168430  0.93320187  1
  O  O436  1  0.02189571  0.41536324  0.18275750  1
  O  O437  1  0.02125774  0.41721992  0.43177148  1
  O  O438  1  0.02103950  0.41698731  0.68221893  1
  O  O439  1  0.02262275  0.41651058  0.93423571  1
  O  O440  1  0.02192631  0.75170587  0.18268119  1
  O  O441  1  0.02223678  0.74793928  0.43281568  1
  O  O442  1  0.02248002  0.74756946  0.68335359  1
  O  O443  1  0.02133992  0.74827901  0.93339896  1
  O  O444  1  0.52202686  0.08190427  0.18333361  1
  O  O445  1  0.52227531  0.08459699  0.43340567  1
  O  O446  1  0.52290780  0.08189233  0.68262317  1
  O  O447  1  0.52186726  0.08348079  0.93114605  1
  O  O448  1  0.52167761  0.41745657  0.18177022  1
  O  O449  1  0.52280807  0.41660304  0.43502432  1
  O  O450  1  0.52301362  0.41625397  0.68389197  1
  O  O451  1  0.52209587  0.41525787  0.93264259  1
  O  O452  1  0.52151755  0.75045167  0.18182818  1
  O  O453  1  0.52359572  0.75075640  0.43480616  1
  O  O454  1  0.52305506  0.74835384  0.68391955  1
  O  O455  1  0.52202806  0.74788093  0.93239931  1
  O  O456  1  0.47811124  0.25197816  0.06639832  1
  O  O457  1  0.47850695  0.25042380  0.31855326  1
  O  O458  1  0.47727081  0.25085661  0.56592177  1
  O  O459  1  0.47851404  0.25115077  0.81621773  1
  O  O460  1  0.47754006  0.58482926  0.06642765  1
  O  O461  1  0.47809437  0.58388124  0.31920703  1
  O  O462  1  0.47698090  0.58357131  0.56634027  1
  O  O463  1  0.47698214  0.58372456  0.81497740  1
  O  O464  1  0.47852407  0.91615448  0.06785371  1
  O  O465  1  0.47773660  0.91853815  0.31749323  1
  O  O466  1  0.47803407  0.91512427  0.56739344  1
  O  O467  1  0.47751298  0.91653854  0.81518160  1
  O  O468  1  0.97832998  0.25185895  0.06671911  1
  O  O469  1  0.97801019  0.25208819  0.31631900  1
  O  O470  1  0.97859628  0.24992371  0.56864560  1
  O  O471  1  0.97810567  0.24799052  0.81709104  1
  O  O472  1  0.97623042  0.58399369  0.06618747  1
  O  O473  1  0.97840397  0.58364883  0.31829292  1
  O  O474  1  0.97814364  0.58549213  0.56742079  1
  O  O475  1  0.97760806  0.58511888  0.81747131  1
  O  O476  1  0.97778644  0.91832409  0.06659696  1
  O  O477  1  0.97756454  0.91445482  0.31722365  1
  O  O478  1  0.97846172  0.91594060  0.56862819  1
  O  O479  1  0.97885814  0.91609286  0.81821043  1
  O  O480  1  0.07367402  0.31504636  0.07346154  1
  O  O481  1  0.07330563  0.31502771  0.32359796  1
  O  O482  1  0.07391277  0.31356525  0.57598104  1
  O  O483  1  0.07310286  0.31264500  0.82489381  1
  O  O484  1  0.07150257  0.64746192  0.07401141  1
  O  O485  1  0.07404295  0.64697043  0.32452543  1
  O  O486  1  0.07373936  0.64817379  0.57378495  1
  O  O487  1  0.07314191  0.64770876  0.82526006  1
  O  O488  1  0.07290007  0.98133497  0.07464310  1
  O  O489  1  0.07280724  0.97857237  0.32475563  1
  O  O490  1  0.07347339  0.98010522  0.57503002  1
  O  O491  1  0.07440554  0.97948129  0.82497232  1
  O  O492  1  0.57332355  0.31503209  0.07368542  1
  O  O493  1  0.57371097  0.31420951  0.32626962  1
  O  O494  1  0.57283210  0.31393431  0.57378574  1
  O  O495  1  0.57337313  0.31508206  0.82310394  1
  O  O496  1  0.57250770  0.64835691  0.07307885  1
  O  O497  1  0.57360636  0.64716288  0.32614839  1
  O  O498  1  0.57189660  0.64698864  0.57357710  1
  O  O499  1  0.57275968  0.64627771  0.82242966  1
  O  O500  1  0.57396949  0.97990012  0.07451785  1
  O  O501  1  0.57269678  0.98173166  0.32502801  1
  O  O502  1  0.57356789  0.97841919  0.57530117  1
  O  O503  1  0.57300697  0.97942756  0.82231276  1
  O  O504  1  0.42689756  0.01891829  0.17645925  1
  O  O505  1  0.42665125  0.02113297  0.42617693  1
  O  O506  1  0.42793983  0.01851756  0.67488442  1
  O  O507  1  0.42664626  0.01942202  0.92408341  1
  O  O508  1  0.42617456  0.35396433  0.17536995  1
  O  O509  1  0.42730448  0.35371560  0.42726130  1
  O  O510  1  0.42771339  0.35301834  0.67588611  1
  O  O511  1  0.42707446  0.35190018  0.92525903  1
  O  O512  1  0.42626220  0.68642614  0.17571469  1
  O  O513  1  0.42882032  0.68687110  0.42787669  1
  O  O514  1  0.42716134  0.68624151  0.67547398  1
  O  O515  1  0.42677997  0.68500564  0.92535772  1
  O  O516  1  0.92507478  0.02006942  0.17467116  1
  O  O517  1  0.92573267  0.01960200  0.42492150  1
  O  O518  1  0.92718058  0.02069880  0.67533341  1
  O  O519  1  0.92670043  0.01835818  0.92524383  1
  O  O520  1  0.92659851  0.35250289  0.17532403  1
  O  O521  1  0.92575296  0.35350857  0.42523920  1
  O  O522  1  0.92545371  0.35377285  0.67539506  1
  O  O523  1  0.92762448  0.35284068  0.92633863  1
  O  O524  1  0.92664563  0.68757760  0.17525560  1
  O  O525  1  0.92697541  0.68506217  0.42567998  1
  O  O526  1  0.92689863  0.68482836  0.67630533  1
  O  O527  1  0.92602960  0.68516921  0.92667886  1
  O  O528  1  0.17550621  0.01919818  0.20058537  1
  O  O529  1  0.17696705  0.01794689  0.45023834  1
  O  O530  1  0.17756102  0.01941763  0.69824516  1
  O  O531  1  0.17739469  0.01768482  0.94883914  1
  O  O532  1  0.17727433  0.35501939  0.19989879  1
  O  O533  1  0.17706165  0.35416893  0.44934481  1
  O  O534  1  0.17598891  0.35376142  0.70094482  1
  O  O535  1  0.17727343  0.35472759  0.95021416  1
  O  O536  1  0.17842483  0.68620909  0.19914559  1
  O  O537  1  0.17926106  0.68641678  0.44841693  1
  O  O538  1  0.17762283  0.68768387  0.69954366  1
  O  O539  1  0.17647075  0.68633532  0.95109695  1
  O  O540  1  0.67567795  0.01922696  0.20121231  1
  O  O541  1  0.67669876  0.02094240  0.45085922  1
  O  O542  1  0.67848630  0.01997438  0.69684092  1
  O  O543  1  0.67577893  0.01879088  0.94909907  1
  O  O544  1  0.67654483  0.35465098  0.20062030  1
  O  O545  1  0.67696944  0.35511659  0.45067581  1
  O  O546  1  0.67658266  0.35527589  0.69896337  1
  O  O547  1  0.67739009  0.35250075  0.94835415  1
  O  O548  1  0.67794287  0.68564698  0.19844998  1
  O  O549  1  0.67794206  0.68660011  0.44865477  1
  O  O550  1  0.67817801  0.68626031  0.69646869  1
  O  O551  1  0.67672286  0.68454697  0.94839277  1
  O  O552  1  0.32426976  0.31328975  0.04943015  1
  O  O553  1  0.32429419  0.31375903  0.29985733  1
  O  O554  1  0.32320199  0.31228963  0.55038680  1
  O  O555  1  0.32398481  0.31283025  0.79872268  1
  O  O556  1  0.32116896  0.64720981  0.05214085  1
  O  O557  1  0.32226887  0.64766253  0.30210264  1
  O  O558  1  0.32449466  0.64704974  0.54966094  1
  O  O559  1  0.32314042  0.64645157  0.80092488  1
  O  O560  1  0.32341640  0.97874969  0.05152586  1
  O  O561  1  0.32237214  0.97974804  0.30210682  1
  O  O562  1  0.32304169  0.97972422  0.55148541  1
  O  O563  1  0.32313612  0.98129146  0.80037094  1
  O  O564  1  0.82379647  0.31339074  0.05013911  1
  O  O565  1  0.82304414  0.31255459  0.30042767  1
  O  O566  1  0.82302580  0.31312170  0.54926015  1
  O  O567  1  0.82258486  0.31525283  0.80048978  1
  O  O568  1  0.82111147  0.64666689  0.05276131  1
  O  O569  1  0.82240111  0.64709437  0.30123172  1
  O  O570  1  0.82131560  0.64753915  0.55103111  1
  O  O571  1  0.82213062  0.64867643  0.80076186  1
  O  O572  1  0.82232315  0.97807365  0.05029248  1
  O  O573  1  0.82299635  0.97798505  0.29975017  1
  O  O574  1  0.82149530  0.98053986  0.55118076  1
  O  O575  1  0.82349385  0.97966594  0.79881306  1
  O  O576  1  0.42692092  0.14621925  0.17538184  1
  O  O577  1  0.42740539  0.14817895  0.42637083  1
  O  O578  1  0.42745472  0.14569927  0.67483843  1
  O  O579  1  0.42628297  0.14632292  0.92321940  1
  O  O580  1  0.42635728  0.48084617  0.17486190  1
  O  O581  1  0.42840501  0.48111783  0.42805950  1
  O  O582  1  0.42844951  0.48029804  0.67636509  1
  O  O583  1  0.42683875  0.47886724  0.92434510  1
  O  O584  1  0.42585813  0.81315394  0.17525329  1
  O  O585  1  0.42839505  0.81433488  0.42751213  1
  O  O586  1  0.42892639  0.81332977  0.67678556  1
  O  O587  1  0.42693396  0.81206637  0.92441717  1
  O  O588  1  0.92552442  0.14698827  0.17377458  1
  O  O589  1  0.92592676  0.14676496  0.42466531  1
  O  O590  1  0.92702474  0.14794156  0.67642134  1
  O  O591  1  0.92624548  0.14553628  0.92542314  1
  O  O592  1  0.92674750  0.47946905  0.17455293  1
  O  O593  1  0.92576521  0.48035844  0.42472732  1
  O  O594  1  0.92579298  0.48077906  0.67553757  1
  O  O595  1  0.92779046  0.48042040  0.92720453  1
  O  O596  1  0.92688111  0.81472383  0.17563044  1
  O  O597  1  0.92687213  0.81206114  0.42617389  1
  O  O598  1  0.92760227  0.81194107  0.67522887  1
  O  O599  1  0.92615941  0.81219473  0.92454006  1
  O  O600  1  0.07357380  0.18797363  0.07503301  1
  O  O601  1  0.07309894  0.18762204  0.32396486  1
  O  O602  1  0.07433105  0.18673033  0.57457773  1
  O  O603  1  0.07343814  0.18533753  0.82494839  1
  O  O604  1  0.07087784  0.51989679  0.07304341  1
  O  O605  1  0.07372571  0.52020813  0.32503093  1
  O  O606  1  0.07313189  0.52105884  0.57509384  1
  O  O607  1  0.07257047  0.52081821  0.82582641  1
  O  O608  1  0.07304835  0.85416875  0.07467809  1
  O  O609  1  0.07272792  0.85130432  0.32385534  1
  O  O610  1  0.07428750  0.85305896  0.57528114  1
  O  O611  1  0.07411591  0.85255811  0.82632832  1
  O  O612  1  0.57315359  0.18765419  0.07404354  1
  O  O613  1  0.57409370  0.18747415  0.32581667  1
  O  O614  1  0.57160832  0.18645765  0.57360140  1
  O  O615  1  0.57417116  0.18811515  0.82430764  1
  O  O616  1  0.57295521  0.52123726  0.07374108  1
  O  O617  1  0.57345238  0.52043874  0.32583422  1
  O  O618  1  0.57176504  0.51976833  0.57402735  1
  O  O619  1  0.57117911  0.51899977  0.82271418  1
  O  O620  1  0.57395415  0.85310227  0.07517838  1
  O  O621  1  0.57308399  0.85448773  0.32483886  1
  O  O622  1  0.57297359  0.85153577  0.57477110  1
  O  O623  1  0.57200940  0.85188940  0.82235201  1
  O  O624  1  0.32377756  0.18611364  0.04953874  1
  O  O625  1  0.32451943  0.18673289  0.29992160  1
  O  O626  1  0.32305649  0.18495481  0.55082305  1
  O  O627  1  0.32410284  0.18594679  0.79939591  1
  O  O628  1  0.32260048  0.51997012  0.05201957  1
  O  O629  1  0.32314020  0.52043914  0.30185081  1
  O  O630  1  0.32409938  0.52028427  0.54989767  1
  O  O631  1  0.32340097  0.51916729  0.80127946  1
  O  O632  1  0.32380611  0.85166467  0.05134741  1
  O  O633  1  0.32267427  0.85249061  0.30272872  1
  O  O634  1  0.32251530  0.85261314  0.55185107  1
  O  O635  1  0.32335460  0.85427331  0.80003941  1
  O  O636  1  0.82301699  0.18649712  0.04875494  1
  O  O637  1  0.82269269  0.18518845  0.30077915  1
  O  O638  1  0.82304068  0.18602814  0.55111318  1
  O  O639  1  0.82284519  0.18801684  0.80027216  1
  O  O640  1  0.82186490  0.51944538  0.05187009  1
  O  O641  1  0.82223028  0.51992291  0.30156009  1
  O  O642  1  0.82208675  0.52041450  0.55117428  1
  O  O643  1  0.82322900  0.52184742  0.80034526  1
  O  O644  1  0.82296876  0.85080480  0.05041882  1
  O  O645  1  0.82263075  0.85097518  0.30126931  1
  O  O646  1  0.82325176  0.85313888  0.55097688  1
  O  O647  1  0.82373693  0.85294551  0.79839183  1
  O  O648  1  0.17613330  0.14609877  0.20060402  1
  O  O649  1  0.17706060  0.14497748  0.45025478  1
  O  O650  1  0.17883753  0.14672287  0.69831652  1
  O  O651  1  0.17677612  0.14495183  0.94935463  1
  O  O652  1  0.17659390  0.48209758  0.19941519  1
  O  O653  1  0.17704017  0.48152062  0.44922158  1
  O  O654  1  0.17608498  0.48061884  0.70010590  1
  O  O655  1  0.17707211  0.48192360  0.94934902  1
  O  O656  1  0.17782543  0.81343276  0.19933947  1
  O  O657  1  0.17809329  0.81359047  0.44834256  1
  O  O658  1  0.17726439  0.81490415  0.69911612  1
  O  O659  1  0.17606351  0.81297404  0.95123571  1
  O  O660  1  0.67571116  0.14624981  0.20029393  1
  O  O661  1  0.67725746  0.14804335  0.44946893  1
  O  O662  1  0.67731170  0.14751198  0.69794160  1
  O  O663  1  0.67521615  0.14584298  0.94950281  1
  O  O664  1  0.67632948  0.48176275  0.19942909  1
  O  O665  1  0.67689967  0.48228864  0.44934878  1
  O  O666  1  0.67677183  0.48231649  0.69941867  1
  O  O667  1  0.67633772  0.47951009  0.94928176  1
  O  O668  1  0.67735324  0.81280958  0.19867850  1
  O  O669  1  0.67831824  0.81375178  0.44840655  1
  O  O670  1  0.67739955  0.81349569  0.69741377  1
  O  O671  1  0.67622014  0.81141609  0.94859397  1
