# generated using pymatgen
data_Na2MnFe(PO4)2
_symmetry_space_group_name_H-M   'P 1'
_cell_length_a   22.34344288
_cell_length_b   20.09267497
_cell_length_c   19.45068990
_cell_angle_alpha   90.00955205
_cell_angle_beta   90.06017407
_cell_angle_gamma   90.01332229
_symmetry_Int_Tables_number   1
_chemical_formula_structural   Na2MnFe(PO4)2
_chemical_formula_sum   'Na96 Mn48 Fe48 P96 O384'
_cell_volume   8732.17851504
_cell_formula_units_Z   48
loop_
 _symmetry_equiv_pos_site_id
 _symmetry_equiv_pos_as_xyz
  1  'x, y, z'
loop_
 _atom_site_type_symbol
 _atom_site_label
 _atom_site_symmetry_multiplicity
 _atom_site_fract_x
 _atom_site_fract_y
 _atom_site_fract_z
 _atom_site_occupancy
  Na  Na0  1  0.14043942  0.25006573  0.24363524  1
  Na  Na1  1  0.14051392  0.24940831  0.49366553  1
  Na  Na2  1  0.13988348  0.24949997  0.74368554  1
  Na  Na3  1  0.13971118  0.24921249  0.99398921  1
  Na  Na4  1  0.14000679  0.58286530  0.24429868  1
  Na  Na5  1  0.13999048  0.58288336  0.49189888  1
  Na  Na6  1  0.14004166  0.58181526  0.74263022  1
  Na  Na7  1  0.14052032  0.58171510  0.99437193  1
  Na  Na8  1  0.14054487  0.91769764  0.24471119  1
  Na  Na9  1  0.13997444  0.91692709  0.49295516  1
  Na  Na10  1  0.13986878  0.91778613  0.74337003  1
  Na  Na11  1  0.14003984  0.91749089  0.99449895  1
  Na  Na12  1  0.64006448  0.24911479  0.24313576  1
  Na  Na13  1  0.64070412  0.24902642  0.49325483  1
  Na  Na14  1  0.64054756  0.24984009  0.74355077  1
  Na  Na15  1  0.63983104  0.25104140  0.99420755  1
  Na  Na16  1  0.64060925  0.58466650  0.24423090  1
  Na  Na17  1  0.63963350  0.58325030  0.49390074  1
  Na  Na18  1  0.63953976  0.58340114  0.74318677  1
  Na  Na19  1  0.64049103  0.58487965  0.99345527  1
  Na  Na20  1  0.64045416  0.91667559  0.24407644  1
  Na  Na21  1  0.64001967  0.91714813  0.49236707  1
  Na  Na22  1  0.63985378  0.91572503  0.74371274  1
  Na  Na23  1  0.64020756  0.91711594  0.99441773  1
  Na  Na24  1  0.35953612  0.08339074  0.00653062  1
  Na  Na25  1  0.35971715  0.08344038  0.25660525  1
  Na  Na26  1  0.35997078  0.08321711  0.50573069  1
  Na  Na27  1  0.35948682  0.08444584  0.75508343  1
  Na  Na28  1  0.35979560  0.41476326  0.00603368  1
  Na  Na29  1  0.35979694  0.41643107  0.25635672  1
  Na  Na30  1  0.35992594  0.41612128  0.50612803  1
  Na  Na31  1  0.36026875  0.41584385  0.75612805  1
  Na  Na32  1  0.36008485  0.74966958  0.00733229  1
  Na  Na33  1  0.35980199  0.75030007  0.25728065  1
  Na  Na34  1  0.36013175  0.75032070  0.50664724  1
  Na  Na35  1  0.36017608  0.74954826  0.75674233  1
  Na  Na36  1  0.85975244  0.08411197  0.00701412  1
  Na  Na37  1  0.85979303  0.08357798  0.25629733  1
  Na  Na38  1  0.86032022  0.08329710  0.50659214  1
  Na  Na39  1  0.86012073  0.08216538  0.75682459  1
  Na  Na40  1  0.85980372  0.41634782  0.00607037  1
  Na  Na41  1  0.85958180  0.41672246  0.25655700  1
  Na  Na42  1  0.85999757  0.41697682  0.50570232  1
  Na  Na43  1  0.86003008  0.41651372  0.75577813  1
  Na  Na44  1  0.85960739  0.75186027  0.00650069  1
  Na  Na45  1  0.85994561  0.75138231  0.25723098  1
  Na  Na46  1  0.86021131  0.74977279  0.50653426  1
  Na  Na47  1  0.85966991  0.75004004  0.75501272  1
  Na  Na48  1  0.10978835  0.08467945  0.11863339  1
  Na  Na49  1  0.11000620  0.08313969  0.36886763  1
  Na  Na50  1  0.10908798  0.08293902  0.61849740  1
  Na  Na51  1  0.10915560  0.08318402  0.87024075  1
  Na  Na52  1  0.10951685  0.41665578  0.11900577  1
  Na  Na53  1  0.10985662  0.41716339  0.36797590  1
  Na  Na54  1  0.10973095  0.41609133  0.61753824  1
  Na  Na55  1  0.10938695  0.41418665  0.86850224  1
  Na  Na56  1  0.10924995  0.75029871  0.11961582  1
  Na  Na57  1  0.10926855  0.74988711  0.36901869  1
  Na  Na58  1  0.10886380  0.74995284  0.61739832  1
  Na  Na59  1  0.10938054  0.75012404  0.86886005  1
  Na  Na60  1  0.60931186  0.08376161  0.11857019  1
  Na  Na61  1  0.60996422  0.08270153  0.36762071  1
  Na  Na62  1  0.60988806  0.08206915  0.61783952  1
  Na  Na63  1  0.60943563  0.08337187  0.86846043  1
  Na  Na64  1  0.60962010  0.41694096  0.11883650  1
  Na  Na65  1  0.60953670  0.41662570  0.36862662  1
  Na  Na66  1  0.60951747  0.41797536  0.61906664  1
  Na  Na67  1  0.60907540  0.41735327  0.86864377  1
  Na  Na68  1  0.60956007  0.75123390  0.11893745  1
  Na  Na69  1  0.60977853  0.74986894  0.36927129  1
  Na  Na70  1  0.60853784  0.74980843  0.61877111  1
  Na  Na71  1  0.60917299  0.74957324  0.86940926  1
  Na  Na72  1  0.39051780  0.25045551  0.13166961  1
  Na  Na73  1  0.39055552  0.25048359  0.38136021  1
  Na  Na74  1  0.39025864  0.25069403  0.63162571  1
  Na  Na75  1  0.39015114  0.25067473  0.88031417  1
  Na  Na76  1  0.39058532  0.58347756  0.13132123  1
  Na  Na77  1  0.39076152  0.58338511  0.38191870  1
  Na  Na78  1  0.39088831  0.58300562  0.63109307  1
  Na  Na79  1  0.39072798  0.58277195  0.88123572  1
  Na  Na80  1  0.39004570  0.91719277  0.13231554  1
  Na  Na81  1  0.39052301  0.91580586  0.38200689  1
  Na  Na82  1  0.39074446  0.91575122  0.62991797  1
  Na  Na83  1  0.39057859  0.91526854  0.88119690  1
  Na  Na84  1  0.89035312  0.25131301  0.13119496  1
  Na  Na85  1  0.89055473  0.24907590  0.38128344  1
  Na  Na86  1  0.89081829  0.24887511  0.63165257  1
  Na  Na87  1  0.89046754  0.24839505  0.88197043  1
  Na  Na88  1  0.89083294  0.58384117  0.13179422  1
  Na  Na89  1  0.89062509  0.58442522  0.38156727  1
  Na  Na90  1  0.89042258  0.58299579  0.63005019  1
  Na  Na91  1  0.89108086  0.58188121  0.88027596  1
  Na  Na92  1  0.88996916  0.91824500  0.13195610  1
  Na  Na93  1  0.89067490  0.91742762  0.38265583  1
  Na  Na94  1  0.89035915  0.91767987  0.63108449  1
  Na  Na95  1  0.89023448  0.91737807  0.88158565  1
  Mn  Mn96  1  0.24973600  0.66542058  0.12609582  1
  Mn  Mn97  1  0.00014390  0.33300818  0.49957002  1
  Mn  Mn98  1  0.25047986  0.66642850  0.37464151  1
  Mn  Mn99  1  0.49920341  -0.00062702  -0.00057327  1
  Mn  Mn100  1  -0.00041457  0.83429333  0.74929944  1
  Mn  Mn101  1  0.74931300  0.83379055  0.62463519  1
  Mn  Mn102  1  0.00026481  0.00126241  0.25104521  1
  Mn  Mn103  1  0.00024447  0.66619421  -0.00046711  1
  Mn  Mn104  1  0.25082126  0.00076682  0.62455321  1
  Mn  Mn105  1  0.75080226  0.33329920  0.62455474  1
  Mn  Mn106  1  -0.00065977  0.83442771  -0.00038940  1
  Mn  Mn107  1  0.49964996  0.16784325  -0.00090680  1
  Mn  Mn108  1  0.25021117  0.16681922  0.37484936  1
  Mn  Mn109  1  0.24989231  0.83339340  0.87563909  1
  Mn  Mn110  1  0.24970244  0.66559513  0.87569581  1
  Mn  Mn111  1  0.49986814  0.16701565  0.74910953  1
  Mn  Mn112  1  -0.00014063  0.33224900  0.74940753  1
  Mn  Mn113  1  0.50090236  0.33414584  0.50031171  1
  Mn  Mn114  1  0.75069295  0.66796989  0.87462035  1
  Mn  Mn115  1  0.75059321  0.50023642  0.12504772  1
  Mn  Mn116  1  0.49959760  -0.00133385  0.74918549  1
  Mn  Mn117  1  0.50101314  0.50011787  0.25006605  1
  Mn  Mn118  1  0.74994102  0.00001637  0.87550992  1
  Mn  Mn119  1  0.24972325  0.83375240  0.62511236  1
  Mn  Mn120  1  0.74930843  0.66603017  0.62557082  1
  Mn  Mn121  1  0.74993076  0.50035600  0.87529012  1
  Mn  Mn122  1  0.00040448  0.83338945  0.25075254  1
  Mn  Mn123  1  0.24932830  0.16730200  0.87524104  1
  Mn  Mn124  1  0.24965752  0.66662036  0.62427654  1
  Mn  Mn125  1  0.24971866  0.49804031  0.87387810  1
  Mn  Mn126  1  0.24953272  0.33302498  0.12516749  1
  Mn  Mn127  1  0.49996497  0.50001720  0.00006017  1
  Mn  Mn128  1  0.50080789  0.16614209  0.49994912  1
  Mn  Mn129  1  0.24964896  0.83416347  0.12607128  1
  Mn  Mn130  1  0.50017638  0.66769263  0.25084582  1
  Mn  Mn131  1  0.75040197  0.83403847  0.37523635  1
  Mn  Mn132  1  0.24995048  0.00069820  0.87478380  1
  Mn  Mn133  1  0.00016000  0.33346203  0.25029968  1
  Mn  Mn134  1  -0.00013116  0.66563369  0.74854612  1
  Mn  Mn135  1  0.00067063  0.49875239  0.00027225  1
  Mn  Mn136  1  0.75023351  0.16533599  0.62451912  1
  Mn  Mn137  1  0.74959740  0.33242297  0.37565055  1
  Mn  Mn138  1  0.74944679  0.50038807  0.37474061  1
  Mn  Mn139  1  0.50012051  -0.00053945  0.24935504  1
  Mn  Mn140  1  0.75082652  0.66867108  0.12428135  1
  Mn  Mn141  1  0.25046788  0.49860898  0.62435903  1
  Mn  Mn142  1  0.74934545  0.33302509  0.87471365  1
  Mn  Mn143  1  0.74979032  0.16676983  0.12530986  1
  Fe  Fe144  1  0.25047038  0.16670202  0.12535978  1
  Fe  Fe145  1  0.00024164  0.16734014  0.24973378  1
  Fe  Fe146  1  0.49969422  0.33356506  0.25015171  1
  Fe  Fe147  1  -0.00050750  0.33276090  0.00001536  1
  Fe  Fe148  1  0.25029385  0.00031872  0.12553963  1
  Fe  Fe149  1  0.74978502  0.83424206  0.87510908  1
  Fe  Fe150  1  0.49960762  0.66665716  0.75013841  1
  Fe  Fe151  1  0.24980252  0.33295031  0.62437999  1
  Fe  Fe152  1  0.25040143  0.49923274  0.37477590  1
  Fe  Fe153  1  0.25036688  0.33290585  0.37474985  1
  Fe  Fe154  1  0.24979437  0.33248784  0.87501767  1
  Fe  Fe155  1  0.00011804  0.66629969  0.49954291  1
  Fe  Fe156  1  0.49996197  0.50040727  0.50059831  1
  Fe  Fe157  1  0.75009974  0.83488613  0.12608733  1
  Fe  Fe158  1  0.00040938  0.16609588  0.50073544  1
  Fe  Fe159  1  0.49997136  0.83221472  0.74986097  1
  Fe  Fe160  1  0.50000333  0.33359899  0.00000161  1
  Fe  Fe161  1  0.75024197  0.66706679  0.37511128  1
  Fe  Fe162  1  -0.00025039  0.16665609  0.00026759  1
  Fe  Fe163  1  0.50001548  0.66685746  0.50057222  1
  Fe  Fe164  1  0.50001052  0.66669374  -0.00009889  1
  Fe  Fe165  1  0.49990871  0.50052291  0.75026288  1
  Fe  Fe166  1  -0.00027915  0.50047935  0.24957255  1
  Fe  Fe167  1  0.49960737  0.83317263  0.25070287  1
  Fe  Fe168  1  0.24997610  0.00062621  0.37512911  1
  Fe  Fe169  1  0.00040031  0.49910574  0.74927251  1
  Fe  Fe170  1  0.74968370  0.33318754  0.12510160  1
  Fe  Fe171  1  0.49998122  -0.00073401  0.49893340  1
  Fe  Fe172  1  0.75049719  0.16595219  0.37442213  1
  Fe  Fe173  1  0.24977571  0.16733929  0.62461927  1
  Fe  Fe174  1  0.75061294  0.00036338  0.37455170  1
  Fe  Fe175  1  0.74943005  0.00063112  0.12491131  1
  Fe  Fe176  1  -0.00034976  0.66683728  0.25039052  1
  Fe  Fe177  1  0.49980052  0.16687348  0.24965825  1
  Fe  Fe178  1  0.00002365  0.00063567  0.50074769  1
  Fe  Fe179  1  -0.00001788  0.50014945  0.49892193  1
  Fe  Fe180  1  0.25019046  0.49886204  0.12512975  1
  Fe  Fe181  1  0.00003959  0.16562514  0.75103220  1
  Fe  Fe182  1  0.75004066  0.49998082  0.62473067  1
  Fe  Fe183  1  -0.00014713  0.00082864  0.00061653  1
  Fe  Fe184  1  0.50010029  0.83277325  0.50044523  1
  Fe  Fe185  1  0.00033503  0.00046076  0.75019527  1
  Fe  Fe186  1  0.49970590  0.83270254  0.00004705  1
  Fe  Fe187  1  0.50080373  0.33389415  0.74991145  1
  Fe  Fe188  1  -0.00007814  0.83355222  0.50009216  1
  Fe  Fe189  1  0.74971420  0.16653011  0.87533628  1
  Fe  Fe190  1  0.74964657  -0.00006953  0.62499148  1
  Fe  Fe191  1  0.24978249  0.83381062  0.37501844  1
  P  P192  1  0.04139405  0.25014215  0.10197807  1
  P  P193  1  0.04231350  0.24843846  0.35291840  1
  P  P194  1  0.04211756  0.24831480  0.60275028  1
  P  P195  1  0.04169289  0.24798547  0.85324857  1
  P  P196  1  0.04263776  0.58320350  0.10400773  1
  P  P197  1  0.04106519  0.58346862  0.35204797  1
  P  P198  1  0.04165740  0.58252927  0.60089373  1
  P  P199  1  0.04254922  0.58128048  0.85166242  1
  P  P200  1  0.04194377  0.91862964  0.10286843  1
  P  P201  1  0.04240800  0.91689335  0.35460528  1
  P  P202  1  0.04137254  0.91720336  0.60174674  1
  P  P203  1  0.04199412  0.91858321  0.85280757  1
  P  P204  1  0.54178862  0.25160478  0.10318906  1
  P  P205  1  0.54150526  0.25010653  0.35138182  1
  P  P206  1  0.54323807  0.25054053  0.60334659  1
  P  P207  1  0.54233162  0.25158835  0.85230019  1
  P  P208  1  0.54257137  0.58495518  0.10233218  1
  P  P209  1  0.54282727  0.58376323  0.35430216  1
  P  P210  1  0.54106059  0.58393417  0.60264909  1
  P  P211  1  0.54136340  0.58381851  0.85197657  1
  P  P212  1  0.54147188  0.91524916  0.10250994  1
  P  P213  1  0.54200558  0.91526007  0.35308744  1
  P  P214  1  0.54158465  0.91614490  0.60126288  1
  P  P215  1  0.54170663  0.91434463  0.85240740  1
  P  P216  1  0.45779862  0.08472524  0.14738407  1
  P  P217  1  0.45838109  0.08236393  0.39655964  1
  P  P218  1  0.45743346  0.08249132  0.64569200  1
  P  P219  1  0.45681658  0.08335199  0.89624114  1
  P  P220  1  0.45803005  0.41577390  0.14747206  1
  P  P221  1  0.45826112  0.41784310  0.39762103  1
  P  P222  1  0.45904608  0.41736557  0.64835107  1
  P  P223  1  0.45799532  0.41549627  0.89688296  1
  P  P224  1  0.45756985  0.75163658  0.14756686  1
  P  P225  1  0.45857215  0.75000457  0.39876265  1
  P  P226  1  0.45834794  0.74947257  0.64775666  1
  P  P227  1  0.45828304  0.74935467  0.89794826  1
  P  P228  1  0.95814291  0.08542066  0.14727020  1
  P  P229  1  0.95901835  0.08388567  0.39875275  1
  P  P230  1  0.95866413  0.08333897  0.64830629  1
  P  P231  1  0.95821421  0.08310353  0.89839860  1
  P  P232  1  0.95766902  0.41744275  0.14751010  1
  P  P233  1  0.95806732  0.41793911  0.39670975  1
  P  P234  1  0.95813440  0.41759885  0.64653355  1
  P  P235  1  0.95775147  0.41453668  0.89710862  1
  P  P236  1  0.95758486  0.74947941  0.14797392  1
  P  P237  1  0.95880578  0.74985181  0.39836999  1
  P  P238  1  0.95739788  0.75025066  0.64536125  1
  P  P239  1  0.95704331  0.74988455  0.89638222  1
  P  P240  1  0.20876163  0.08336253  0.22709260  1
  P  P241  1  0.20807331  0.08303300  0.47761885  1
  P  P242  1  0.20750684  0.08510270  0.72684716  1
  P  P243  1  0.20746898  0.08343332  0.97933283  1
  P  P244  1  0.20784494  0.41760189  0.22828888  1
  P  P245  1  0.20870139  0.41557045  0.47638528  1
  P  P246  1  0.20754911  0.41426428  0.72704604  1
  P  P247  1  0.20745386  0.41462102  0.97756404  1
  P  P248  1  0.20736441  0.75026673  0.22914230  1
  P  P249  1  0.20793031  0.75103877  0.47695815  1
  P  P250  1  0.20658490  0.74975185  0.72809385  1
  P  P251  1  0.20690118  0.74963058  0.97889435  1
  P  P252  1  0.70774635  0.08197730  0.22800602  1
  P  P253  1  0.70864807  0.08289279  0.47628260  1
  P  P254  1  0.70746727  0.08179210  0.72768240  1
  P  P255  1  0.70741417  0.08463629  0.97787870  1
  P  P256  1  0.70782621  0.41558075  0.22740703  1
  P  P257  1  0.70707311  0.41695115  0.47859479  1
  P  P258  1  0.70794975  0.41753003  0.72718662  1
  P  P259  1  0.70692875  0.41649556  0.97866174  1
  P  P260  1  0.70807754  0.75179663  0.22797275  1
  P  P261  1  0.70791972  0.74912375  0.47738437  1
  P  P262  1  0.70673670  0.75059579  0.72840512  1
  P  P263  1  0.70811627  0.75269625  0.97791648  1
  P  P264  1  0.29216788  0.24889576  0.02264725  1
  P  P265  1  0.29231100  0.25076882  0.27221760  1
  P  P266  1  0.29183188  0.25025824  0.52278964  1
  P  P267  1  0.29186586  0.25119712  0.77152770  1
  P  P268  1  0.29220537  0.58093431  0.02286501  1
  P  P269  1  0.29246820  0.58119429  0.27236329  1
  P  P270  1  0.29258834  0.58253051  0.52102485  1
  P  P271  1  0.29274473  0.58247739  0.77167486  1
  P  P272  1  0.29237937  0.91790766  0.02322326  1
  P  P273  1  0.29142224  0.91766884  0.27366672  1
  P  P274  1  0.29248023  0.91685110  0.52066880  1
  P  P275  1  0.29297507  0.91693956  0.77195422  1
  P  P276  1  0.79196999  0.25102383  0.02253616  1
  P  P277  1  0.79214320  0.24885529  0.27236059  1
  P  P278  1  0.79329592  0.24891089  0.52133457  1
  P  P279  1  0.79238440  0.24811555  0.77268070  1
  P  P280  1  0.79336729  0.58423391  0.02184858  1
  P  P281  1  0.79244698  0.58518000  0.27262452  1
  P  P282  1  0.79188690  0.58248742  0.52212205  1
  P  P283  1  0.79278901  0.58313893  0.77138252  1
  P  P284  1  0.79145980  0.91739928  0.02363550  1
  P  P285  1  0.79279315  0.91840324  0.27220967  1
  P  P286  1  0.79191480  0.91846181  0.52218831  1
  P  P287  1  0.79221716  0.91583493  0.77245330  1
  O  O288  1  0.03645197  0.25021749  0.18195572  1
  O  O289  1  0.03708789  0.24822719  0.43283028  1
  O  O290  1  0.03673747  0.24826460  0.68264014  1
  O  O291  1  0.03613160  0.24852604  0.93308092  1
  O  O292  1  0.03694967  0.58340839  0.18389977  1
  O  O293  1  0.03601399  0.58313088  0.43197551  1
  O  O294  1  0.03705671  0.58225376  0.68085943  1
  O  O295  1  0.03742333  0.58149622  0.93161758  1
  O  O296  1  0.03708336  0.91838637  0.18285886  1
  O  O297  1  0.03693662  0.91665252  0.43443937  1
  O  O298  1  0.03667613  0.91777268  0.68173273  1
  O  O299  1  0.03652290  0.91866839  0.93274611  1
  O  O300  1  0.53614144  0.25090932  0.18305371  1
  O  O301  1  0.53691290  0.24981941  0.43139482  1
  O  O302  1  0.53802740  0.25096620  0.68325573  1
  O  O303  1  0.53694636  0.25175484  0.93225585  1
  O  O304  1  0.53775241  0.58485534  0.18230641  1
  O  O305  1  0.53737988  0.58356191  0.43417783  1
  O  O306  1  0.53571835  0.58414167  0.68252185  1
  O  O307  1  0.53660870  0.58366720  0.93192235  1
  O  O308  1  0.53639832  0.91523448  0.18246298  1
  O  O309  1  0.53658302  0.91596482  0.43292747  1
  O  O310  1  0.53678133  0.91561161  0.68119875  1
  O  O311  1  0.53622742  0.91445513  0.93229811  1
  O  O312  1  0.46253393  0.08454329  0.06741886  1
  O  O313  1  0.46372769  0.08306581  0.31660765  1
  O  O314  1  0.46304615  0.08198068  0.56575423  1
  O  O315  1  0.46193514  0.08314280  0.81628990  1
  O  O316  1  0.46316759  0.41565603  0.06753878  1
  O  O317  1  0.46340099  0.41709671  0.31770576  1
  O  O318  1  0.46407168  0.41808821  0.56841119  1
  O  O319  1  0.46363115  0.41581298  0.81705948  1
  O  O320  1  0.46264425  0.75145957  0.06773386  1
  O  O321  1  0.46313110  0.75080062  0.31881387  1
  O  O322  1  0.46381445  0.74938424  0.56791102  1
  O  O323  1  0.46341665  0.74898135  0.81806167  1
  O  O324  1  0.96342599  0.08508445  0.06741850  1
  O  O325  1  0.96364421  0.08400420  0.31884536  1
  O  O326  1  0.96404727  0.08360856  0.56846046  1
  O  O327  1  0.96352051  0.08280700  0.81853189  1
  O  O328  1  0.96280720  0.41643061  0.06759317  1
  O  O329  1  0.96349486  0.41801931  0.31680569  1
  O  O330  1  0.96354424  0.41777976  0.56660770  1
  O  O331  1  0.96283559  0.41483903  0.81718363  1
  O  O332  1  0.96266476  0.74990434  0.06801897  1
  O  O333  1  0.96369907  0.74922246  0.31841334  1
  O  O334  1  0.96280357  0.75043727  0.56546909  1
  O  O335  1  0.96215879  0.74999517  0.81640400  1
  O  O336  1  0.21303254  0.08342167  0.05922432  1
  O  O337  1  0.21386324  0.08303101  0.30710205  1
  O  O338  1  0.21339278  0.08399328  0.55747306  1
  O  O339  1  0.21244613  0.08489434  0.80682659  1
  O  O340  1  0.21264210  0.41552636  0.05749786  1
  O  O341  1  0.21339093  0.41738761  0.30814666  1
  O  O342  1  0.21381757  0.41514989  0.55636297  1
  O  O343  1  0.21236022  0.41402595  0.80702491  1
  O  O344  1  0.21195482  0.74958901  0.05890661  1
  O  O345  1  0.21293185  0.75079436  0.30906509  1
  O  O346  1  0.21259204  0.75078593  0.55696916  1
  O  O347  1  0.21153550  0.74955280  0.80813567  1
  O  O348  1  0.71244438  0.08411374  0.05782448  1
  O  O349  1  0.71328834  0.08224047  0.30786604  1
  O  O350  1  0.71331269  0.08236801  0.55630077  1
  O  O351  1  0.71248122  0.08250319  0.80761975  1
  O  O352  1  0.71226810  0.41595262  0.05861556  1
  O  O353  1  0.71280472  0.41577149  0.30739940  1
  O  O354  1  0.71257193  0.41732281  0.55851324  1
  O  O355  1  0.71289326  0.41721968  0.80718438  1
  O  O356  1  0.71354364  0.75306925  0.05787246  1
  O  O357  1  0.71341404  0.75084836  0.30792616  1
  O  O358  1  0.71260300  0.74918024  0.55733619  1
  O  O359  1  0.71207830  0.75128057  0.80832047  1
  O  O360  1  0.28692409  0.25006977  0.19233709  1
  O  O361  1  0.28693500  0.25067435  0.44278396  1
  O  O362  1  0.28648363  0.25088494  0.69163284  1
  O  O363  1  0.28703321  0.24959795  0.94270526  1
  O  O364  1  0.28721314  0.58093006  0.19241230  1
  O  O365  1  0.28743052  0.58210194  0.44106670  1
  O  O366  1  0.28789438  0.58269598  0.69166912  1
  O  O367  1  0.28677972  0.58114177  0.94291255  1
  O  O368  1  0.28620036  0.91819102  0.19368582  1
  O  O369  1  0.28701458  0.91677456  0.44076445  1
  O  O370  1  0.28804411  0.91696697  0.69194751  1
  O  O371  1  0.28738335  0.91745655  0.94325045  1
  O  O372  1  0.78671046  0.24972125  0.19243005  1
  O  O373  1  0.78800944  0.24833931  0.44140618  1
  O  O374  1  0.78756715  0.24817354  0.69267718  1
  O  O375  1  0.78677159  0.25025509  0.94261957  1
  O  O376  1  0.78756390  0.58514812  0.19266135  1
  O  O377  1  0.78652798  0.58343847  0.44218480  1
  O  O378  1  0.78740922  0.58242452  0.69142069  1
  O  O379  1  0.78814833  0.58415119  0.94189465  1
  O  O380  1  0.78744879  0.91827945  0.19234308  1
  O  O381  1  0.78704513  0.91875893  0.44221241  1
  O  O382  1  0.78708007  0.91645091  0.69253411  1
  O  O383  1  0.78629236  0.91697191  0.94367159  1
  O  O384  1  0.22790522  0.24823492  0.05827288  1
  O  O385  1  0.22808028  0.25126239  0.30795281  1
  O  O386  1  0.22758106  0.25006947  0.55857534  1
  O  O387  1  0.22767846  0.25157837  0.80764677  1
  O  O388  1  0.22797045  0.58069828  0.05860728  1
  O  O389  1  0.22824174  0.58160213  0.30798954  1
  O  O390  1  0.22823775  0.58226923  0.55622319  1
  O  O391  1  0.22822171  0.58231846  0.80640438  1
  O  O392  1  0.22800460  0.91849254  0.05853939  1
  O  O393  1  0.22730184  0.91755426  0.30968466  1
  O  O394  1  0.22829631  0.91728031  0.55640849  1
  O  O395  1  0.22843359  0.91684967  0.80666297  1
  O  O396  1  0.72771874  0.25130346  0.05824962  1
  O  O397  1  0.72792202  0.24798811  0.30815028  1
  O  O398  1  0.72896167  0.24933767  0.55654248  1
  O  O399  1  0.72791920  0.24799921  0.80779807  1
  O  O400  1  0.72897333  0.58427903  0.05685467  1
  O  O401  1  0.72802827  0.58540019  0.30782697  1
  O  O402  1  0.72767038  0.58156861  0.55798696  1
  O  O403  1  0.72844402  0.58389334  0.80662426  1
  O  O404  1  0.72731572  0.91736519  0.05977673  1
  O  O405  1  0.72858318  0.91834647  0.30809021  1
  O  O406  1  0.72755257  0.91853665  0.55760836  1
  O  O407  1  0.72791582  0.91564830  0.80809557  1
  O  O408  1  0.27290146  0.08335724  0.19110554  1
  O  O409  1  0.27227231  0.08250496  0.44178656  1
  O  O410  1  0.27191098  0.08567874  0.69159880  1
  O  O411  1  0.27159250  0.08388128  0.94341855  1
  O  O412  1  0.27195373  0.41749402  0.19208717  1
  O  O413  1  0.27287582  0.41539457  0.44046410  1
  O  O414  1  0.27201346  0.41412651  0.69184983  1
  O  O415  1  0.27173188  0.41402590  0.94184799  1
  O  O416  1  0.27159570  0.75005934  0.19370075  1
  O  O417  1  0.27230856  0.75107197  0.44184246  1
  O  O418  1  0.27116730  0.74988194  0.69342019  1
  O  O419  1  0.27139408  0.74958675  0.94401656  1
  O  O420  1  0.77186412  0.08183254  0.19194167  1
  O  O421  1  0.77295600  0.08358727  0.44064851  1
  O  O422  1  0.77186686  0.08114256  0.69226536  1
  O  O423  1  0.77173754  0.08486714  0.94235869  1
  O  O424  1  0.77217104  0.41541757  0.19209574  1
  O  O425  1  0.77132241  0.41669350  0.44314753  1
  O  O426  1  0.77231416  0.41816194  0.69183446  1
  O  O427  1  0.77127090  0.41648602  0.94341927  1
  O  O428  1  0.77234379  0.75261657  0.19231685  1
  O  O429  1  0.77229707  0.74928028  0.44212221  1
  O  O430  1  0.77103348  0.75031096  0.69309310  1
  O  O431  1  0.77230287  0.75275815  0.94199638  1
  O  O432  1  0.02233171  0.08556354  0.18343620  1
  O  O433  1  0.02323199  0.08391650  0.43458756  1
  O  O434  1  0.02270438  0.08336503  0.68494026  1
  O  O435  1  0.02221853  0.08310187  0.93502169  1
  O  O436  1  0.02194639  0.41781496  0.18322903  1
  O  O437  1  0.02225717  0.41780783  0.43270180  1
  O  O438  1  0.02231437  0.41708091  0.68260390  1
  O  O439  1  0.02204517  0.41397946  0.93293074  1
  O  O440  1  0.02189056  0.74865952  0.18368547  1
  O  O441  1  0.02288185  0.75058849  0.43445557  1
  O  O442  1  0.02153499  0.75028708  0.68132696  1
  O  O443  1  0.02142620  0.75039781  0.93166365  1
  O  O444  1  0.52214485  0.08442969  0.18277507  1
  O  O445  1  0.52259421  0.08180746  0.43246116  1
  O  O446  1  0.52165094  0.08266685  0.68136895  1
  O  O447  1  0.52118759  0.08337324  0.93146967  1
  O  O448  1  0.52230797  0.41522538  0.18328566  1
  O  O449  1  0.52251542  0.41859110  0.43341558  1
  O  O450  1  0.52309442  0.41705221  0.68458229  1
  O  O451  1  0.52203810  0.41531560  0.93343167  1
  O  O452  1  0.52187882  0.75201955  0.18351390  1
  O  O453  1  0.52277768  0.74913156  0.43459277  1
  O  O454  1  0.52230914  0.74933973  0.68451994  1
  O  O455  1  0.52234974  0.74951849  0.93445984  1
  O  O456  1  0.47771417  0.25210352  0.06669688  1
  O  O457  1  0.47723053  0.25041934  0.31571909  1
  O  O458  1  0.47891868  0.25016752  0.56797933  1
  O  O459  1  0.47812974  0.25184242  0.81632674  1
  O  O460  1  0.47817825  0.58489210  0.06694252  1
  O  O461  1  0.47866483  0.58354713  0.31835924  1
  O  O462  1  0.47715046  0.58417572  0.56584495  1
  O  O463  1  0.47720784  0.58426071  0.81595671  1
  O  O464  1  0.47721266  0.91509987  0.06677639  1
  O  O465  1  0.47785220  0.91512120  0.31681997  1
  O  O466  1  0.47741599  0.91679148  0.56531386  1
  O  O467  1  0.47756543  0.91419940  0.81626929  1
  O  O468  1  0.97725434  0.25020838  0.06584347  1
  O  O469  1  0.97805943  0.24866541  0.31708108  1
  O  O470  1  0.97794230  0.24847048  0.56674035  1
  O  O471  1  0.97766279  0.24764094  0.81673860  1
  O  O472  1  0.97851369  0.58285982  0.06795038  1
  O  O473  1  0.97703882  0.58385528  0.31558353  1
  O  O474  1  0.97737542  0.58232757  0.56520658  1
  O  O475  1  0.97822357  0.58100884  0.81597662  1
  O  O476  1  0.97758165  0.91901077  0.06735058  1
  O  O477  1  0.97827038  0.91713822  0.31862864  1
  O  O478  1  0.97719296  0.91661549  0.56584601  1
  O  O479  1  0.97778897  0.91885753  0.81678024  1
  O  O480  1  0.07207655  0.31397737  0.07388669  1
  O  O481  1  0.07334957  0.31225624  0.32535990  1
  O  O482  1  0.07314385  0.31203674  0.57490366  1
  O  O483  1  0.07283474  0.31137142  0.82471247  1
  O  O484  1  0.07375072  0.64659664  0.07550899  1
  O  O485  1  0.07218906  0.64713400  0.32411500  1
  O  O486  1  0.07182982  0.64671560  0.57261053  1
  O  O487  1  0.07346594  0.64498928  0.82384208  1
  O  O488  1  0.07281071  0.98211509  0.07458892  1
  O  O489  1  0.07376711  0.98025530  0.32639892  1
  O  O490  1  0.07176313  0.98108267  0.57316829  1
  O  O491  1  0.07325601  0.98176046  0.82418854  1
  O  O492  1  0.57291906  0.31498074  0.07485711  1
  O  O493  1  0.57244999  0.31382685  0.32358582  1
  O  O494  1  0.57433394  0.31384828  0.57485454  1
  O  O495  1  0.57358549  0.31474555  0.82368457  1
  O  O496  1  0.57313313  0.64853581  0.07375733  1
  O  O497  1  0.57380165  0.64731407  0.32597103  1
  O  O498  1  0.57245333  0.64725250  0.57425216  1
  O  O499  1  0.57287322  0.64699173  0.82382437  1
  O  O500  1  0.57224343  0.97923504  0.07479242  1
  O  O501  1  0.57333892  0.97853632  0.32453140  1
  O  O502  1  0.57265721  0.97966678  0.57299973  1
  O  O503  1  0.57273165  0.97818303  0.82476794  1
  O  O504  1  0.42656862  0.02118262  0.17515010  1
  O  O505  1  0.42753792  0.01869751  0.42461178  1
  O  O506  1  0.42597966  0.01937361  0.67403813  1
  O  O507  1  0.42584174  0.01986256  0.92448054  1
  O  O508  1  0.42668803  0.35276568  0.17636558  1
  O  O509  1  0.42743420  0.35413762  0.42581297  1
  O  O510  1  0.42813696  0.35347505  0.67588844  1
  O  O511  1  0.42692529  0.35217328  0.92549915  1
  O  O512  1  0.42672231  0.68788557  0.17581781  1
  O  O513  1  0.42726171  0.68644793  0.42646141  1
  O  O514  1  0.42704208  0.68613767  0.67613684  1
  O  O515  1  0.42759283  0.68570097  0.92676690  1
  O  O516  1  0.92700620  0.02195276  0.17560261  1
  O  O517  1  0.92863253  0.01992979  0.42730113  1
  O  O518  1  0.92779442  0.01959339  0.67642018  1
  O  O519  1  0.92713882  0.01967195  0.92709309  1
  O  O520  1  0.92646316  0.35412145  0.17594599  1
  O  O521  1  0.92705273  0.35408225  0.42427476  1
  O  O522  1  0.92673438  0.35390742  0.67390725  1
  O  O523  1  0.92691107  0.35102271  0.92567937  1
  O  O524  1  0.92640009  0.68621348  0.17634744  1
  O  O525  1  0.92842656  0.68604505  0.42709778  1
  O  O526  1  0.92624787  0.68667875  0.67339688  1
  O  O527  1  0.92643389  0.68612888  0.92435989  1
  O  O528  1  0.17756896  0.01996941  0.19880053  1
  O  O529  1  0.17718587  0.01941027  0.44947271  1
  O  O530  1  0.17688835  0.02117214  0.69904227  1
  O  O531  1  0.17654545  0.01994881  0.95066865  1
  O  O532  1  0.17646035  0.35403338  0.20032886  1
  O  O533  1  0.17743549  0.35222842  0.44799173  1
  O  O534  1  0.17637899  0.35127127  0.69789436  1
  O  O535  1  0.17673966  0.35085529  0.94947899  1
  O  O536  1  0.17635594  0.68651105  0.20148555  1
  O  O537  1  0.17684165  0.68737020  0.44919120  1
  O  O538  1  0.17571900  0.68628896  0.69945428  1
  O  O539  1  0.17588340  0.68611258  0.95068354  1
  O  O540  1  0.67671144  0.01864050  0.19916567  1
  O  O541  1  0.67807916  0.01928401  0.44755063  1
  O  O542  1  0.67669548  0.01814340  0.69925563  1
  O  O543  1  0.67619076  0.02117354  0.94973764  1
  O  O544  1  0.67714674  0.35194304  0.19909893  1
  O  O545  1  0.67596984  0.35323392  0.45077626  1
  O  O546  1  0.67745041  0.35353872  0.69941093  1
  O  O547  1  0.67554492  0.35350047  0.94974702  1
  O  O548  1  0.67694915  0.68845578  0.19939827  1
  O  O549  1  0.67746791  0.68547154  0.44875758  1
  O  O550  1  0.67567869  0.68689578  0.70061802  1
  O  O551  1  0.67729936  0.68865141  0.95048863  1
  O  O552  1  0.32310446  0.31244625  0.05094672  1
  O  O553  1  0.32317292  0.31433649  0.30052646  1
  O  O554  1  0.32279895  0.31370078  0.55139238  1
  O  O555  1  0.32284933  0.31451195  0.80043956  1
  O  O556  1  0.32314706  0.64469021  0.05070296  1
  O  O557  1  0.32377102  0.64502394  0.29968893  1
  O  O558  1  0.32324115  0.64641268  0.54894175  1
  O  O559  1  0.32368413  0.64581062  0.80035733  1
  O  O560  1  0.32342870  0.98133824  0.05154651  1
  O  O561  1  0.32255013  0.98110906  0.30199490  1
  O  O562  1  0.32400194  0.98012787  0.54892072  1
  O  O563  1  0.32382209  0.98062330  0.79991614  1
  O  O564  1  0.82251420  0.31477365  0.05098042  1
  O  O565  1  0.82318580  0.31232796  0.30067850  1
  O  O566  1  0.82440334  0.31261075  0.54912814  1
  O  O567  1  0.82331746  0.31195008  0.80022679  1
  O  O568  1  0.82449883  0.64777106  0.04973582  1
  O  O569  1  0.82309632  0.64869077  0.30142097  1
  O  O570  1  0.82278422  0.64607438  0.55035696  1
  O  O571  1  0.82408631  0.64679341  0.79897950  1
  O  O572  1  0.82185867  0.98158843  0.05139028  1
  O  O573  1  0.82369622  0.98179473  0.30112769  1
  O  O574  1  0.82274417  0.98165184  0.55144644  1
  O  O575  1  0.82338203  0.97920796  0.80096048  1
  O  O576  1  0.42741711  0.14841271  0.17599229  1
  O  O577  1  0.42725340  0.14588147  0.42466163  1
  O  O578  1  0.42644089  0.14627787  0.67333458  1
  O  O579  1  0.42583564  0.14696160  0.92409547  1
  O  O580  1  0.42762061  0.47993045  0.17504643  1
  O  O581  1  0.42731543  0.48125403  0.42610431  1
  O  O582  1  0.42831756  0.48092762  0.67712144  1
  O  O583  1  0.42687500  0.47915471  0.92489783  1
  O  O584  1  0.42650203  0.81478483  0.17676053  1
  O  O585  1  0.42831861  0.81375091  0.42774236  1
  O  O586  1  0.42771262  0.81334604  0.67598666  1
  O  O587  1  0.42722524  0.81294077  0.92613758  1
  O  O588  1  0.92735956  0.14895006  0.17592461  1
  O  O589  1  0.92786329  0.14718239  0.42724337  1
  O  O590  1  0.92759895  0.14671637  0.67700837  1
  O  O591  1  0.92733336  0.14677661  0.92662702  1
  O  O592  1  0.92696155  0.48118823  0.17561867  1
  O  O593  1  0.92697166  0.48119590  0.42522138  1
  O  O594  1  0.92759181  0.48103466  0.67548547  1
  O  O595  1  0.92684867  0.47815704  0.92519661  1
  O  O596  1  0.92717588  0.81347855  0.17592452  1
  O  O597  1  0.92742575  0.81341680  0.42601191  1
  O  O598  1  0.92604990  0.81352558  0.67384759  1
  O  O599  1  0.92577926  0.81326982  0.92452570  1
  O  O600  1  0.07234800  0.18661278  0.07379164  1
  O  O601  1  0.07312852  0.18522300  0.32381963  1
  O  O602  1  0.07308688  0.18497924  0.57421983  1
  O  O603  1  0.07280522  0.18449558  0.82502402  1
  O  O604  1  0.07406303  0.51983095  0.07588166  1
  O  O605  1  0.07179368  0.51978915  0.32348014  1
  O  O606  1  0.07299232  0.51937552  0.57222470  1
  O  O607  1  0.07315799  0.51756417  0.82336502  1
  O  O608  1  0.07265797  0.85478294  0.07505329  1
  O  O609  1  0.07351223  0.85355713  0.32598684  1
  O  O610  1  0.07259233  0.85369864  0.57377426  1
  O  O611  1  0.07279432  0.85471561  0.82504139  1
  O  O612  1  0.57282690  0.18799857  0.07486069  1
  O  O613  1  0.57187239  0.18619200  0.32306172  1
  O  O614  1  0.57444028  0.18699920  0.57536778  1
  O  O615  1  0.57307729  0.18755533  0.82483290  1
  O  O616  1  0.57357668  0.52127706  0.07458596  1
  O  O617  1  0.57433852  0.52066686  0.32563460  1
  O  O618  1  0.57165817  0.52003855  0.57447285  1
  O  O619  1  0.57147345  0.51970113  0.82345569  1
  O  O620  1  0.57260583  0.85214079  0.07371237  1
  O  O621  1  0.57278222  0.85161003  0.32484852  1
  O  O622  1  0.57205585  0.85226516  0.57285501  1
  O  O623  1  0.57264907  0.85103721  0.82373386  1
  O  O624  1  0.32312180  0.18541020  0.05106134  1
  O  O625  1  0.32339158  0.18732667  0.30051761  1
  O  O626  1  0.32239678  0.18631088  0.55075104  1
  O  O627  1  0.32291972  0.18763323  0.79979029  1
  O  O628  1  0.32311811  0.51735461  0.05095128  1
  O  O629  1  0.32325818  0.51792714  0.30140664  1
  O  O630  1  0.32409648  0.51944773  0.54954819  1
  O  O631  1  0.32359646  0.51877914  0.79958256  1
  O  O632  1  0.32306684  0.85416225  0.05137981  1
  O  O633  1  0.32203026  0.85359689  0.30140931  1
  O  O634  1  0.32345347  0.85339297  0.54923740  1
  O  O635  1  0.32390778  0.85347130  0.80030821  1
  O  O636  1  0.82324490  0.18768740  0.05083331  1
  O  O637  1  0.82312866  0.18519109  0.30030731  1
  O  O638  1  0.82440366  0.18575247  0.55014512  1
  O  O639  1  0.82279121  0.18454381  0.80156958  1
  O  O640  1  0.82433375  0.52070029  0.05001158  1
  O  O641  1  0.82324520  0.52130441  0.30020647  1
  O  O642  1  0.82288199  0.51885211  0.55010244  1
  O  O643  1  0.82381651  0.51986490  0.80004194  1
  O  O644  1  0.82271400  0.85421450  0.05230851  1
  O  O645  1  0.82405216  0.85495703  0.30054456  1
  O  O646  1  0.82265723  0.85444656  0.54961128  1
  O  O647  1  0.82288020  0.85217250  0.80079261  1
  O  O648  1  0.17830864  0.14747302  0.19925160  1
  O  O649  1  0.17704069  0.14643828  0.44906990  1
  O  O650  1  0.17661731  0.14845380  0.69826999  1
  O  O651  1  0.17590701  0.14660415  0.95095146  1
  O  O652  1  0.17702813  0.48095795  0.19942070  1
  O  O653  1  0.17828736  0.47965765  0.44844201  1
  O  O654  1  0.17700057  0.47825454  0.69906345  1
  O  O655  1  0.17634643  0.47798167  0.94905588  1
  O  O656  1  0.17594059  0.81350002  0.20084257  1
  O  O657  1  0.17731674  0.81469116  0.44861936  1
  O  O658  1  0.17556348  0.81330648  0.70006336  1
  O  O659  1  0.17600118  0.81326832  0.95084805  1
  O  O660  1  0.67650094  0.14549054  0.19991310  1
  O  O661  1  0.67775489  0.14664913  0.44824182  1
  O  O662  1  0.67649019  0.14520398  0.69911059  1
  O  O663  1  0.67685800  0.14831235  0.94934045  1
  O  O664  1  0.67688404  0.47942767  0.19983749  1
  O  O665  1  0.67578097  0.48007743  0.45001242  1
  O  O666  1  0.67689296  0.48095850  0.69896443  1
  O  O667  1  0.67603415  0.48033952  0.95091264  1
  O  O668  1  0.67721906  0.81552530  0.20005671  1
  O  O669  1  0.67688803  0.81283079  0.44973723  1
  O  O670  1  0.67553333  0.81366033  0.69943094  1
  O  O671  1  0.67705688  0.81585613  0.94906261  1
