# generated using pymatgen
data_Na2MnFe(PO4)2
_symmetry_space_group_name_H-M   'P 1'
_cell_length_a   22.34474145
_cell_length_b   20.09927391
_cell_length_c   19.44911766
_cell_angle_alpha   89.99637684
_cell_angle_beta   90.07239089
_cell_angle_gamma   89.99019058
_symmetry_Int_Tables_number   1
_chemical_formula_structural   Na2MnFe(PO4)2
_chemical_formula_sum   'Na96 Mn48 Fe48 P96 O384'
_cell_volume   8734.84599537
_cell_formula_units_Z   48
loop_
 _symmetry_equiv_pos_site_id
 _symmetry_equiv_pos_as_xyz
  1  'x, y, z'
loop_
 _atom_site_type_symbol
 _atom_site_label
 _atom_site_symmetry_multiplicity
 _atom_site_fract_x
 _atom_site_fract_y
 _atom_site_fract_z
 _atom_site_occupancy
  Na  Na0  1  0.14052942  0.25101403  0.24496756  1
  Na  Na1  1  0.13996682  0.25058240  0.49449906  1
  Na  Na2  1  0.13985189  0.24936156  0.74335523  1
  Na  Na3  1  0.14013485  0.24969802  0.99398887  1
  Na  Na4  1  0.14072097  0.58417359  0.24495556  1
  Na  Na5  1  0.13984423  0.58233884  0.49271955  1
  Na  Na6  1  0.13983272  0.58188054  0.74339340  1
  Na  Na7  1  0.13969263  0.58336073  0.99350029  1
  Na  Na8  1  0.13988348  0.91703585  0.24313478  1
  Na  Na9  1  0.14069027  0.91659472  0.49383103  1
  Na  Na10  1  0.14047945  0.91810278  0.74424222  1
  Na  Na11  1  0.14021048  0.91800509  0.99498909  1
  Na  Na12  1  0.64003068  0.24974347  0.24476514  1
  Na  Na13  1  0.64005630  0.24866838  0.49321851  1
  Na  Na14  1  0.63991669  0.24836812  0.74358784  1
  Na  Na15  1  0.64005629  0.25043901  0.99155647  1
  Na  Na16  1  0.64019164  0.58557712  0.24411349  1
  Na  Na17  1  0.63976114  0.58423989  0.49320012  1
  Na  Na18  1  0.64002930  0.58328041  0.74322741  1
  Na  Na19  1  0.64001598  0.58281601  0.99254867  1
  Na  Na20  1  0.64009368  0.91697356  0.24427357  1
  Na  Na21  1  0.64020036  0.91655287  0.49325370  1
  Na  Na22  1  0.63983269  0.91545623  0.74162934  1
  Na  Na23  1  0.64012023  0.91605792  0.99273681  1
  Na  Na24  1  0.36041142  0.08301352  0.00652792  1
  Na  Na25  1  0.36008562  0.08360663  0.25609129  1
  Na  Na26  1  0.36034592  0.08438923  0.50757519  1
  Na  Na27  1  0.36119764  0.08370266  0.75667642  1
  Na  Na28  1  0.35991529  0.41596305  0.00546797  1
  Na  Na29  1  0.35983689  0.41765073  0.25754772  1
  Na  Na30  1  0.36003452  0.41624225  0.50657278  1
  Na  Na31  1  0.35997511  0.41509921  0.75537303  1
  Na  Na32  1  0.36000929  0.75060911  0.00725869  1
  Na  Na33  1  0.36039906  0.75030418  0.25706678  1
  Na  Na34  1  0.36035838  0.74934179  0.50589341  1
  Na  Na35  1  0.36006959  0.75011276  0.75560263  1
  Na  Na36  1  0.85963112  0.08282464  0.00578325  1
  Na  Na37  1  0.85954354  0.08323420  0.25667234  1
  Na  Na38  1  0.86006966  0.08285865  0.50656677  1
  Na  Na39  1  0.85999326  0.08282194  0.75706211  1
  Na  Na40  1  0.85966827  0.41694258  0.00505069  1
  Na  Na41  1  0.85963188  0.41681064  0.25667003  1
  Na  Na42  1  0.85951236  0.41777469  0.50704943  1
  Na  Na43  1  0.85959288  0.41660428  0.75818400  1
  Na  Na44  1  0.85926703  0.74918250  0.00577920  1
  Na  Na45  1  0.85994987  0.75183981  0.25617239  1
  Na  Na46  1  0.85968125  0.75010043  0.50673251  1
  Na  Na47  1  0.85919738  0.74890393  0.75542291  1
  Na  Na48  1  0.10959712  0.08291498  0.11917231  1
  Na  Na49  1  0.10937894  0.08438810  0.36904090  1
  Na  Na50  1  0.10980081  0.08417691  0.62006742  1
  Na  Na51  1  0.10955996  0.08401615  0.86888135  1
  Na  Na52  1  0.10939079  0.41713848  0.11995282  1
  Na  Na53  1  0.10983668  0.41730303  0.36943984  1
  Na  Na54  1  0.10887638  0.41596949  0.61848636  1
  Na  Na55  1  0.10877685  0.41612582  0.86798534  1
  Na  Na56  1  0.10938554  0.75106108  0.11868863  1
  Na  Na57  1  0.10923623  0.75021232  0.36823744  1
  Na  Na58  1  0.10925442  0.74916157  0.61813685  1
  Na  Na59  1  0.10915528  0.74939766  0.86940309  1
  Na  Na60  1  0.60928891  0.08390621  0.11827386  1
  Na  Na61  1  0.60992703  0.08259085  0.36921052  1
  Na  Na62  1  0.60974607  0.08250564  0.61770595  1
  Na  Na63  1  0.60906667  0.08211749  0.86782582  1
  Na  Na64  1  0.60934214  0.41664072  0.11781141  1
  Na  Na65  1  0.60908729  0.41749288  0.36972181  1
  Na  Na66  1  0.60920932  0.41699931  0.61873759  1
  Na  Na67  1  0.60951167  0.41505336  0.86755896  1
  Na  Na68  1  0.60971472  0.75122817  0.11849852  1
  Na  Na69  1  0.60997499  0.74998611  0.36897895  1
  Na  Na70  1  0.60945439  0.75037373  0.61713801  1
  Na  Na71  1  0.60931749  0.74857375  0.86737172  1
  Na  Na72  1  0.39093536  0.25016503  0.13044900  1
  Na  Na73  1  0.39100534  0.25019180  0.38355230  1
  Na  Na74  1  0.39037894  0.24980859  0.63170074  1
  Na  Na75  1  0.39068620  0.24792288  0.88119615  1
  Na  Na76  1  0.39097435  0.58473373  0.13179346  1
  Na  Na77  1  0.39078339  0.58397857  0.38262644  1
  Na  Na78  1  0.39059664  0.58404458  0.62966327  1
  Na  Na79  1  0.39076817  0.58201289  0.88081546  1
  Na  Na80  1  0.39056260  0.91675777  0.13155711  1
  Na  Na81  1  0.39108267  0.91632307  0.38139979  1
  Na  Na82  1  0.39152843  0.91758571  0.63126072  1
  Na  Na83  1  0.39117637  0.91661353  0.88141716  1
  Na  Na84  1  0.89014770  0.24947566  0.13070343  1
  Na  Na85  1  0.89054571  0.25094661  0.38152264  1
  Na  Na86  1  0.89061355  0.24943243  0.63269080  1
  Na  Na87  1  0.89004833  0.24954444  0.88148579  1
  Na  Na88  1  0.89032029  0.58339290  0.13006305  1
  Na  Na89  1  0.89032991  0.58410519  0.38192087  1
  Na  Na90  1  0.89027863  0.58294414  0.63113891  1
  Na  Na91  1  0.89010981  0.58277712  0.88121780  1
  Na  Na92  1  0.89019953  0.91679153  0.13161143  1
  Na  Na93  1  0.89047609  0.91742060  0.38167155  1
  Na  Na94  1  0.89022982  0.91732209  0.63164305  1
  Na  Na95  1  0.89033267  0.91608360  0.88045404  1
  Mn  Mn96  1  0.00073252  0.83345545  0.50018937  1
  Mn  Mn97  1  0.00073907  0.00117373  0.50063371  1
  Mn  Mn98  1  0.25005955  0.66671785  0.87525418  1
  Mn  Mn99  1  0.00016545  0.16569237  0.00076588  1
  Mn  Mn100  1  0.75020330  0.83389788  0.37566934  1
  Mn  Mn101  1  0.00002369  0.66715492  0.24993489  1
  Mn  Mn102  1  0.25064375  0.66735691  0.12501823  1
  Mn  Mn103  1  0.24983070  0.16764908  0.37547680  1
  Mn  Mn104  1  0.74944183  0.50129359  0.37559164  1
  Mn  Mn105  1  0.74970170  0.16656360  0.12478792  1
  Mn  Mn106  1  -0.00023557  0.83389544  -0.00049225  1
  Mn  Mn107  1  0.75071526  0.16543555  0.62465436  1
  Mn  Mn108  1  0.75055009  -0.00067379  0.87438799  1
  Mn  Mn109  1  0.50014520  0.33258937  0.74909855  1
  Mn  Mn110  1  0.00029334  0.33364622  -0.00025662  1
  Mn  Mn111  1  0.50026034  0.16676826  0.25003613  1
  Mn  Mn112  1  0.25076587  0.83297383  0.37452104  1
  Mn  Mn113  1  0.50027891  0.33342118  0.25027382  1
  Mn  Mn114  1  -0.00017521  0.66544636  0.74944177  1
  Mn  Mn115  1  -0.00036811  0.83353158  0.74987286  1
  Mn  Mn116  1  0.24995144  0.50059012  0.12590525  1
  Mn  Mn117  1  0.25002101  0.83317462  0.62473564  1
  Mn  Mn118  1  0.25020637  0.00031110  0.37531955  1
  Mn  Mn119  1  0.49988180  0.66637381  0.74916543  1
  Mn  Mn120  1  0.74899484  -0.00058698  0.12492236  1
  Mn  Mn121  1  0.24982934  0.83399725  0.87546008  1
  Mn  Mn122  1  0.50002531  0.49967070  0.00012201  1
  Mn  Mn123  1  0.25084168  0.16656524  0.12560377  1
  Mn  Mn124  1  0.24946511  0.33216236  0.87524548  1
  Mn  Mn125  1  0.49983666  0.50134403  0.24937785  1
  Mn  Mn126  1  0.74996586  0.83203750  0.87319058  1
  Mn  Mn127  1  0.75019113  0.66769225  0.12411869  1
  Mn  Mn128  1  0.24944329  0.66603487  0.62486782  1
  Mn  Mn129  1  0.24977530  0.49918750  0.87443929  1
  Mn  Mn130  1  0.25004678  0.33356297  0.12532451  1
  Mn  Mn131  1  0.00006421  0.16717796  0.24994169  1
  Mn  Mn132  1  0.74983657  0.33328042  0.12484719  1
  Mn  Mn133  1  0.49939379  -0.00055153  0.25035319  1
  Mn  Mn134  1  0.50002617  0.83319132  -0.00034414  1
  Mn  Mn135  1  0.00018971  0.49992599  0.25011227  1
  Mn  Mn136  1  0.25120666  0.00108031  0.62490936  1
  Mn  Mn137  1  0.74920551  0.33294348  0.37556444  1
  Mn  Mn138  1  0.25049487  0.49857614  0.62392430  1
  Mn  Mn139  1  -0.00061797  0.33377471  0.50105541  1
  Mn  Mn140  1  0.74928867  0.50069053  0.62588921  1
  Mn  Mn141  1  0.75000235  0.33279544  0.62554414  1
  Mn  Mn142  1  0.74971659  0.50037978  0.12493269  1
  Mn  Mn143  1  0.25107009  0.00106742  0.87496622  1
  Fe  Fe144  1  0.50010786  0.83349958  0.49980196  1
  Fe  Fe145  1  0.24956889  0.66698127  0.37482186  1
  Fe  Fe146  1  0.25044140  0.49997078  0.37545691  1
  Fe  Fe147  1  -0.00041473  0.33380440  0.25040105  1
  Fe  Fe148  1  0.25097184  0.33332114  0.37533874  1
  Fe  Fe149  1  0.50022763  -0.00031113  0.50037244  1
  Fe  Fe150  1  0.50042759  0.66761661  0.25084809  1
  Fe  Fe151  1  -0.00023187  0.16721361  0.50064169  1
  Fe  Fe152  1  0.50050481  0.16597715  0.75001566  1
  Fe  Fe153  1  0.50000110  0.66685873  -0.00014922  1
  Fe  Fe154  1  -0.00033256  0.49979504  -0.00047294  1
  Fe  Fe155  1  0.50036219  0.50068270  0.49967441  1
  Fe  Fe156  1  0.74977311  -0.00035424  0.62460357  1
  Fe  Fe157  1  0.50030141  0.16596300  -0.00036428  1
  Fe  Fe158  1  0.74940675  0.16589908  0.87465763  1
  Fe  Fe159  1  0.75041885  -0.00021943  0.37493595  1
  Fe  Fe160  1  0.24965115  0.33287469  0.62480476  1
  Fe  Fe161  1  -0.00026700  0.83391510  0.24947480  1
  Fe  Fe162  1  0.75003480  0.66635862  0.62514058  1
  Fe  Fe163  1  0.74944262  0.50003045  0.87452087  1
  Fe  Fe164  1  0.49967958  0.49958079  0.74954947  1
  Fe  Fe165  1  0.74992281  0.33298245  0.87490606  1
  Fe  Fe166  1  0.00058662  0.00034631  0.75034373  1
  Fe  Fe167  1  0.50062914  -0.00021145  0.74949971  1
  Fe  Fe168  1  -0.00027381  0.66661072  -0.00025488  1
  Fe  Fe169  1  0.75022062  0.66775114  0.37485682  1
  Fe  Fe170  1  -0.00065550  0.49978319  0.50026647  1
  Fe  Fe171  1  0.50033400  0.16640873  0.50066535  1
  Fe  Fe172  1  -0.00047827  0.66637670  0.49957844  1
  Fe  Fe173  1  0.50017301  0.33379007  0.50092347  1
  Fe  Fe174  1  0.24967972  0.00050486  0.12539176  1
  Fe  Fe175  1  0.00027347  0.50004402  0.74986068  1
  Fe  Fe176  1  0.50055902  -0.00043874  -0.00050200  1
  Fe  Fe177  1  0.25001633  0.83382517  0.12567402  1
  Fe  Fe178  1  -0.00048289  -0.00007361  0.00021413  1
  Fe  Fe179  1  0.75063940  0.16598561  0.37495730  1
  Fe  Fe180  1  0.74990318  0.83356931  0.12478612  1
  Fe  Fe181  1  -0.00043994  0.00041606  0.25039600  1
  Fe  Fe182  1  0.25021006  0.16737030  0.62543329  1
  Fe  Fe183  1  -0.00037664  0.16621592  0.75074484  1
  Fe  Fe184  1  0.74984097  0.83279486  0.62422380  1
  Fe  Fe185  1  0.50079226  0.83317095  0.25036923  1
  Fe  Fe186  1  0.74908403  0.66650004  0.87459265  1
  Fe  Fe187  1  -0.00053231  0.33333136  0.75008584  1
  Fe  Fe188  1  0.49978047  0.33262168  -0.00109766  1
  Fe  Fe189  1  0.25013249  0.16651938  0.87495465  1
  Fe  Fe190  1  0.49991722  0.83327595  0.74928938  1
  Fe  Fe191  1  0.50024705  0.66735588  0.50012235  1
  P  P192  1  0.04277702  0.25024460  0.10356718  1
  P  P193  1  0.04194879  0.25183974  0.35316299  1
  P  P194  1  0.04134160  0.24875605  0.60389175  1
  P  P195  1  0.04110871  0.24970350  0.85161719  1
  P  P196  1  0.04110641  0.58327330  0.10129455  1
  P  P197  1  0.04225966  0.58354916  0.35402345  1
  P  P198  1  0.04134181  0.58257438  0.60153222  1
  P  P199  1  0.04199685  0.58181546  0.85301612  1
  P  P200  1  0.04147260  0.91808093  0.10331625  1
  P  P201  1  0.04142888  0.91714741  0.35156759  1
  P  P202  1  0.04318212  0.91747540  0.60385112  1
  P  P203  1  0.04213531  0.91799830  0.85288266  1
  P  P204  1  0.54181105  0.25010000  0.10076325  1
  P  P205  1  0.54239547  0.24979965  0.35460386  1
  P  P206  1  0.54158554  0.24959739  0.60201024  1
  P  P207  1  0.54182544  0.24807285  0.85262393  1
  P  P208  1  0.54227711  0.58543489  0.10255896  1
  P  P209  1  0.54196071  0.58492906  0.35325319  1
  P  P210  1  0.54140573  0.58343241  0.60144632  1
  P  P211  1  0.54198188  0.58158429  0.85206800  1
  P  P212  1  0.54241656  0.91759485  0.10227707  1
  P  P213  1  0.54208975  0.91515135  0.35348611  1
  P  P214  1  0.54145865  0.91632170  0.60198476  1
  P  P215  1  0.54152141  0.91616923  0.85105217  1
  P  P216  1  0.45772330  0.08325025  0.14618238  1
  P  P217  1  0.45879059  0.08309964  0.39915265  1
  P  P218  1  0.45964896  0.08349370  0.64776653  1
  P  P219  1  0.45913232  0.08242831  0.89767878  1
  P  P220  1  0.45736390  0.41657936  0.14658335  1
  P  P221  1  0.45885723  0.41713964  0.39881461  1
  P  P222  1  0.45821978  0.41789531  0.64636239  1
  P  P223  1  0.45795285  0.41500315  0.89674225  1
  P  P224  1  0.45897844  0.75039466  0.14857009  1
  P  P225  1  0.45916774  0.75034611  0.39792059  1
  P  P226  1  0.45813427  0.75153553  0.64640101  1
  P  P227  1  0.45773982  0.74862565  0.89710579  1
  P  P228  1  0.95733406  0.08188902  0.14770097  1
  P  P229  1  0.95817965  0.08506284  0.39768510  1
  P  P230  1  0.95845935  0.08366599  0.64873770  1
  P  P231  1  0.95801119  0.08195018  0.89701018  1
  P  P232  1  0.95734429  0.41580774  0.14728243  1
  P  P233  1  0.95720605  0.41778999  0.39782862  1
  P  P234  1  0.95808562  0.41716599  0.64859120  1
  P  P235  1  0.95785020  0.41765286  0.89641851  1
  P  P236  1  0.95786886  0.75116061  0.14692524  1
  P  P237  1  0.95784802  0.74973544  0.39730681  1
  P  P238  1  0.95741570  0.74932472  0.64618724  1
  P  P239  1  0.95743408  0.74861810  0.89732881  1
  P  P240  1  0.20756292  0.08277778  0.22791323  1
  P  P241  1  0.20756564  0.08436885  0.47900101  1
  P  P242  1  0.20863619  0.08520987  0.72796488  1
  P  P243  1  0.20805460  0.08437934  0.97796864  1
  P  P244  1  0.20772575  0.41701059  0.22971909  1
  P  P245  1  0.20884457  0.41566523  0.47676588  1
  P  P246  1  0.20746716  0.41471981  0.72692509  1
  P  P247  1  0.20658596  0.41648955  0.97817271  1
  P  P248  1  0.20789398  0.75097736  0.22788417  1
  P  P249  1  0.20743426  0.74891088  0.47712066  1
  P  P250  1  0.20664367  0.75006530  0.72814343  1
  P  P251  1  0.20725447  0.75083248  0.97900788  1
  P  P252  1  0.70704726  0.08324207  0.22890682  1
  P  P253  1  0.70907445  0.08235449  0.47667890  1
  P  P254  1  0.70800564  0.08173143  0.72725738  1
  P  P255  1  0.70738070  0.08366716  0.97668052  1
  P  P256  1  0.70673069  0.41703157  0.22822767  1
  P  P257  1  0.70682403  0.41705370  0.47865634  1
  P  P258  1  0.70735168  0.41636573  0.72930680  1
  P  P259  1  0.70831940  0.41671661  0.97590304  1
  P  P260  1  0.70804021  0.75181005  0.22753863  1
  P  P261  1  0.70823951  0.74906832  0.47815664  1
  P  P262  1  0.70820211  0.74912156  0.72598080  1
  P  P263  1  0.70721127  0.74911185  0.97686890  1
  P  P264  1  0.29288455  0.24958842  0.02169499  1
  P  P265  1  0.29342004  0.25132293  0.27315261  1
  P  P266  1  0.29169460  0.25058755  0.52342948  1
  P  P267  1  0.29217003  0.24831677  0.77183099  1
  P  P268  1  0.29318010  0.58321935  0.02208656  1
  P  P269  1  0.29198721  0.58382076  0.27415343  1
  P  P270  1  0.29214845  0.58287691  0.52047693  1
  P  P271  1  0.29297945  0.58279155  0.77161066  1
  P  P272  1  0.29151596  0.91719223  0.02409093  1
  P  P273  1  0.29283169  0.91710013  0.27109257  1
  P  P274  1  0.29357033  0.91661091  0.52182535  1
  P  P275  1  0.29351465  0.91711363  0.77198313  1
  P  P276  1  0.79218600  0.24995254  0.02064949  1
  P  P277  1  0.79222429  0.24892449  0.27294518  1
  P  P278  1  0.79287727  0.24928877  0.52170686  1
  P  P279  1  0.79104313  0.24911094  0.77365764  1
  P  P280  1  0.79195221  0.58317123  0.02050714  1
  P  P281  1  0.79235913  0.58553245  0.27266332  1
  P  P282  1  0.79172612  0.58498771  0.52257379  1
  P  P283  1  0.79104957  0.58374987  0.77322124  1
  P  P284  1  0.79208033  0.91516743  0.02213076  1
  P  P285  1  0.79218090  0.91764526  0.27248791  1
  P  P286  1  0.79142562  0.91695508  0.52311254  1
  P  P287  1  0.79251982  0.91591656  0.77004080  1
  O  O288  1  0.03753088  0.25068567  0.18347730  1
  O  O289  1  0.03663187  0.25137509  0.43309664  1
  O  O290  1  0.03571573  0.24877167  0.68372095  1
  O  O291  1  0.03660364  0.24994145  0.93160656  1
  O  O292  1  0.03605519  0.58337608  0.18128226  1
  O  O293  1  0.03685683  0.58360547  0.43390166  1
  O  O294  1  0.03648654  0.58215316  0.68154206  1
  O  O295  1  0.03657234  0.58198768  0.93286298  1
  O  O296  1  0.03582392  0.91777808  0.18318139  1
  O  O297  1  0.03701872  0.91688329  0.43162324  1
  O  O298  1  0.03789490  0.91777157  0.68376568  1
  O  O299  1  0.03678170  0.91803864  0.93283329  1
  O  O300  1  0.53720769  0.25011926  0.18082263  1
  O  O301  1  0.53701109  0.24965462  0.43448959  1
  O  O302  1  0.53690195  0.24943457  0.68199613  1
  O  O303  1  0.53640872  0.24849192  0.93244360  1
  O  O304  1  0.53693873  0.58579790  0.18251654  1
  O  O305  1  0.53682035  0.58449916  0.43313209  1
  O  O306  1  0.53645146  0.58328608  0.68136690  1
  O  O307  1  0.53680551  0.58208287  0.93193698  1
  O  O308  1  0.53725478  0.91696220  0.18217962  1
  O  O309  1  0.53664729  0.91525046  0.43331898  1
  O  O310  1  0.53658440  0.91643529  0.68187587  1
  O  O311  1  0.53664415  0.91691969  0.93100014  1
  O  O312  1  0.46320974  0.08294821  0.06635341  1
  O  O313  1  0.46319586  0.08292503  0.31914087  1
  O  O314  1  0.46449888  0.08353564  0.56790061  1
  O  O315  1  0.46422377  0.08263449  0.81780835  1
  O  O316  1  0.46242705  0.41609982  0.06663444  1
  O  O317  1  0.46350768  0.41681393  0.31882921  1
  O  O318  1  0.46397021  0.41790471  0.56654182  1
  O  O319  1  0.46333892  0.41556074  0.81681932  1
  O  O320  1  0.46376164  0.74998419  0.06859604  1
  O  O321  1  0.46424039  0.75001227  0.31804014  1
  O  O322  1  0.46364354  0.75155952  0.56656650  1
  O  O323  1  0.46286751  0.74915811  0.81720818  1
  O  O324  1  0.96237365  0.08162911  0.06773849  1
  O  O325  1  0.96329903  0.08440679  0.31778550  1
  O  O326  1  0.96351129  0.08423122  0.56877575  1
  O  O327  1  0.96371766  0.08243834  0.81715045  1
  O  O328  1  0.96271570  0.41644310  0.06735021  1
  O  O329  1  0.96230076  0.41706212  0.31791789  1
  O  O330  1  0.96280869  0.41720790  0.56858276  1
  O  O331  1  0.96320476  0.41755443  0.81655085  1
  O  O332  1  0.96293951  0.75067945  0.06699313  1
  O  O333  1  0.96295036  0.75059187  0.31732551  1
  O  O334  1  0.96294701  0.74882724  0.56627464  1
  O  O335  1  0.96257082  0.74875080  0.81739062  1
  O  O336  1  0.21318539  0.08351231  0.05796137  1
  O  O337  1  0.21234195  0.08317155  0.30793241  1
  O  O338  1  0.21314825  0.08487624  0.55894485  1
  O  O339  1  0.21369818  0.08535952  0.80795795  1
  O  O340  1  0.21159388  0.41670191  0.05817053  1
  O  O341  1  0.21351122  0.41705813  0.30960576  1
  O  O342  1  0.21403057  0.41506525  0.55674936  1
  O  O343  1  0.21224838  0.41495605  0.80689335  1
  O  O344  1  0.21267830  0.75142700  0.05899488  1
  O  O345  1  0.21321891  0.75000962  0.30785630  1
  O  O346  1  0.21208005  0.74914870  0.55713169  1
  O  O347  1  0.21175723  0.75002856  0.80815512  1
  O  O348  1  0.71205229  0.08354268  0.05668042  1
  O  O349  1  0.71282871  0.08331268  0.30880617  1
  O  O350  1  0.71410275  0.08181730  0.55667510  1
  O  O351  1  0.71308271  0.08252356  0.80717914  1
  O  O352  1  0.71283526  0.41657117  0.05595438  1
  O  O353  1  0.71165165  0.41710358  0.30824150  1
  O  O354  1  0.71193286  0.41708200  0.55865355  1
  O  O355  1  0.71279522  0.41648842  0.80921508  1
  O  O356  1  0.71258693  0.75036125  0.05678838  1
  O  O357  1  0.71326044  0.75124592  0.30748484  1
  O  O358  1  0.71345469  0.74907960  0.55801133  1
  O  O359  1  0.71287411  0.74873540  0.80598341  1
  O  O360  1  0.28844335  0.25094416  0.19318068  1
  O  O361  1  0.28703407  0.25090672  0.44343939  1
  O  O362  1  0.28681271  0.24857351  0.69188687  1
  O  O363  1  0.28758101  0.24897840  0.94173279  1
  O  O364  1  0.28717288  0.58405417  0.19410826  1
  O  O365  1  0.28663331  0.58302176  0.44056494  1
  O  O366  1  0.28785815  0.58260508  0.69158642  1
  O  O367  1  0.28817917  0.58325598  0.94211445  1
  O  O368  1  0.28733042  0.91725966  0.19117443  1
  O  O369  1  0.28845465  0.91660646  0.44184645  1
  O  O370  1  0.28864881  0.91722068  0.69202096  1
  O  O371  1  0.28677905  0.91737721  0.94405763  1
  O  O372  1  0.78721663  0.24928902  0.19291373  1
  O  O373  1  0.78761761  0.24872402  0.44178386  1
  O  O374  1  0.78664684  0.24921813  0.69361266  1
  O  O375  1  0.78689797  0.24961568  0.94071515  1
  O  O376  1  0.78724690  0.58501881  0.19266383  1
  O  O377  1  0.78657211  0.58525098  0.44264079  1
  O  O378  1  0.78598150  0.58406166  0.69323176  1
  O  O379  1  0.78623893  0.58289127  0.94064085  1
  O  O380  1  0.78680993  0.91681975  0.19258156  1
  O  O381  1  0.78668109  0.91747990  0.44308374  1
  O  O382  1  0.78731945  0.91617148  0.69014933  1
  O  O383  1  0.78720959  0.91526207  0.94211250  1
  O  O384  1  0.22858435  0.24962842  0.05700813  1
  O  O385  1  0.22885071  0.25201673  0.30805527  1
  O  O386  1  0.22740599  0.25043667  0.55905162  1
  O  O387  1  0.22795100  0.24770170  0.80780609  1
  O  O388  1  0.22867066  0.58369352  0.05686625  1
  O  O389  1  0.22771261  0.58325963  0.30965355  1
  O  O390  1  0.22799240  0.58242398  0.55625738  1
  O  O391  1  0.22847663  0.58306609  0.80644261  1
  O  O392  1  0.22731585  0.91662450  0.05977604  1
  O  O393  1  0.22856438  0.91683339  0.30664728  1
  O  O394  1  0.22911878  0.91729103  0.55666119  1
  O  O395  1  0.22901600  0.91763042  0.80673709  1
  O  O396  1  0.72790483  0.25004116  0.05618784  1
  O  O397  1  0.72790266  0.24835035  0.30828391  1
  O  O398  1  0.72850791  0.24920067  0.55688541  1
  O  O399  1  0.72676785  0.24887049  0.80894910  1
  O  O400  1  0.72786430  0.58360810  0.05651654  1
  O  O401  1  0.72799347  0.58603404  0.30808344  1
  O  O402  1  0.72742028  0.58508247  0.55812763  1
  O  O403  1  0.72683425  0.58381812  0.80904189  1
  O  O404  1  0.72765555  0.91478479  0.05735213  1
  O  O405  1  0.72799675  0.91805796  0.30832751  1
  O  O406  1  0.72724256  0.91725020  0.55886158  1
  O  O407  1  0.72826776  0.91608221  0.80555641  1
  O  O408  1  0.27202265  0.08224726  0.19294800  1
  O  O409  1  0.27186756  0.08416223  0.44366343  1
  O  O410  1  0.27292466  0.08543628  0.69247445  1
  O  O411  1  0.27240679  0.08544484  0.94243906  1
  O  O412  1  0.27190282  0.41704951  0.19390311  1
  O  O413  1  0.27300724  0.41600403  0.44080134  1
  O  O414  1  0.27191348  0.41427818  0.69181494  1
  O  O415  1  0.27107512  0.41592779  0.94333472  1
  O  O416  1  0.27217634  0.75178533  0.19231350  1
  O  O417  1  0.27194616  0.74855755  0.44223331  1
  O  O418  1  0.27116757  0.74966987  0.69335478  1
  O  O419  1  0.27163063  0.75053204  0.94381346  1
  O  O420  1  0.77117572  0.08287307  0.19300229  1
  O  O421  1  0.77323154  0.08234189  0.44079954  1
  O  O422  1  0.77238759  0.08090158  0.69193127  1
  O  O423  1  0.77185539  0.08406483  0.94164929  1
  O  O424  1  0.77125635  0.41686759  0.19344325  1
  O  O425  1  0.77116611  0.41707151  0.44358580  1
  O  O426  1  0.77158509  0.41672201  0.69369897  1
  O  O427  1  0.77250423  0.41728356  0.94035795  1
  O  O428  1  0.77226110  0.75210826  0.19174718  1
  O  O429  1  0.77237376  0.74888020  0.44209227  1
  O  O430  1  0.77243771  0.74890015  0.69041992  1
  O  O431  1  0.77148882  0.74806951  0.94118811  1
  O  O432  1  0.02165884  0.08212781  0.18337260  1
  O  O433  1  0.02244367  0.08561968  0.43353549  1
  O  O434  1  0.02265184  0.08415583  0.68481148  1
  O  O435  1  0.02207699  0.08122978  0.93351123  1
  O  O436  1  0.02162175  0.41510322  0.18323406  1
  O  O437  1  0.02149213  0.41824777  0.43363900  1
  O  O438  1  0.02234248  0.41722105  0.68432274  1
  O  O439  1  0.02194426  0.41827166  0.93275768  1
  O  O440  1  0.02208970  0.75141468  0.18281741  1
  O  O441  1  0.02212215  0.74907688  0.43298341  1
  O  O442  1  0.02159690  0.74965039  0.68193091  1
  O  O443  1  0.02167483  0.74881721  0.93308970  1
  O  O444  1  0.52183956  0.08297038  0.18231788  1
  O  O445  1  0.52309223  0.08373163  0.43467758  1
  O  O446  1  0.52368231  0.08365810  0.68410575  1
  O  O447  1  0.52314361  0.08185555  0.93416108  1
  O  O448  1  0.52176585  0.41711967  0.18186549  1
  O  O449  1  0.52300818  0.41752825  0.43471911  1
  O  O450  1  0.52219470  0.41792833  0.68297361  1
  O  O451  1  0.52209133  0.41470420  0.93293806  1
  O  O452  1  0.52316163  0.75034448  0.18468172  1
  O  O453  1  0.52317582  0.75086098  0.43433632  1
  O  O454  1  0.52220278  0.75142402  0.68282390  1
  O  O455  1  0.52206391  0.74857677  0.93284071  1
  O  O456  1  0.47757208  0.25040743  0.06502157  1
  O  O457  1  0.47821270  0.24997666  0.31861800  1
  O  O458  1  0.47739055  0.24908166  0.56620720  1
  O  O459  1  0.47781186  0.24792551  0.81613439  1
  O  O460  1  0.47804728  0.58492993  0.06661484  1
  O  O461  1  0.47779049  0.58541353  0.31713433  1
  O  O462  1  0.47733962  0.58298868  0.56526370  1
  O  O463  1  0.47777737  0.58176602  0.81603519  1
  O  O464  1  0.47815624  0.91815327  0.06635304  1
  O  O465  1  0.47803583  0.91451071  0.31705868  1
  O  O466  1  0.47742646  0.91602964  0.56568172  1
  O  O467  1  0.47739821  0.91574567  0.81504007  1
  O  O468  1  0.97848457  0.24994245  0.06806408  1
  O  O469  1  0.97778217  0.25181994  0.31704323  1
  O  O470  1  0.97730511  0.24882481  0.56741269  1
  O  O471  1  0.97683837  0.24923858  0.81599610  1
  O  O472  1  0.97698465  0.58317967  0.06521182  1
  O  O473  1  0.97810569  0.58354884  0.31812033  1
  O  O474  1  0.97710126  0.58243689  0.56556601  1
  O  O475  1  0.97780395  0.58124429  0.81682080  1
  O  O476  1  0.97744299  0.91832585  0.06669650  1
  O  O477  1  0.97711268  0.91737144  0.31603620  1
  O  O478  1  0.97889290  0.91724698  0.56835187  1
  O  O479  1  0.97792245  0.91818674  0.81693537  1
  O  O480  1  0.07407392  0.31329882  0.07489800  1
  O  O481  1  0.07226977  0.31566963  0.32483041  1
  O  O482  1  0.07261848  0.31236097  0.57608770  1
  O  O483  1  0.07118471  0.31371239  0.82309014  1
  O  O484  1  0.07173761  0.64719259  0.07342798  1
  O  O485  1  0.07350775  0.64678008  0.32535904  1
  O  O486  1  0.07166691  0.64659998  0.57349185  1
  O  O487  1  0.07287107  0.64555001  0.82494099  1
  O  O488  1  0.07253108  0.98144756  0.07484263  1
  O  O489  1  0.07228117  0.98093756  0.32382772  1
  O  O490  1  0.07434742  0.98077129  0.57545353  1
  O  O491  1  0.07328325  0.98124161  0.82429608  1
  O  O492  1  0.57283388  0.31356669  0.07249565  1
  O  O493  1  0.57371692  0.31312044  0.32624169  1
  O  O494  1  0.57154436  0.31391500  0.57391580  1
  O  O495  1  0.57308853  0.31144834  0.82435010  1
  O  O496  1  0.57279606  0.64886679  0.07359080  1
  O  O497  1  0.57307574  0.64828852  0.32471111  1
  O  O498  1  0.57141800  0.64773703  0.57334718  1
  O  O499  1  0.57341856  0.64484969  0.82386914  1
  O  O500  1  0.57351308  0.98092942  0.07388413  1
  O  O501  1  0.57278865  0.97901773  0.32560695  1
  O  O502  1  0.57178804  0.98029411  0.57332678  1
  O  O503  1  0.57218279  0.97968626  0.82208267  1
  O  O504  1  0.42621015  0.02019396  0.17483929  1
  O  O505  1  0.42873898  0.01897558  0.42739923  1
  O  O506  1  0.42910028  0.01969791  0.67637904  1
  O  O507  1  0.42774607  0.01908270  0.92596832  1
  O  O508  1  0.42639084  0.35338103  0.17541805  1
  O  O509  1  0.42864573  0.35324909  0.42750991  1
  O  O510  1  0.42707821  0.35417049  0.67406906  1
  O  O511  1  0.42722147  0.35119553  0.92461499  1
  O  O512  1  0.42781094  0.68714504  0.17721980  1
  O  O513  1  0.42879497  0.68652188  0.42680993  1
  O  O514  1  0.42680114  0.68791904  0.67403933  1
  O  O515  1  0.42726964  0.68496046  0.92565208  1
  O  O516  1  0.92654434  0.01865993  0.17674269  1
  O  O517  1  0.92727785  0.02146523  0.42590823  1
  O  O518  1  0.92842087  0.01937748  0.67655999  1
  O  O519  1  0.92651998  0.01877865  0.92528667  1
  O  O520  1  0.92648803  0.35228218  0.17564246  1
  O  O521  1  0.92612826  0.35444762  0.42629678  1
  O  O522  1  0.92779939  0.35309124  0.67690093  1
  O  O523  1  0.92704678  0.35380364  0.92425172  1
  O  O524  1  0.92654729  0.68776058  0.17489113  1
  O  O525  1  0.92708435  0.68606499  0.42551707  1
  O  O526  1  0.92617056  0.68607476  0.67457327  1
  O  O527  1  0.92699365  0.68498182  0.92583676  1
  O  O528  1  0.17679325  0.01932774  0.19932499  1
  O  O529  1  0.17644687  0.02075083  0.45119616  1
  O  O530  1  0.17782307  0.02130123  0.70035748  1
  O  O531  1  0.17748160  0.02067210  0.94953344  1
  O  O532  1  0.17649504  0.35371004  0.20125374  1
  O  O533  1  0.17792424  0.35218995  0.44830851  1
  O  O534  1  0.17657486  0.35127891  0.69851258  1
  O  O535  1  0.17532003  0.35310762  0.95007698  1
  O  O536  1  0.17689091  0.68742269  0.19969393  1
  O  O537  1  0.17669354  0.68543820  0.44853511  1
  O  O538  1  0.17539209  0.68670778  0.69994963  1
  O  O539  1  0.17625121  0.68717472  0.95111907  1
  O  O540  1  0.67556844  0.01998735  0.20052148  1
  O  O541  1  0.67789143  0.01901445  0.44822650  1
  O  O542  1  0.67693212  0.01836684  0.69874886  1
  O  O543  1  0.67675608  0.01981491  0.94877755  1
  O  O544  1  0.67576834  0.35353514  0.19995937  1
  O  O545  1  0.67579797  0.35350704  0.45077104  1
  O  O546  1  0.67638290  0.35281141  0.70093261  1
  O  O547  1  0.67828327  0.35260643  0.94745561  1
  O  O548  1  0.67680669  0.68846511  0.19930307  1
  O  O549  1  0.67724465  0.68592185  0.44900015  1
  O  O550  1  0.67671712  0.68597505  0.69759643  1
  O  O551  1  0.67610344  0.68554453  0.94898421  1
  O  O552  1  0.32368731  0.31336161  0.04953966  1
  O  O553  1  0.32445378  0.31456207  0.30182086  1
  O  O554  1  0.32255526  0.31406911  0.55199542  1
  O  O555  1  0.32296016  0.31213799  0.79981684  1
  O  O556  1  0.32441739  0.64655414  0.05042160  1
  O  O557  1  0.32221174  0.64789117  0.30226688  1
  O  O558  1  0.32319839  0.64626589  0.54900094  1
  O  O559  1  0.32410352  0.64622774  0.79968915  1
  O  O560  1  0.32172190  0.98126173  0.05219058  1
  O  O561  1  0.32400426  0.98039842  0.29976435  1
  O  O562  1  0.32499902  0.97990025  0.54986427  1
  O  O563  1  0.32474892  0.98044956  0.80025230  1
  O  O564  1  0.82333008  0.31341129  0.04905771  1
  O  O565  1  0.82299336  0.31268082  0.30083814  1
  O  O566  1  0.82363001  0.31304542  0.54981042  1
  O  O567  1  0.82143697  0.31305420  0.80191904  1
  O  O568  1  0.82343092  0.64647463  0.04867766  1
  O  O569  1  0.82319615  0.64912075  0.30080233  1
  O  O570  1  0.82293590  0.64800933  0.55152307  1
  O  O571  1  0.82212357  0.64715626  0.80155054  1
  O  O572  1  0.82269656  0.97899528  0.05006539  1
  O  O573  1  0.82298536  0.98127539  0.30071429  1
  O  O574  1  0.82294418  0.98002021  0.55166248  1
  O  O575  1  0.82394124  0.97891831  0.79902831  1
  O  O576  1  0.42683595  0.14690455  0.17447806  1
  O  O577  1  0.42747034  0.14638784  0.42738936  1
  O  O578  1  0.42844697  0.14684915  0.67631917  1
  O  O579  1  0.42879767  0.14629094  0.92639788  1
  O  O580  1  0.42635563  0.48026468  0.17457453  1
  O  O581  1  0.42772023  0.48077653  0.42635558  1
  O  O582  1  0.42716189  0.48118739  0.67507668  1
  O  O583  1  0.42669258  0.47834478  0.92489864  1
  O  O584  1  0.42863744  0.81446950  0.17651372  1
  O  O585  1  0.42757553  0.81359876  0.42596901  1
  O  O586  1  0.42725725  0.81484796  0.67529922  1
  O  O587  1  0.42656370  0.81205541  0.92541763  1
  O  O588  1  0.92626804  0.14570351  0.17516779  1
  O  O589  1  0.92740000  0.14858548  0.42610994  1
  O  O590  1  0.92680337  0.14662590  0.67731673  1
  O  O591  1  0.92730064  0.14574665  0.92520254  1
  O  O592  1  0.92643919  0.47945665  0.17535364  1
  O  O593  1  0.92634939  0.48138035  0.42610974  1
  O  O594  1  0.92694672  0.48051315  0.67687970  1
  O  O595  1  0.92664874  0.48077373  0.92533888  1
  O  O596  1  0.92735952  0.81488206  0.17546920  1
  O  O597  1  0.92673836  0.81316948  0.42564204  1
  O  O598  1  0.92627434  0.81294518  0.67384836  1
  O  O599  1  0.92609214  0.81222252  0.92472727  1
  O  O600  1  0.07368646  0.18646158  0.07568265  1
  O  O601  1  0.07347785  0.18852929  0.32524814  1
  O  O602  1  0.07222115  0.18545912  0.57496474  1
  O  O603  1  0.07238018  0.18621744  0.82391238  1
  O  O604  1  0.07202107  0.51954818  0.07353851  1
  O  O605  1  0.07348022  0.52016174  0.32573657  1
  O  O606  1  0.07248605  0.51912746  0.57329746  1
  O  O607  1  0.07324225  0.51873360  0.82396676  1
  O  O608  1  0.07266430  0.85455929  0.07524781  1
  O  O609  1  0.07180772  0.85333430  0.32304361  1
  O  O610  1  0.07431848  0.85399339  0.57570651  1
  O  O611  1  0.07292425  0.85403167  0.82540937  1
  O  O612  1  0.57203326  0.18602310  0.07263261  1
  O  O613  1  0.57339226  0.18636558  0.32598756  1
  O  O614  1  0.57326935  0.18650486  0.57377000  1
  O  O615  1  0.57280169  0.18459654  0.82412365  1
  O  O616  1  0.57359882  0.52171618  0.07520205  1
  O  O617  1  0.57289627  0.52135602  0.32486629  1
  O  O618  1  0.57309702  0.52038528  0.57325175  1
  O  O619  1  0.57226580  0.51773990  0.82366555  1
  O  O620  1  0.57317371  0.85398785  0.07386306  1
  O  O621  1  0.57342776  0.85206160  0.32464614  1
  O  O622  1  0.57289286  0.85315179  0.57353624  1
  O  O623  1  0.57248214  0.85237427  0.82333899  1
  O  O624  1  0.32433670  0.18654122  0.05032444  1
  O  O625  1  0.32385991  0.18739346  0.30123398  1
  O  O626  1  0.32237182  0.18681198  0.55172095  1
  O  O627  1  0.32343337  0.18519913  0.80073476  1
  O  O628  1  0.32392413  0.51965807  0.05040191  1
  O  O629  1  0.32320910  0.52034319  0.30213550  1
  O  O630  1  0.32364122  0.51955182  0.54863512  1
  O  O631  1  0.32375289  0.51911258  0.79971343  1
  O  O632  1  0.32272808  0.85366545  0.05207281  1
  O  O633  1  0.32418346  0.85371907  0.29937001  1
  O  O634  1  0.32400990  0.85277817  0.54985485  1
  O  O635  1  0.32409867  0.85350573  0.80040445  1
  O  O636  1  0.82343013  0.18667938  0.04937244  1
  O  O637  1  0.82317762  0.18538687  0.30118039  1
  O  O638  1  0.82427458  0.18620410  0.55042322  1
  O  O639  1  0.82201518  0.18548482  0.80165933  1
  O  O640  1  0.82303908  0.51981610  0.04921115  1
  O  O641  1  0.82311129  0.52179066  0.30075153  1
  O  O642  1  0.82242571  0.52105286  0.55047465  1
  O  O643  1  0.82155425  0.51976620  0.80121248  1
  O  O644  1  0.82290428  0.85172245  0.05067900  1
  O  O645  1  0.82343299  0.85438841  0.30101586  1
  O  O646  1  0.82137283  0.85256184  0.55104775  1
  O  O647  1  0.82348134  0.85229302  0.79832217  1
  O  O648  1  0.17678589  0.14656926  0.20004810  1
  O  O649  1  0.17628905  0.14760167  0.45052478  1
  O  O650  1  0.17744797  0.14829208  0.69902524  1
  O  O651  1  0.17684042  0.14770904  0.94960259  1
  O  O652  1  0.17641300  0.48046125  0.20142829  1
  O  O653  1  0.17801088  0.47955149  0.44904105  1
  O  O654  1  0.17679642  0.47844199  0.69874119  1
  O  O655  1  0.17600115  0.48006470  0.94964287  1
  O  O656  1  0.17690102  0.81454204  0.19979134  1
  O  O657  1  0.17664174  0.81269456  0.44917842  1
  O  O658  1  0.17603105  0.81378274  0.69996919  1
  O  O659  1  0.17601375  0.81407610  0.95048636  1
  O  O660  1  0.67589747  0.14665569  0.20041846  1
  O  O661  1  0.67855207  0.14639194  0.44885481  1
  O  O662  1  0.67726605  0.14532073  0.69870980  1
  O  O663  1  0.67656543  0.14707137  0.94798972  1
  O  O664  1  0.67593269  0.48062885  0.19994825  1
  O  O665  1  0.67578595  0.48053713  0.45053587  1
  O  O666  1  0.67588151  0.47960826  0.70090839  1
  O  O667  1  0.67686845  0.48004045  0.94787785  1
  O  O668  1  0.67742845  0.81552838  0.19914393  1
  O  O669  1  0.67725146  0.81282622  0.45021054  1
  O  O670  1  0.67820585  0.81332067  0.69757768  1
  O  O671  1  0.67637667  0.81250265  0.94798047  1
