# generated using pymatgen
data_Na2MnFe(PO4)2
_symmetry_space_group_name_H-M   'P 1'
_cell_length_a   22.34559459
_cell_length_b   20.09726715
_cell_length_c   19.44675337
_cell_angle_alpha   89.94279092
_cell_angle_beta   89.98949595
_cell_angle_gamma   90.01226979
_symmetry_Int_Tables_number   1
_chemical_formula_structural   Na2MnFe(PO4)2
_chemical_formula_sum   'Na96 Mn48 Fe48 P96 O384'
_cell_volume   8733.24800593
_cell_formula_units_Z   48
loop_
 _symmetry_equiv_pos_site_id
 _symmetry_equiv_pos_as_xyz
  1  'x, y, z'
loop_
 _atom_site_type_symbol
 _atom_site_label
 _atom_site_symmetry_multiplicity
 _atom_site_fract_x
 _atom_site_fract_y
 _atom_site_fract_z
 _atom_site_occupancy
  Na  Na0  1  0.14043214  0.24948911  0.24250391  1
  Na  Na1  1  0.14025745  0.24885052  0.49371074  1
  Na  Na2  1  0.13989826  0.24947163  0.74263068  1
  Na  Na3  1  0.14001566  0.25011701  0.99310148  1
  Na  Na4  1  0.13979292  0.58299306  0.24288036  1
  Na  Na5  1  0.13980939  0.58333097  0.49331296  1
  Na  Na6  1  0.14079081  0.58437913  0.74394644  1
  Na  Na7  1  0.14014090  0.58392627  0.99381293  1
  Na  Na8  1  0.13994587  0.91797863  0.24265618  1
  Na  Na9  1  0.13964123  0.91710159  0.49382713  1
  Na  Na10  1  0.14036678  0.91767538  0.74218793  1
  Na  Na11  1  0.14039876  0.91708507  0.99404956  1
  Na  Na12  1  0.64064930  0.25154183  0.24287338  1
  Na  Na13  1  0.64102200  0.25008525  0.49406914  1
  Na  Na14  1  0.64073817  0.24978588  0.74581666  1
  Na  Na15  1  0.64035204  0.24993981  0.99457961  1
  Na  Na16  1  0.64013128  0.58270527  0.24266639  1
  Na  Na17  1  0.64056543  0.58278893  0.49366890  1
  Na  Na18  1  0.64069380  0.58364804  0.74343405  1
  Na  Na19  1  0.64029741  0.58194882  0.99385562  1
  Na  Na20  1  0.64050864  0.91746816  0.24425899  1
  Na  Na21  1  0.64033215  0.91730132  0.49449379  1
  Na  Na22  1  0.64094424  0.91622215  0.74331956  1
  Na  Na23  1  0.64133106  0.91677602  0.99516657  1
  Na  Na24  1  0.35896592  0.08424118  0.00737413  1
  Na  Na25  1  0.35950849  0.08314925  0.25541759  1
  Na  Na26  1  0.35921246  0.08163164  0.50639915  1
  Na  Na27  1  0.35942389  0.08341132  0.75545255  1
  Na  Na28  1  0.35952747  0.41647363  0.00702709  1
  Na  Na29  1  0.36027928  0.41609425  0.25593750  1
  Na  Na30  1  0.35953830  0.41672801  0.50542899  1
  Na  Na31  1  0.35892111  0.41730126  0.75645847  1
  Na  Na32  1  0.35943915  0.74979431  0.00620990  1
  Na  Na33  1  0.35900711  0.75073768  0.25591821  1
  Na  Na34  1  0.35880111  0.74994261  0.50640922  1
  Na  Na35  1  0.35923327  0.74957172  0.75603470  1
  Na  Na36  1  0.86031845  0.08400987  0.00701508  1
  Na  Na37  1  0.85974475  0.08358867  0.25725813  1
  Na  Na38  1  0.86046684  0.08252236  0.50755671  1
  Na  Na39  1  0.86030260  0.08371652  0.75734203  1
  Na  Na40  1  0.85971734  0.41535153  0.00711837  1
  Na  Na41  1  0.86027842  0.41658426  0.25561712  1
  Na  Na42  1  0.85978957  0.41701121  0.50537944  1
  Na  Na43  1  0.85961865  0.41603088  0.75595083  1
  Na  Na44  1  0.86026904  0.74871862  0.00756356  1
  Na  Na45  1  0.86003570  0.75021070  0.25659056  1
  Na  Na46  1  0.85941580  0.75031321  0.50704501  1
  Na  Na47  1  0.85967310  0.75055454  0.75532622  1
  Na  Na48  1  0.10981611  0.08263986  0.11818865  1
  Na  Na49  1  0.10967414  0.08265660  0.36851174  1
  Na  Na50  1  0.10982407  0.08323125  0.61804732  1
  Na  Na51  1  0.10961248  0.08422129  0.86729336  1
  Na  Na52  1  0.10972474  0.41624089  0.11841554  1
  Na  Na53  1  0.10944396  0.41753879  0.36783749  1
  Na  Na54  1  0.10948228  0.41658852  0.61830161  1
  Na  Na55  1  0.10950930  0.41648436  0.86829467  1
  Na  Na56  1  0.10963554  0.75035189  0.11915420  1
  Na  Na57  1  0.10872099  0.74991459  0.36803445  1
  Na  Na58  1  0.10949919  0.75193851  0.61846744  1
  Na  Na59  1  0.10978707  0.75052540  0.86885239  1
  Na  Na60  1  0.60979135  0.08429158  0.11903258  1
  Na  Na61  1  0.60964861  0.08390362  0.36934321  1
  Na  Na62  1  0.61016042  0.08299792  0.61956935  1
  Na  Na63  1  0.61012160  0.08417433  0.87010822  1
  Na  Na64  1  0.60966782  0.41626021  0.11793102  1
  Na  Na65  1  0.60986071  0.41667255  0.36820849  1
  Na  Na66  1  0.61012607  0.41680829  0.61894232  1
  Na  Na67  1  0.61019856  0.41608852  0.87038154  1
  Na  Na68  1  0.60962504  0.74954556  0.11918746  1
  Na  Na69  1  0.60957095  0.75075300  0.36893275  1
  Na  Na70  1  0.60989476  0.74999047  0.61721925  1
  Na  Na71  1  0.60980775  0.74909275  0.86952547  1
  Na  Na72  1  0.38988093  0.25021830  0.13140263  1
  Na  Na73  1  0.39069094  0.25030605  0.38038260  1
  Na  Na74  1  0.39029672  0.24959363  0.63071213  1
  Na  Na75  1  0.38972913  0.25030153  0.88224532  1
  Na  Na76  1  0.39064289  0.58221431  0.13049447  1
  Na  Na77  1  0.38993234  0.58208667  0.38063485  1
  Na  Na78  1  0.38984155  0.58249401  0.63063461  1
  Na  Na79  1  0.39010328  0.58247129  0.88231976  1
  Na  Na80  1  0.38986246  0.91671043  0.13150171  1
  Na  Na81  1  0.38953113  0.91777917  0.38073852  1
  Na  Na82  1  0.38956129  0.91690965  0.63112180  1
  Na  Na83  1  0.39046161  0.91659019  0.88151316  1
  Na  Na84  1  0.89007771  0.24944376  0.13214650  1
  Na  Na85  1  0.89070341  0.25016512  0.38074283  1
  Na  Na86  1  0.89116842  0.24892362  0.63186504  1
  Na  Na87  1  0.89010741  0.24995718  0.88165883  1
  Na  Na88  1  0.89129616  0.58329419  0.13224760  1
  Na  Na89  1  0.89049668  0.58334702  0.38049127  1
  Na  Na90  1  0.89003856  0.58427397  0.63148700  1
  Na  Na91  1  0.89038198  0.58339339  0.88037554  1
  Na  Na92  1  0.89093473  0.91552268  0.13287460  1
  Na  Na93  1  0.89023433  0.91629541  0.38177837  1
  Na  Na94  1  0.89029419  0.91809726  0.63229249  1
  Na  Na95  1  0.89093621  0.91669611  0.88064113  1
  Mn  Mn96  1  0.50007485  0.49941175  0.75092221  1
  Mn  Mn97  1  0.00044645  0.66776081  0.75016479  1
  Mn  Mn98  1  0.24986363  0.66633190  0.62511661  1
  Mn  Mn99  1  0.75017298  0.66739439  0.37464106  1
  Mn  Mn100  1  0.49903369  0.83420056  0.49906213  1
  Mn  Mn101  1  0.75017897  0.49945966  0.37440345  1
  Mn  Mn102  1  0.24961264  0.33340645  0.62467808  1
  Mn  Mn103  1  0.25037701  0.66707431  0.12494493  1
  Mn  Mn104  1  -0.00069353  0.50062764  0.49930239  1
  Mn  Mn105  1  0.75108707  0.00035251  0.87597977  1
  Mn  Mn106  1  0.50058885  0.83256388  0.00079147  1
  Mn  Mn107  1  -0.00042454  0.83404054  0.49952214  1
  Mn  Mn108  1  0.24925010  0.83448426  0.37533219  1
  Mn  Mn109  1  0.25000195  0.33312628  0.37478897  1
  Mn  Mn110  1  0.00043836  0.00032362  -0.00008828  1
  Mn  Mn111  1  0.75101243  0.33357450  0.62526586  1
  Mn  Mn112  1  0.25043605  0.16553589  0.37370442  1
  Mn  Mn113  1  0.49941175  0.66552695  0.49877564  1
  Mn  Mn114  1  0.50029823  0.83300896  0.74999810  1
  Mn  Mn115  1  0.74996908  -0.00028906  0.37554759  1
  Mn  Mn116  1  0.75077707  0.00029656  0.12561862  1
  Mn  Mn117  1  -0.00032268  0.33251956  -0.00052857  1
  Mn  Mn118  1  0.49939514  0.83388654  0.24945694  1
  Mn  Mn119  1  0.75099190  0.16634225  0.62534870  1
  Mn  Mn120  1  0.49994357  0.16695499  0.75037649  1
  Mn  Mn121  1  0.75120361  0.49894606  0.87453283  1
  Mn  Mn122  1  0.75025299  0.66622000  0.87501458  1
  Mn  Mn123  1  0.50053864  0.33430604  0.50037304  1
  Mn  Mn124  1  0.75020940  0.83294707  0.87470475  1
  Mn  Mn125  1  0.49942598  0.66552440  0.24951172  1
  Mn  Mn126  1  0.50062777  0.00039564  0.00027010  1
  Mn  Mn127  1  0.00019760  0.16577576  0.25046807  1
  Mn  Mn128  1  0.25019307  0.49948274  0.12424061  1
  Mn  Mn129  1  0.24977829  0.33341998  0.87435131  1
  Mn  Mn130  1  0.50029765  0.16661438  0.49989863  1
  Mn  Mn131  1  0.00043804  0.83293183  0.00062623  1
  Mn  Mn132  1  0.50002750  0.16679508  0.25037432  1
  Mn  Mn133  1  0.25033121  0.00092432  0.87421371  1
  Mn  Mn134  1  0.24895251  0.66603719  0.37540108  1
  Mn  Mn135  1  0.49970344  0.33349636  0.75064654  1
  Mn  Mn136  1  0.25045014  0.83344300  0.87471686  1
  Mn  Mn137  1  0.50006196  0.00030744  0.75081552  1
  Mn  Mn138  1  0.00053584  0.49965239  0.75011570  1
  Mn  Mn139  1  0.74995902  0.66657294  0.12531212  1
  Mn  Mn140  1  0.50012966  0.66584702  0.74980850  1
  Mn  Mn141  1  -0.00029895  0.50040812  -0.00023452  1
  Mn  Mn142  1  0.75019214  0.16757418  0.37597600  1
  Mn  Mn143  1  -0.00010026  0.33261254  0.49934864  1
  Fe  Fe144  1  -0.00021190  0.83396974  0.74982817  1
  Fe  Fe145  1  0.25014794  0.16626451  0.62403571  1
  Fe  Fe146  1  -0.00018480  0.66693713  0.49936138  1
  Fe  Fe147  1  0.24989308  0.00067860  0.12415530  1
  Fe  Fe148  1  0.75022337  0.83320258  0.12547828  1
  Fe  Fe149  1  0.24959573  0.33348171  0.12464751  1
  Fe  Fe150  1  0.49965060  0.49961212  0.49936283  1
  Fe  Fe151  1  0.00024862  0.00074523  0.75003332  1
  Fe  Fe152  1  0.49981143  0.33334003  0.00088113  1
  Fe  Fe153  1  -0.00002529  0.16674585  -0.00035132  1
  Fe  Fe154  1  0.24958475  0.66711241  0.87496578  1
  Fe  Fe155  1  0.74986060  0.49983222  0.62496562  1
  Fe  Fe156  1  0.74982702  0.33286383  0.87596862  1
  Fe  Fe157  1  0.24951484  0.16709035  0.12453047  1
  Fe  Fe158  1  0.00043545  0.50025074  0.24963968  1
  Fe  Fe159  1  0.00076985  0.33285526  0.24992406  1
  Fe  Fe160  1  0.75017763  0.83330739  0.62507247  1
  Fe  Fe161  1  0.24965255  0.83387042  0.12502220  1
  Fe  Fe162  1  0.00052952  0.16614402  0.50019676  1
  Fe  Fe163  1  0.50023940  0.49949297  0.00041521  1
  Fe  Fe164  1  0.24980824  0.16712126  0.87486602  1
  Fe  Fe165  1  0.24978629  -0.00009784  0.62480135  1
  Fe  Fe166  1  0.50041324  0.49946736  0.24935377  1
  Fe  Fe167  1  0.00004717  0.66659211  0.25003242  1
  Fe  Fe168  1  0.50044939  0.33362761  0.24976163  1
  Fe  Fe169  1  0.00000078  0.83307683  0.25056241  1
  Fe  Fe170  1  0.75016191  0.33391398  0.37423925  1
  Fe  Fe171  1  0.49928003  0.16697272  0.00071828  1
  Fe  Fe172  1  0.50013304  0.00049026  0.24982980  1
  Fe  Fe173  1  -0.00035464  0.33263552  0.74942766  1
  Fe  Fe174  1  0.24933041  0.49937812  0.37454060  1
  Fe  Fe175  1  0.75053016  0.49939897  0.12454245  1
  Fe  Fe176  1  0.00013368  0.66701748  0.00046657  1
  Fe  Fe177  1  0.74987033  0.66695002  0.62431250  1
  Fe  Fe178  1  0.24953583  0.00000559  0.37433961  1
  Fe  Fe179  1  0.74982798  -0.00023268  0.62591122  1
  Fe  Fe180  1  0.49962904  0.00026879  0.49990258  1
  Fe  Fe181  1  -0.00050117  0.00003907  0.25045352  1
  Fe  Fe182  1  0.75045186  0.33324182  0.12463708  1
  Fe  Fe183  1  0.75003203  0.83375321  0.37608428  1
  Fe  Fe184  1  0.24944488  0.83342573  0.62502633  1
  Fe  Fe185  1  0.49986257  0.66595761  -0.00001155  1
  Fe  Fe186  1  0.24943273  0.50033187  0.87522593  1
  Fe  Fe187  1  0.75019585  0.16684242  0.87619235  1
  Fe  Fe188  1  -0.00000779  0.00026715  0.50050742  1
  Fe  Fe189  1  -0.00001003  0.16660797  0.74977528  1
  Fe  Fe190  1  0.75011281  0.16742705  0.12586260  1
  Fe  Fe191  1  0.24961593  0.50016630  0.62538668  1
  P  P192  1  0.04192608  0.24853232  0.10249501  1
  P  P193  1  0.04280509  0.25042892  0.35236206  1
  P  P194  1  0.04210250  0.24829806  0.60287370  1
  P  P195  1  0.04136718  0.24965707  0.85132133  1
  P  P196  1  0.04203424  0.58465346  0.10315014  1
  P  P197  1  0.04131936  0.58384225  0.35155064  1
  P  P198  1  0.04182974  0.58496921  0.60203060  1
  P  P199  1  0.04296194  0.58388479  0.85351992  1
  P  P200  1  0.04245860  0.91660709  0.10413148  1
  P  P201  1  0.04104117  0.91709022  0.35190502  1
  P  P202  1  0.04165096  0.91838021  0.60309662  1
  P  P203  1  0.04179023  0.91692612  0.85125438  1
  P  P204  1  0.54109572  0.25040497  0.10238715  1
  P  P205  1  0.54272934  0.25151154  0.35221122  1
  P  P206  1  0.54349729  0.25014025  0.60333090  1
  P  P207  1  0.54204503  0.25023273  0.85495403  1
  P  P208  1  0.54156691  0.58261137  0.10175929  1
  P  P209  1  0.54222389  0.58135476  0.35215519  1
  P  P210  1  0.54223364  0.58160202  0.60181875  1
  P  P211  1  0.54295835  0.58280738  0.85436302  1
  P  P212  1  0.54303655  0.91712509  0.10394169  1
  P  P213  1  0.54166852  0.91859495  0.35259143  1
  P  P214  1  0.54196689  0.91790981  0.60223960  1
  P  P215  1  0.54352519  0.91644456  0.85357598  1
  P  P216  1  0.45796438  0.08300023  0.14727918  1
  P  P217  1  0.45763632  0.08228702  0.39711732  1
  P  P218  1  0.45730325  0.08311188  0.64658165  1
  P  P219  1  0.45728520  0.08469611  0.89835396  1
  P  P220  1  0.45903232  0.41641229  0.14756483  1
  P  P221  1  0.45790616  0.41760093  0.39635122  1
  P  P222  1  0.45687838  0.41694688  0.64680585  1
  P  P223  1  0.45819329  0.41622843  0.89935300  1
  P  P224  1  0.45686500  0.74905718  0.14629563  1
  P  P225  1  0.45634532  0.74988556  0.39626855  1
  P  P226  1  0.45695319  0.74962411  0.64651492  1
  P  P227  1  0.45769218  0.74854897  0.89777324  1
  P  P228  1  0.95765009  0.08203840  0.14774706  1
  P  P229  1  0.95865708  0.08299795  0.39860564  1
  P  P230  1  0.95886135  0.08364811  0.64798598  1
  P  P231  1  0.95825141  0.08481020  0.89686037  1
  P  P232  1  0.95930855  0.41623899  0.14842767  1
  P  P233  1  0.95767443  0.41661119  0.39545061  1
  P  P234  1  0.95789602  0.41535297  0.64732282  1
  P  P235  1  0.95713261  0.41619861  0.89630440  1
  P  P236  1  0.95882342  0.74958506  0.14871320  1
  P  P237  1  0.95766000  0.74883294  0.39676018  1
  P  P238  1  0.95794753  0.75196122  0.64713549  1
  P  P239  1  0.95784949  0.74933735  0.89769201  1
  P  P240  1  0.20841897  0.08333792  0.22591693  1
  P  P241  1  0.20801744  0.08178282  0.47743362  1
  P  P242  1  0.20858138  0.08387879  0.72610652  1
  P  P243  1  0.20787837  0.08493707  0.97753005  1
  P  P244  1  0.20781760  0.41560122  0.22734066  1
  P  P245  1  0.20735987  0.41763499  0.47761502  1
  P  P246  1  0.20745955  0.41815524  0.72777677  1
  P  P247  1  0.20752281  0.41734334  0.97732665  1
  P  P248  1  0.20753175  0.75153225  0.22748676  1
  P  P249  1  0.20657429  0.75040500  0.47857540  1
  P  P250  1  0.20767709  0.75094007  0.72765425  1
  P  P251  1  0.20776047  0.74961977  0.97784054  1
  P  P252  1  0.70800321  0.08494768  0.22794996  1
  P  P253  1  0.70766270  0.08282542  0.47916867  1
  P  P254  1  0.70845241  0.08269619  0.72852481  1
  P  P255  1  0.70845812  0.08488763  0.97883167  1
  P  P256  1  0.70883676  0.41624779  0.22621028  1
  P  P257  1  0.70805970  0.41568089  0.47740361  1
  P  P258  1  0.70791870  0.41729606  0.72792999  1
  P  P259  1  0.70872144  0.41515158  0.97858377  1
  P  P260  1  0.70772107  0.75163927  0.22816416  1
  P  P261  1  0.70778612  0.75127765  0.47834669  1
  P  P262  1  0.70836164  0.74984216  0.72608559  1
  P  P263  1  0.70773988  0.74987555  0.97876571  1
  P  P264  1  0.29086868  0.25014729  0.02287529  1
  P  P265  1  0.29250048  0.24985042  0.27047448  1
  P  P266  1  0.29229174  0.24868588  0.52207816  1
  P  P267  1  0.29178060  0.24847592  0.77175670  1
  P  P268  1  0.29246814  0.58348993  0.02084588  1
  P  P269  1  0.29173746  0.58200247  0.27255198  1
  P  P270  1  0.29144853  0.58150796  0.52220472  1
  P  P271  1  0.29135699  0.58343195  0.77360701  1
  P  P272  1  0.29135135  0.91681657  0.02322759  1
  P  P273  1  0.29149946  0.91833659  0.27138545  1
  P  P274  1  0.29070410  0.91657866  0.52310454  1
  P  P275  1  0.29266287  0.91696443  0.77085839  1
  P  P276  1  0.79169880  0.24960457  0.02322860  1
  P  P277  1  0.79214354  0.25157912  0.27190559  1
  P  P278  1  0.79371683  0.25039435  0.52178215  1
  P  P279  1  0.79163213  0.24997365  0.77429375  1
  P  P280  1  0.79284385  0.58173810  0.02279523  1
  P  P281  1  0.79240161  0.58306591  0.27114426  1
  P  P282  1  0.79136287  0.58310350  0.52318781  1
  P  P283  1  0.79281454  0.58339672  0.77058806  1
  P  P284  1  0.79335132  0.91544978  0.02330538  1
  P  P285  1  0.79218975  0.91525749  0.27280286  1
  P  P286  1  0.79161570  0.91640127  0.52374578  1
  P  P287  1  0.79275182  0.91690322  0.77138184  1
  O  O288  1  0.03697071  0.24925058  0.18244388  1
  O  O289  1  0.03756653  0.24969739  0.43226873  1
  O  O290  1  0.03647706  0.24865765  0.68275297  1
  O  O291  1  0.03628609  0.24924656  0.93131723  1
  O  O292  1  0.03659259  0.58426766  0.18306982  1
  O  O293  1  0.03621574  0.58398372  0.43150865  1
  O  O294  1  0.03695302  0.58458424  0.68199977  1
  O  O295  1  0.03758409  0.58426340  0.93346284  1
  O  O296  1  0.03700470  0.91674004  0.18398525  1
  O  O297  1  0.03616701  0.91736634  0.43190993  1
  O  O298  1  0.03660198  0.91815204  0.68295692  1
  O  O299  1  0.03719513  0.91706323  0.93128924  1
  O  O300  1  0.53640409  0.25067005  0.18240178  1
  O  O301  1  0.53774754  0.25137975  0.43216103  1
  O  O302  1  0.53836439  0.25010974  0.68334209  1
  O  O303  1  0.53639308  0.25003199  0.93487489  1
  O  O304  1  0.53657521  0.58183444  0.18174154  1
  O  O305  1  0.53697710  0.58109832  0.43209760  1
  O  O306  1  0.53741681  0.58197002  0.68185205  1
  O  O307  1  0.53783328  0.58309844  0.93430201  1
  O  O308  1  0.53754007  0.91768755  0.18388534  1
  O  O309  1  0.53601240  0.91876690  0.43254279  1
  O  O310  1  0.53723756  0.91728580  0.68227289  1
  O  O311  1  0.53864393  0.91621714  0.93358901  1
  O  O312  1  0.46336643  0.08396419  0.06737697  1
  O  O313  1  0.46301611  0.08225285  0.31713977  1
  O  O314  1  0.46245200  0.08275632  0.56659118  1
  O  O315  1  0.46201025  0.08445344  0.81832474  1
  O  O316  1  0.46425581  0.41634313  0.06766331  1
  O  O317  1  0.46339872  0.41722623  0.31644733  1
  O  O318  1  0.46177775  0.41748769  0.56681163  1
  O  O319  1  0.46242037  0.41652309  0.81931186  1
  O  O320  1  0.46237921  0.74858897  0.06636556  1
  O  O321  1  0.46144225  0.74996129  0.31628643  1
  O  O322  1  0.46149634  0.74968683  0.56646646  1
  O  O323  1  0.46299820  0.74894013  0.81776457  1
  O  O324  1  0.96260612  0.08268072  0.06783935  1
  O  O325  1  0.96371043  0.08239603  0.31863873  1
  O  O326  1  0.96375216  0.08339586  0.56806251  1
  O  O327  1  0.96358717  0.08496351  0.81697662  1
  O  O328  1  0.96399060  0.41647951  0.06839872  1
  O  O329  1  0.96334393  0.41655906  0.31558443  1
  O  O330  1  0.96291481  0.41558206  0.56731981  1
  O  O331  1  0.96240627  0.41559650  0.81636435  1
  O  O332  1  0.96356026  0.74956714  0.06872946  1
  O  O333  1  0.96325140  0.74888316  0.31690510  1
  O  O334  1  0.96300618  0.75145873  0.56720884  1
  O  O335  1  0.96312031  0.75044022  0.81776936  1
  O  O336  1  0.21314276  0.08482866  0.05740998  1
  O  O337  1  0.21316408  0.08255823  0.30587159  1
  O  O338  1  0.21328345  0.08214341  0.55728593  1
  O  O339  1  0.21320808  0.08394880  0.80608858  1
  O  O340  1  0.21277967  0.41631235  0.05727942  1
  O  O341  1  0.21277234  0.41609227  0.30731073  1
  O  O342  1  0.21261448  0.41775821  0.55761207  1
  O  O343  1  0.21296608  0.41816577  0.80772415  1
  O  O344  1  0.21306357  0.75041887  0.05780747  1
  O  O345  1  0.21253812  0.75108450  0.30746847  1
  O  O346  1  0.21185635  0.75065289  0.55853089  1
  O  O347  1  0.21321095  0.75016874  0.80759630  1
  O  O348  1  0.71370831  0.08498389  0.05879242  1
  O  O349  1  0.71304990  0.08466425  0.30793353  1
  O  O350  1  0.71290829  0.08215514  0.55912303  1
  O  O351  1  0.71365156  0.08333100  0.80851752  1
  O  O352  1  0.71425968  0.41559118  0.05846791  1
  O  O353  1  0.71343041  0.41592734  0.30623725  1
  O  O354  1  0.71336465  0.41651380  0.55732145  1
  O  O355  1  0.71336669  0.41645181  0.80787016  1
  O  O356  1  0.71277495  0.75026544  0.05874391  1
  O  O357  1  0.71313058  0.75173950  0.30813044  1
  O  O358  1  0.71326654  0.75083403  0.55824231  1
  O  O359  1  0.71314704  0.74936540  0.80610655  1
  O  O360  1  0.28693345  0.25016248  0.19057798  1
  O  O361  1  0.28722824  0.24896348  0.44209763  1
  O  O362  1  0.28652477  0.24844509  0.69182198  1
  O  O363  1  0.28624630  0.25027796  0.94284384  1
  O  O364  1  0.28680056  0.58255315  0.19257056  1
  O  O365  1  0.28587989  0.58129457  0.44230532  1
  O  O366  1  0.28622712  0.58306457  0.69358323  1
  O  O367  1  0.28695256  0.58365125  0.94097471  1
  O  O368  1  0.28627335  0.91789969  0.19150265  1
  O  O369  1  0.28588399  0.91734371  0.44311243  1
  O  O370  1  0.28720324  0.91676884  0.69098446  1
  O  O371  1  0.28685754  0.91709635  0.94320370  1
  O  O372  1  0.78667991  0.25115855  0.19199331  1
  O  O373  1  0.78849266  0.25083755  0.44185966  1
  O  O374  1  0.78678151  0.24995080  0.69431774  1
  O  O375  1  0.78629040  0.24944013  0.94333045  1
  O  O376  1  0.78715575  0.58252691  0.19122436  1
  O  O377  1  0.78649550  0.58351184  0.44316582  1
  O  O378  1  0.78729193  0.58350995  0.69069177  1
  O  O379  1  0.78803760  0.58197825  0.94275595  1
  O  O380  1  0.78695041  0.91540920  0.19287423  1
  O  O381  1  0.78664084  0.91610908  0.44372444  1
  O  O382  1  0.78721063  0.91718095  0.69146703  1
  O  O383  1  0.78812398  0.91598236  0.94332189  1
  O  O384  1  0.22666801  0.24966594  0.05867430  1
  O  O385  1  0.22833476  0.24959230  0.30629159  1
  O  O386  1  0.22799333  0.24852912  0.55765682  1
  O  O387  1  0.22754610  0.24868055  0.80765398  1
  O  O388  1  0.22830895  0.58348730  0.05669701  1
  O  O389  1  0.22732686  0.58153836  0.30790370  1
  O  O390  1  0.22731751  0.58181001  0.55831458  1
  O  O391  1  0.22721310  0.58363791  0.80970755  1
  O  O392  1  0.22712858  0.91630629  0.05884416  1
  O  O393  1  0.22729225  0.91855877  0.30746284  1
  O  O394  1  0.22660725  0.91592869  0.55915409  1
  O  O395  1  0.22843052  0.91704139  0.80657780  1
  O  O396  1  0.72766491  0.25000688  0.05972687  1
  O  O397  1  0.72804296  0.25175694  0.30816969  1
  O  O398  1  0.72937933  0.25013164  0.55706819  1
  O  O399  1  0.72748262  0.25004445  0.81029544  1
  O  O400  1  0.72840776  0.58178231  0.05798415  1
  O  O401  1  0.72817711  0.58338097  0.30666291  1
  O  O402  1  0.72722978  0.58230245  0.55908416  1
  O  O403  1  0.72870894  0.58285753  0.80663032  1
  O  O404  1  0.72898674  0.91543219  0.05881132  1
  O  O405  1  0.72796387  0.91505645  0.30867854  1
  O  O406  1  0.72746844  0.91613453  0.55981601  1
  O  O407  1  0.72863017  0.91719498  0.80732438  1
  O  O408  1  0.27255257  0.08434544  0.19002930  1
  O  O409  1  0.27218121  0.08123414  0.44129374  1
  O  O410  1  0.27270753  0.08398912  0.69017453  1
  O  O411  1  0.27207870  0.08530394  0.94149014  1
  O  O412  1  0.27213095  0.41525995  0.19181748  1
  O  O413  1  0.27161346  0.41799546  0.44178714  1
  O  O414  1  0.27162542  0.41800734  0.69174745  1
  O  O415  1  0.27174749  0.41770370  0.94157660  1
  O  O416  1  0.27182934  0.75205548  0.19190107  1
  O  O417  1  0.27083456  0.75022558  0.44310843  1
  O  O418  1  0.27178092  0.75139842  0.69154026  1
  O  O419  1  0.27197016  0.74891163  0.94200472  1
  O  O420  1  0.77235707  0.08502462  0.19256772  1
  O  O421  1  0.77196856  0.08329288  0.44377646  1
  O  O422  1  0.77268188  0.08208006  0.69273797  1
  O  O423  1  0.77270125  0.08500261  0.94304273  1
  O  O424  1  0.77315920  0.41609057  0.19066019  1
  O  O425  1  0.77232341  0.41496431  0.44156419  1
  O  O426  1  0.77215944  0.41841958  0.69199976  1
  O  O427  1  0.77275165  0.41439362  0.94224046  1
  O  O428  1  0.77196246  0.75133558  0.19228357  1
  O  O429  1  0.77195765  0.75171407  0.44215820  1
  O  O430  1  0.77258663  0.75056474  0.69036827  1
  O  O431  1  0.77211709  0.74967171  0.94352107  1
  O  O432  1  0.02201165  0.08134740  0.18325107  1
  O  O433  1  0.02283373  0.08336344  0.43460244  1
  O  O434  1  0.02294763  0.08434095  0.68410995  1
  O  O435  1  0.02239757  0.08515834  0.93298258  1
  O  O436  1  0.02344569  0.41584116  0.18419760  1
  O  O437  1  0.02171535  0.41687261  0.43157147  1
  O  O438  1  0.02219301  0.41482872  0.68286326  1
  O  O439  1  0.02143554  0.41650093  0.93166174  1
  O  O440  1  0.02294248  0.74928837  0.18463352  1
  O  O441  1  0.02174334  0.74889788  0.43301990  1
  O  O442  1  0.02219074  0.75252379  0.68291369  1
  O  O443  1  0.02217876  0.74850077  0.93341181  1
  O  O444  1  0.52213728  0.08247308  0.18325478  1
  O  O445  1  0.52188824  0.08206235  0.43290379  1
  O  O446  1  0.52166739  0.08342898  0.68188878  1
  O  O447  1  0.52179706  0.08503064  0.93325897  1
  O  O448  1  0.52308346  0.41659379  0.18394812  1
  O  O449  1  0.52208707  0.41839812  0.43248080  1
  O  O450  1  0.52139391  0.41652410  0.68172311  1
  O  O451  1  0.52257096  0.41544872  0.93451675  1
  O  O452  1  0.52113276  0.74943588  0.18174965  1
  O  O453  1  0.52077276  0.75006449  0.43122317  1
  O  O454  1  0.52157693  0.74945009  0.68110766  1
  O  O455  1  0.52200707  0.74795289  0.93336143  1
  O  O456  1  0.47688134  0.25069835  0.06662109  1
  O  O457  1  0.47838590  0.25150346  0.31680202  1
  O  O458  1  0.47906279  0.25021245  0.56830482  1
  O  O459  1  0.47786282  0.25024047  0.81902458  1
  O  O460  1  0.47747744  0.58337619  0.06574234  1
  O  O461  1  0.47791792  0.58090952  0.31655310  1
  O  O462  1  0.47777815  0.58117366  0.56656702  1
  O  O463  1  0.47854462  0.58290871  0.81906034  1
  O  O464  1  0.47874454  0.91683295  0.06857665  1
  O  O465  1  0.47750260  0.91871907  0.31659122  1
  O  O466  1  0.47751867  0.91838485  0.56702864  1
  O  O467  1  0.47892352  0.91635186  0.81893804  1
  O  O468  1  0.97760057  0.24818752  0.06690215  1
  O  O469  1  0.97854493  0.25086368  0.31661804  1
  O  O470  1  0.97806158  0.24781329  0.56652622  1
  O  O471  1  0.97717561  0.24966485  0.81536565  1
  O  O472  1  0.97792981  0.58507718  0.06687532  1
  O  O473  1  0.97726737  0.58401267  0.31544652  1
  O  O474  1  0.97746222  0.58524895  0.56657822  1
  O  O475  1  0.97871886  0.58364375  0.81802341  1
  O  O476  1  0.97836013  0.91670236  0.06815972  1
  O  O477  1  0.97689126  0.91744566  0.31603961  1
  O  O478  1  0.97750542  0.91844832  0.56699759  1
  O  O479  1  0.97754992  0.91655047  0.81568124  1
  O  O480  1  0.07306965  0.31192078  0.07401033  1
  O  O481  1  0.07363008  0.31401543  0.32396027  1
  O  O482  1  0.07325721  0.31190689  0.57483252  1
  O  O483  1  0.07184102  0.31373038  0.82335827  1
  O  O484  1  0.07296745  0.64813998  0.07457760  1
  O  O485  1  0.07286012  0.64706665  0.32339506  1
  O  O486  1  0.07247137  0.64862616  0.57365302  1
  O  O487  1  0.07424462  0.64708903  0.82499576  1
  O  O488  1  0.07381443  0.97976683  0.07530899  1
  O  O489  1  0.07246089  0.98028179  0.32342584  1
  O  O490  1  0.07247327  0.98187216  0.57424544  1
  O  O491  1  0.07211869  0.98096854  0.82299605  1
  O  O492  1  0.57242179  0.31366855  0.07394319  1
  O  O493  1  0.57339154  0.31495736  0.32339408  1
  O  O494  1  0.57454481  0.31363413  0.57519631  1
  O  O495  1  0.57320644  0.31370912  0.82664356  1
  O  O496  1  0.57284897  0.64623104  0.07414854  1
  O  O497  1  0.57280682  0.64554134  0.32467791  1
  O  O498  1  0.57287901  0.64543729  0.57372951  1
  O  O499  1  0.57421960  0.64592923  0.82526231  1
  O  O500  1  0.57445124  0.98028778  0.07547755  1
  O  O501  1  0.57293777  0.98179527  0.32396835  1
  O  O502  1  0.57281441  0.98148086  0.57401029  1
  O  O503  1  0.57421597  0.98025007  0.82564790  1
  O  O504  1  0.42709958  0.01927764  0.17517895  1
  O  O505  1  0.42646260  0.01915544  0.42598076  1
  O  O506  1  0.42624331  0.01982249  0.67523268  1
  O  O507  1  0.42640659  0.02089663  0.92619627  1
  O  O508  1  0.42822198  0.35274665  0.17611079  1
  O  O509  1  0.42711506  0.35383470  0.42463573  1
  O  O510  1  0.42591128  0.35325747  0.67486129  1
  O  O511  1  0.42668157  0.35299695  0.92755047  1
  O  O512  1  0.42564845  0.68575942  0.17472306  1
  O  O513  1  0.42552254  0.68618824  0.42426324  1
  O  O514  1  0.42599668  0.68608562  0.67485166  1
  O  O515  1  0.42665723  0.68511664  0.92595178  1
  O  O516  1  0.92662905  0.01862912  0.17629842  1
  O  O517  1  0.92777261  0.01948140  0.42725010  1
  O  O518  1  0.92869926  0.01974874  0.67708284  1
  O  O519  1  0.92730917  0.02096409  0.92466672  1
  O  O520  1  0.92817728  0.35264128  0.17628142  1
  O  O521  1  0.92651354  0.35324615  0.42393022  1
  O  O522  1  0.92696797  0.35180108  0.67563816  1
  O  O523  1  0.92603621  0.35295144  0.92511266  1
  O  O524  1  0.92725561  0.68636320  0.17683397  1
  O  O525  1  0.92684333  0.68537725  0.42568266  1
  O  O526  1  0.92696062  0.68838681  0.67528970  1
  O  O527  1  0.92693785  0.68570270  0.92582016  1
  O  O528  1  0.17819958  0.01961011  0.19688501  1
  O  O529  1  0.17686271  0.01853148  0.44868694  1
  O  O530  1  0.17827049  0.01980854  0.69785337  1
  O  O531  1  0.17695508  0.02118955  0.94947798  1
  O  O532  1  0.17711868  0.35199734  0.19882498  1
  O  O533  1  0.17671070  0.35355729  0.45016411  1
  O  O534  1  0.17640693  0.35437694  0.70019543  1
  O  O535  1  0.17615958  0.35410260  0.94891336  1
  O  O536  1  0.17682669  0.68769001  0.19978572  1
  O  O537  1  0.17558332  0.68678656  0.45056834  1
  O  O538  1  0.17645744  0.68749368  0.69963823  1
  O  O539  1  0.17685358  0.68610446  0.94957053  1
  O  O540  1  0.67701663  0.02130654  0.20018654  1
  O  O541  1  0.67658234  0.01966688  0.45034256  1
  O  O542  1  0.67754683  0.01913587  0.70018492  1
  O  O543  1  0.67753849  0.02103550  0.95126091  1
  O  O544  1  0.67760374  0.35306944  0.19764703  1
  O  O545  1  0.67718414  0.35215552  0.44911566  1
  O  O546  1  0.67722444  0.35354805  0.69990082  1
  O  O547  1  0.67746125  0.35178562  0.95028590  1
  O  O548  1  0.67651327  0.68786806  0.20072261  1
  O  O549  1  0.67679477  0.68765832  0.45010106  1
  O  O550  1  0.67816984  0.68593205  0.69748327  1
  O  O551  1  0.67683625  0.68620077  0.95077424  1
  O  O552  1  0.32095407  0.31426763  0.05126229  1
  O  O553  1  0.32374863  0.31299209  0.29926676  1
  O  O554  1  0.32322285  0.31238765  0.54988108  1
  O  O555  1  0.32288816  0.31228177  0.79931320  1
  O  O556  1  0.32378351  0.64659713  0.04958023  1
  O  O557  1  0.32251269  0.64573321  0.30051218  1
  O  O558  1  0.32267007  0.64531860  0.54957241  1
  O  O559  1  0.32200027  0.64740685  0.80131420  1
  O  O560  1  0.32154114  0.98091341  0.05140048  1
  O  O561  1  0.32226418  0.98182653  0.30008241  1
  O  O562  1  0.32118900  0.98023045  0.55190663  1
  O  O563  1  0.32380902  0.98038551  0.79925783  1
  O  O564  1  0.82302487  0.31310932  0.05123352  1
  O  O565  1  0.82294541  0.31510147  0.30037961  1
  O  O566  1  0.82497056  0.31352099  0.55041092  1
  O  O567  1  0.82229338  0.31377247  0.80219838  1
  O  O568  1  0.82395644  0.64520747  0.05076892  1
  O  O569  1  0.82344732  0.64669090  0.29895839  1
  O  O570  1  0.82143230  0.64727112  0.55135812  1
  O  O571  1  0.82373248  0.64692291  0.79913961  1
  O  O572  1  0.82440267  0.97910985  0.05105885  1
  O  O573  1  0.82291170  0.97925521  0.30049912  1
  O  O574  1  0.82196715  0.98045647  0.55176343  1
  O  O575  1  0.82442230  0.97984793  0.80005027  1
  O  O576  1  0.42686108  0.14641022  0.17550584  1
  O  O577  1  0.42691405  0.14634953  0.42449196  1
  O  O578  1  0.42628283  0.14669861  0.67457215  1
  O  O579  1  0.42654493  0.14808268  0.92713371  1
  O  O580  1  0.42791030  0.47996722  0.17571330  1
  O  O581  1  0.42659833  0.48073900  0.42500285  1
  O  O582  1  0.42589504  0.48005395  0.67587471  1
  O  O583  1  0.42836224  0.48032363  0.92797096  1
  O  O584  1  0.42571445  0.81265847  0.17400018  1
  O  O585  1  0.42510338  0.81325685  0.42427948  1
  O  O586  1  0.42624675  0.81313049  0.67496510  1
  O  O587  1  0.42693519  0.81239539  0.92550894  1
  O  O588  1  0.92689731  0.14557385  0.17628220  1
  O  O589  1  0.92789345  0.14687187  0.42628203  1
  O  O590  1  0.92718284  0.14676452  0.67630756  1
  O  O591  1  0.92720503  0.14796295  0.92598464  1
  O  O592  1  0.92904594  0.48029965  0.17651036  1
  O  O593  1  0.92622906  0.47996055  0.42368106  1
  O  O594  1  0.92720441  0.47919937  0.67493838  1
  O  O595  1  0.92605166  0.47972544  0.92430566  1
  O  O596  1  0.92867919  0.81363628  0.17723393  1
  O  O597  1  0.92641120  0.81238149  0.42464657  1
  O  O598  1  0.92723442  0.81551126  0.67562596  1
  O  O599  1  0.92705518  0.81284582  0.92625173  1
  O  O600  1  0.07241272  0.18480887  0.07410437  1
  O  O601  1  0.07385305  0.18689666  0.32423687  1
  O  O602  1  0.07318704  0.18499799  0.57419258  1
  O  O603  1  0.07266863  0.18645706  0.82293362  1
  O  O604  1  0.07306119  0.52098585  0.07516299  1
  O  O605  1  0.07162413  0.51982575  0.32319141  1
  O  O606  1  0.07265159  0.52124377  0.57415023  1
  O  O607  1  0.07392791  0.52023758  0.82558555  1
  O  O608  1  0.07358547  0.85317188  0.07578388  1
  O  O609  1  0.07113417  0.85282611  0.32392271  1
  O  O610  1  0.07282007  0.85501915  0.57467854  1
  O  O611  1  0.07272908  0.85338100  0.82316545  1
  O  O612  1  0.57127960  0.18628911  0.07428770  1
  O  O613  1  0.57376695  0.18777472  0.32468510  1
  O  O614  1  0.57446463  0.18671997  0.57510601  1
  O  O615  1  0.57338600  0.18701024  0.82648673  1
  O  O616  1  0.57196661  0.51879142  0.07314592  1
  O  O617  1  0.57364633  0.51852669  0.32305293  1
  O  O618  1  0.57308616  0.51821419  0.57341854  1
  O  O619  1  0.57387814  0.51918304  0.82617287  1
  O  O620  1  0.57408096  0.85343430  0.07634629  1
  O  O621  1  0.57255036  0.85461561  0.32528559  1
  O  O622  1  0.57263737  0.85423491  0.57398567  1
  O  O623  1  0.57452773  0.85312483  0.82506230  1
  O  O624  1  0.32228581  0.18694652  0.05119232  1
  O  O625  1  0.32378345  0.18633872  0.29851081  1
  O  O626  1  0.32309660  0.18509354  0.55021701  1
  O  O627  1  0.32255299  0.18523034  0.80086846  1
  O  O628  1  0.32361054  0.51993823  0.04906271  1
  O  O629  1  0.32251549  0.51835782  0.30061218  1
  O  O630  1  0.32236888  0.51831833  0.55121000  1
  O  O631  1  0.32224435  0.51984048  0.80200216  1
  O  O632  1  0.32245389  0.85331850  0.05129941  1
  O  O633  1  0.32269189  0.85494059  0.29992108  1
  O  O634  1  0.32180423  0.85285715  0.55081636  1
  O  O635  1  0.32398608  0.85374116  0.79952392  1
  O  O636  1  0.82247252  0.18605637  0.05206635  1
  O  O637  1  0.82344305  0.18806452  0.29999682  1
  O  O638  1  0.82463900  0.18672811  0.54989900  1
  O  O639  1  0.82241863  0.18622743  0.80230852  1
  O  O640  1  0.82338618  0.51800937  0.05118214  1
  O  O641  1  0.82364697  0.51986883  0.29972787  1
  O  O642  1  0.82275132  0.51966226  0.55094104  1
  O  O643  1  0.82446711  0.52021881  0.79892000  1
  O  O644  1  0.82392117  0.85178791  0.05164089  1
  O  O645  1  0.82330966  0.85214426  0.30159465  1
  O  O646  1  0.82294308  0.85306762  0.55199763  1
  O  O647  1  0.82363065  0.85315478  0.79943087  1
  O  O648  1  0.17697580  0.14684219  0.19818084  1
  O  O649  1  0.17721364  0.14544953  0.44899213  1
  O  O650  1  0.17743380  0.14716854  0.69754706  1
  O  O651  1  0.17693821  0.14822699  0.94851330  1
  O  O652  1  0.17665653  0.47903126  0.19912612  1
  O  O653  1  0.17611605  0.48068538  0.44862906  1
  O  O654  1  0.17653701  0.48154490  0.69925734  1
  O  O655  1  0.17675755  0.48114755  0.94945023  1
  O  O656  1  0.17666396  0.81505023  0.19926172  1
  O  O657  1  0.17528764  0.81363523  0.45011002  1
  O  O658  1  0.17678659  0.81458890  0.69959797  1
  O  O659  1  0.17673609  0.81317569  0.94959939  1
  O  O660  1  0.67725636  0.14853842  0.19959528  1
  O  O661  1  0.67646690  0.14643378  0.45140948  1
  O  O662  1  0.67740423  0.14625973  0.70037838  1
  O  O663  1  0.67743815  0.14810960  0.94994695  1
  O  O664  1  0.67858738  0.48035349  0.19796678  1
  O  O665  1  0.67720706  0.47923170  0.44892586  1
  O  O666  1  0.67680152  0.48070574  0.69960779  1
  O  O667  1  0.67781234  0.47874579  0.95032587  1
  O  O668  1  0.67693813  0.81497337  0.19935088  1
  O  O669  1  0.67666911  0.81469135  0.44993559  1
  O  O670  1  0.67712336  0.81340487  0.69838775  1
  O  O671  1  0.67660515  0.81314559  0.95012209  1
