# generated using pymatgen
data_Na2MnFe(PO4)2
_symmetry_space_group_name_H-M   'P 1'
_cell_length_a   22.34785517
_cell_length_b   20.09638972
_cell_length_c   19.44613215
_cell_angle_alpha   90.07102713
_cell_angle_beta   90.01694968
_cell_angle_gamma   89.94409087
_symmetry_Int_Tables_number   1
_chemical_formula_structural   Na2MnFe(PO4)2
_chemical_formula_sum   'Na96 Mn48 Fe48 P96 O384'
_cell_volume   8733.46463391
_cell_formula_units_Z   48
loop_
 _symmetry_equiv_pos_site_id
 _symmetry_equiv_pos_as_xyz
  1  'x, y, z'
loop_
 _atom_site_type_symbol
 _atom_site_label
 _atom_site_symmetry_multiplicity
 _atom_site_fract_x
 _atom_site_fract_y
 _atom_site_fract_z
 _atom_site_occupancy
  Na  Na0  1  0.14080754  0.24970222  0.24424881  1
  Na  Na1  1  0.14008966  0.25096357  0.49316583  1
  Na  Na2  1  0.13977494  0.25090989  0.74165354  1
  Na  Na3  1  0.14053494  0.24926280  0.99323193  1
  Na  Na4  1  0.13992621  0.58355002  0.24433917  1
  Na  Na5  1  0.14048273  0.58434191  0.49237947  1
  Na  Na6  1  0.14091396  0.58269531  0.74235678  1
  Na  Na7  1  0.14025152  0.58156799  0.99434532  1
  Na  Na8  1  0.14035484  0.91711492  0.24451658  1
  Na  Na9  1  0.14068727  0.91707924  0.49350661  1
  Na  Na10  1  0.13990358  0.91715003  0.74396239  1
  Na  Na11  1  0.13966927  0.91758978  0.99435487  1
  Na  Na12  1  0.64018933  0.25063986  0.24475194  1
  Na  Na13  1  0.64017763  0.24963607  0.49475592  1
  Na  Na14  1  0.64008300  0.24954244  0.74386728  1
  Na  Na15  1  0.64031147  0.25008460  0.99330804  1
  Na  Na16  1  0.64058600  0.58413062  0.24377113  1
  Na  Na17  1  0.64019414  0.58259096  0.49414592  1
  Na  Na18  1  0.64065263  0.58232133  0.74324020  1
  Na  Na19  1  0.64041692  0.58419460  0.99323316  1
  Na  Na20  1  0.64030854  0.91562652  0.24413331  1
  Na  Na21  1  0.63984888  0.91482190  0.49398921  1
  Na  Na22  1  0.63967327  0.91522406  0.74308195  1
  Na  Na23  1  0.64043875  0.91568501  0.99349885  1
  Na  Na24  1  0.35929046  0.08292169  0.00463390  1
  Na  Na25  1  0.35958337  0.08232620  0.25699294  1
  Na  Na26  1  0.36008107  0.08365679  0.50778412  1
  Na  Na27  1  0.35996752  0.08380730  0.75635608  1
  Na  Na28  1  0.35984826  0.41584286  0.00514077  1
  Na  Na29  1  0.35977742  0.41845363  0.25616146  1
  Na  Na30  1  0.35965557  0.41879009  0.50791955  1
  Na  Na31  1  0.36009311  0.41680532  0.75568765  1
  Na  Na32  1  0.35953852  0.74982547  0.00666447  1
  Na  Na33  1  0.35921733  0.75076420  0.25778959  1
  Na  Na34  1  0.35933545  0.75099744  0.50647617  1
  Na  Na35  1  0.35952306  0.75050410  0.75568667  1
  Na  Na36  1  0.85941506  0.08226055  0.00667060  1
  Na  Na37  1  0.85992981  0.08439614  0.25688389  1
  Na  Na38  1  0.85994795  0.08373087  0.50713966  1
  Na  Na39  1  0.85988114  0.08290927  0.75813611  1
  Na  Na40  1  0.86009894  0.41728472  0.00626520  1
  Na  Na41  1  0.85982490  0.41753068  0.25623918  1
  Na  Na42  1  0.86043076  0.41666102  0.50651456  1
  Na  Na43  1  0.86062944  0.41583986  0.75541923  1
  Na  Na44  1  0.85925741  0.75014696  0.00575863  1
  Na  Na45  1  0.85970127  0.74936448  0.25518355  1
  Na  Na46  1  0.85994816  0.74860467  0.50560248  1
  Na  Na47  1  0.85935028  0.75035714  0.75464339  1
  Na  Na48  1  0.10989879  0.08324843  0.11985665  1
  Na  Na49  1  0.10958589  0.08368770  0.36947179  1
  Na  Na50  1  0.10932397  0.08374723  0.61929028  1
  Na  Na51  1  0.10893551  0.08322748  0.86828257  1
  Na  Na52  1  0.11001615  0.41739412  0.11919467  1
  Na  Na53  1  0.10988551  0.41721344  0.36892502  1
  Na  Na54  1  0.10968795  0.41623312  0.61656751  1
  Na  Na55  1  0.11009350  0.41536183  0.86799482  1
  Na  Na56  1  0.10946132  0.74978136  0.11977928  1
  Na  Na57  1  0.11005729  0.74948226  0.36767105  1
  Na  Na58  1  0.10980400  0.74907461  0.61733236  1
  Na  Na59  1  0.10946529  0.75049307  0.86896034  1
  Na  Na60  1  0.60924495  0.08414165  0.11884082  1
  Na  Na61  1  0.60929636  0.08246950  0.37029148  1
  Na  Na62  1  0.60910735  0.08209119  0.61968179  1
  Na  Na63  1  0.60922128  0.08240810  0.86749187  1
  Na  Na64  1  0.60985797  0.41710741  0.11842342  1
  Na  Na65  1  0.60979000  0.41679556  0.36976848  1
  Na  Na66  1  0.60989464  0.41515172  0.61952769  1
  Na  Na67  1  0.60967293  0.41488081  0.86832446  1
  Na  Na68  1  0.60983584  0.75078683  0.11855093  1
  Na  Na69  1  0.60989606  0.75014062  0.36925998  1
  Na  Na70  1  0.60980807  0.75004419  0.61787942  1
  Na  Na71  1  0.60936036  0.74977237  0.86808739  1
  Na  Na72  1  0.39047751  0.25081568  0.13008109  1
  Na  Na73  1  0.39081247  0.25028149  0.38248454  1
  Na  Na74  1  0.39089274  0.24982888  0.63251405  1
  Na  Na75  1  0.39005357  0.25013473  0.87949705  1
  Na  Na76  1  0.39033287  0.58427039  0.13161567  1
  Na  Na77  1  0.38976534  0.58439368  0.38251770  1
  Na  Na78  1  0.38989447  0.58271096  0.63172938  1
  Na  Na79  1  0.39075307  0.58180891  0.88029493  1
  Na  Na80  1  0.38968473  0.91724791  0.13193073  1
  Na  Na81  1  0.39039753  0.91737443  0.38247370  1
  Na  Na82  1  0.39028998  0.91750089  0.63139917  1
  Na  Na83  1  0.38990381  0.91635614  0.88065548  1
  Na  Na84  1  0.89054563  0.25079568  0.13183149  1
  Na  Na85  1  0.89080890  0.25085692  0.38154984  1
  Na  Na86  1  0.89076294  0.24964336  0.63152951  1
  Na  Na87  1  0.89074675  0.25036289  0.88129735  1
  Na  Na88  1  0.89046525  0.58353464  0.13132145  1
  Na  Na89  1  0.89051884  0.58303590  0.38104816  1
  Na  Na90  1  0.89075026  0.58243888  0.62946540  1
  Na  Na91  1  0.89066493  0.58300971  0.88034393  1
  Na  Na92  1  0.89021295  0.91714982  0.13125027  1
  Na  Na93  1  0.89066770  0.91692646  0.38103666  1
  Na  Na94  1  0.89026703  0.91626961  0.63213528  1
  Na  Na95  1  0.88952053  0.91705107  0.88140196  1
  Mn  Mn96  1  0.74975232  0.50011779  0.12498352  1
  Mn  Mn97  1  0.25020686  0.66624504  0.87555136  1
  Mn  Mn98  1  0.75038661  0.66736344  0.87388424  1
  Mn  Mn99  1  -0.00064918  0.83446341  -0.00016311  1
  Mn  Mn100  1  0.25073255  0.16557092  0.12409172  1
  Mn  Mn101  1  0.00048540  0.66604627  0.74960309  1
  Mn  Mn102  1  0.75018568  0.16682181  0.87572073  1
  Mn  Mn103  1  -0.00020545  0.00106438  0.50070575  1
  Mn  Mn104  1  0.00065012  0.33371944  0.25046474  1
  Mn  Mn105  1  0.00066099  0.83293190  0.49966221  1
  Mn  Mn106  1  0.49975610  0.33416967  0.25104446  1
  Mn  Mn107  1  0.49986054  0.16700919  0.25013288  1
  Mn  Mn108  1  0.74978153  0.16746179  0.12564738  1
  Mn  Mn109  1  0.24914428  0.83417725  0.87557199  1
  Mn  Mn110  1  0.00093558  0.33413134  0.00071632  1
  Mn  Mn111  1  0.49957071  -0.00038782  0.25033815  1
  Mn  Mn112  1  0.24927153  0.16667215  0.87407010  1
  Mn  Mn113  1  -0.00013668  0.66586410  -0.00068316  1
  Mn  Mn114  1  0.00028541  0.16628028  0.00046847  1
  Mn  Mn115  1  0.50006037  0.66675423  0.50063252  1
  Mn  Mn116  1  0.24971453  0.16727582  0.62497483  1
  Mn  Mn117  1  0.50008070  0.66622904  0.74945754  1
  Mn  Mn118  1  0.75066460  0.83176433  0.37438123  1
  Mn  Mn119  1  0.24967403  0.83379058  0.62509176  1
  Mn  Mn120  1  0.49987055  -0.00015592  -0.00056609  1
  Mn  Mn121  1  0.24969782  0.83410392  0.12617454  1
  Mn  Mn122  1  0.75008695  0.49928214  0.62452844  1
  Mn  Mn123  1  0.00126277  0.49875712  0.74905108  1
  Mn  Mn124  1  0.49991034  0.33330428  0.50104369  1
  Mn  Mn125  1  0.25101651  0.16647649  0.37485374  1
  Mn  Mn126  1  0.50012992  0.50122127  0.24950217  1
  Mn  Mn127  1  0.74992528  0.16749682  0.37596873  1
  Mn  Mn128  1  0.74994207  -0.00133196  0.62576632  1
  Mn  Mn129  1  0.25118044  0.33480488  0.37436522  1
  Mn  Mn130  1  0.75036946  -0.00062280  0.37544148  1
  Mn  Mn131  1  0.74990299  0.16708468  0.62629628  1
  Mn  Mn132  1  0.75072586  0.49932622  0.87435798  1
  Mn  Mn133  1  0.24946321  0.66601843  0.12613224  1
  Mn  Mn134  1  -0.00057715  0.83375626  0.74945535  1
  Mn  Mn135  1  0.25040325  0.49894511  0.87353956  1
  Mn  Mn136  1  0.50026132  0.66837155  0.25134529  1
  Mn  Mn137  1  0.49930967  0.16741553  -0.00106402  1
  Mn  Mn138  1  0.49969365  0.83262139  -0.00006696  1
  Mn  Mn139  1  -0.00010259  0.83376696  0.24986684  1
  Mn  Mn140  1  0.25040760  0.33386646  0.12474532  1
  Mn  Mn141  1  0.74935423  -0.00075656  0.12531985  1
  Mn  Mn142  1  0.75004327  0.49979076  0.37490697  1
  Mn  Mn143  1  0.49999546  0.49988659  -0.00007729  1
  Fe  Fe144  1  0.00016831  0.33256798  0.49939265  1
  Fe  Fe145  1  0.00045080  0.49982809  -0.00012763  1
  Fe  Fe146  1  0.50054939  0.49913895  0.75090272  1
  Fe  Fe147  1  0.24997863  0.66696195  0.37542024  1
  Fe  Fe148  1  0.74979696  0.66650088  0.37442403  1
  Fe  Fe149  1  -0.00013955  0.50005484  0.25042922  1
  Fe  Fe150  1  0.75000345  0.66683931  0.12404620  1
  Fe  Fe151  1  0.75051732  0.83281297  0.12447853  1
  Fe  Fe152  1  0.74927892  0.83288886  0.87478515  1
  Fe  Fe153  1  0.50023339  0.16615621  0.50122845  1
  Fe  Fe154  1  -0.00019309  0.66605459  0.24932822  1
  Fe  Fe155  1  0.24969681  0.00011260  0.87489446  1
  Fe  Fe156  1  0.75010295  0.83256295  0.62470013  1
  Fe  Fe157  1  0.25015483  0.50027977  0.12546668  1
  Fe  Fe158  1  0.50015008  0.49981410  0.50095661  1
  Fe  Fe159  1  0.74940709  -0.00100244  0.87544864  1
  Fe  Fe160  1  0.50026221  0.33256892  0.74948238  1
  Fe  Fe161  1  0.50009106  0.33321251  -0.00097194  1
  Fe  Fe162  1  0.00046082  0.16693655  0.25052294  1
  Fe  Fe163  1  0.75027521  0.33349319  0.37527994  1
  Fe  Fe164  1  0.49992660  0.16605059  0.74993587  1
  Fe  Fe165  1  0.49975024  0.83377156  0.50021661  1
  Fe  Fe166  1  0.24985454  0.50090548  0.62469310  1
  Fe  Fe167  1  0.24987637  -0.00026889  0.12538630  1
  Fe  Fe168  1  0.00012504  0.66593556  0.49862356  1
  Fe  Fe169  1  0.24988444  0.00019975  0.37559065  1
  Fe  Fe170  1  0.25006905  0.00038555  0.62487499  1
  Fe  Fe171  1  0.24954341  0.33338850  0.87422238  1
  Fe  Fe172  1  0.24957361  0.66740967  0.62458885  1
  Fe  Fe173  1  0.49962510  0.83299584  0.74923334  1
  Fe  Fe174  1  -0.00006446  0.33280739  0.74929134  1
  Fe  Fe175  1  0.75011228  0.33323736  0.87544159  1
  Fe  Fe176  1  0.49944905  0.66667428  -0.00034500  1
  Fe  Fe177  1  0.25020399  0.33440984  0.62377463  1
  Fe  Fe178  1  0.75022025  0.66630436  0.62447501  1
  Fe  Fe179  1  0.50015785  -0.00014290  0.50070998  1
  Fe  Fe180  1  -0.00029359  0.00097041  0.25072112  1
  Fe  Fe181  1  0.74997173  0.33366561  0.12523247  1
  Fe  Fe182  1  0.49963151  -0.00069198  0.74912107  1
  Fe  Fe183  1  0.75030556  0.33304205  0.62538142  1
  Fe  Fe184  1  -0.00058511  0.16669529  0.50053747  1
  Fe  Fe185  1  0.49988072  0.83372950  0.25017122  1
  Fe  Fe186  1  -0.00050846  0.00093542  0.00050546  1
  Fe  Fe187  1  -0.00032902  0.16680978  0.75002776  1
  Fe  Fe188  1  0.24994501  0.50111845  0.37590683  1
  Fe  Fe189  1  0.00050487  0.49948654  0.49925492  1
  Fe  Fe190  1  -0.00021003  0.00039704  0.75004069  1
  Fe  Fe191  1  0.25005507  0.83391734  0.37587067  1
  P  P192  1  0.04319917  0.24995229  0.10376026  1
  P  P193  1  0.04240993  0.24901628  0.35349902  1
  P  P194  1  0.04132409  0.24973009  0.60204180  1
  P  P195  1  0.04147638  0.25007770  0.85122392  1
  P  P196  1  0.04190245  0.58213130  0.10312460  1
  P  P197  1  0.04109631  0.58328936  0.35200870  1
  P  P198  1  0.04176870  0.58284530  0.60043931  1
  P  P199  1  0.04350909  0.58226657  0.85281122  1
  P  P200  1  0.04163501  0.91892078  0.10319179  1
  P  P201  1  0.04206203  0.91832039  0.35258003  1
  P  P202  1  0.04268787  0.91723015  0.60349976  1
  P  P203  1  0.04150623  0.91845870  0.85267257  1
  P  P204  1  0.54228547  0.25162846  0.10192714  1
  P  P205  1  0.54254753  0.24977532  0.35432721  1
  P  P206  1  0.54202993  0.24822599  0.60388155  1
  P  P207  1  0.54125564  0.24957070  0.85139791  1
  P  P208  1  0.54228611  0.58544258  0.10224506  1
  P  P209  1  0.54279301  0.58349942  0.35410906  1
  P  P210  1  0.54210960  0.58153341  0.60339433  1
  P  P211  1  0.54261708  0.58205548  0.85270779  1
  P  P212  1  0.54253040  0.91641209  0.10319964  1
  P  P213  1  0.54211432  0.91531699  0.35340201  1
  P  P214  1  0.54109721  0.91636336  0.60242099  1
  P  P215  1  0.54073126  0.91584691  0.85085748  1
  P  P216  1  0.45680018  0.08367332  0.14692736  1
  P  P217  1  0.45860634  0.08330058  0.39940122  1
  P  P218  1  0.45883565  0.08320265  0.64779195  1
  P  P219  1  0.45729966  0.08306565  0.89524124  1
  P  P220  1  0.45732993  0.41700441  0.14645190  1
  P  P221  1  0.45749344  0.41828667  0.39851928  1
  P  P222  1  0.45921118  0.41684814  0.64853014  1
  P  P223  1  0.45823235  0.41507597  0.89631172  1
  P  P224  1  0.45714229  0.75146916  0.14780077  1
  P  P225  1  0.45783490  0.75183848  0.39796686  1
  P  P226  1  0.45779156  0.75127721  0.64682885  1
  P  P227  1  0.45731034  0.74845247  0.89685394  1
  P  P228  1  0.95836744  0.08376660  0.14868868  1
  P  P229  1  0.95753551  0.08496171  0.39726565  1
  P  P230  1  0.95803108  0.08378696  0.64857775  1
  P  P231  1  0.95753133  0.08252746  0.89712598  1
  P  P232  1  0.95812982  0.41837458  0.14766948  1
  P  P233  1  0.95896764  0.41668170  0.39799461  1
  P  P234  1  0.95861652  0.41452100  0.64604252  1
  P  P235  1  0.95828795  0.41720385  0.89716035  1
  P  P236  1  0.95800260  0.74908814  0.14732306  1
  P  P237  1  0.95842928  0.74841364  0.39640214  1
  P  P238  1  0.95781396  0.74890929  0.64564949  1
  P  P239  1  0.95694459  0.75023242  0.89652533  1
  P  P240  1  0.20834691  0.08183350  0.22803673  1
  P  P241  1  0.20824142  0.08266863  0.47794346  1
  P  P242  1  0.20799100  0.08225166  0.72748032  1
  P  P243  1  0.20722643  0.08192670  0.97731006  1
  P  P244  1  0.20809614  0.41867856  0.22801701  1
  P  P245  1  0.20832247  0.41857695  0.47795782  1
  P  P246  1  0.20861233  0.41668827  0.72562980  1
  P  P247  1  0.20775470  0.41557799  0.97710999  1
  P  P248  1  0.20719699  0.75027308  0.22980389  1
  P  P249  1  0.20849468  0.75024565  0.47693757  1
  P  P250  1  0.20723426  0.74927671  0.72730916  1
  P  P251  1  0.20677199  0.74998923  0.97876374  1
  P  P252  1  0.70691315  0.08356845  0.22860236  1
  P  P253  1  0.70739037  0.08296941  0.47890035  1
  P  P254  1  0.70752666  0.08251245  0.72925880  1
  P  P255  1  0.70742460  0.08189006  0.97750939  1
  P  P256  1  0.70772094  0.41558960  0.22794034  1
  P  P257  1  0.70810795  0.41505870  0.47797496  1
  P  P258  1  0.70824357  0.41481639  0.72788260  1
  P  P259  1  0.70793583  0.41556943  0.97773526  1
  P  P260  1  0.70859286  0.74941533  0.22616889  1
  P  P261  1  0.70806840  0.74808581  0.47791623  1
  P  P262  1  0.70824448  0.74984008  0.72615818  1
  P  P263  1  0.70758025  0.75093227  0.97744945  1
  P  P264  1  0.29257411  0.25001197  0.02071881  1
  P  P265  1  0.29364004  0.25018771  0.27166297  1
  P  P266  1  0.29280081  0.25157965  0.52259426  1
  P  P267  1  0.29134175  0.25181522  0.77132153  1
  P  P268  1  0.29233317  0.58175468  0.02289461  1
  P  P269  1  0.29142207  0.58338756  0.27387064  1
  P  P270  1  0.29106572  0.58443776  0.52294066  1
  P  P271  1  0.29279402  0.58364805  0.77064262  1
  P  P272  1  0.29190182  0.91810699  0.02257404  1
  P  P273  1  0.29147486  0.91713216  0.27409490  1
  P  P274  1  0.29179793  0.91813543  0.52218829  1
  P  P275  1  0.29172841  0.91823592  0.77217645  1
  P  P276  1  0.79232345  0.25153635  0.02260761  1
  P  P277  1  0.79245498  0.25184718  0.27262445  1
  P  P278  1  0.79227357  0.25130228  0.52285226  1
  P  P279  1  0.79226792  0.25143197  0.77280729  1
  P  P280  1  0.79249626  0.58442070  0.02217109  1
  P  P281  1  0.79200694  0.58463096  0.27194812  1
  P  P282  1  0.79188161  0.58410490  0.52182222  1
  P  P283  1  0.79303412  0.58337467  0.77068897  1
  P  P284  1  0.79175652  0.91513725  0.02175746  1
  P  P285  1  0.79305638  0.91572560  0.27138892  1
  P  P286  1  0.79264781  0.91447942  0.52274758  1
  P  P287  1  0.79088328  0.91552259  0.77326336  1
  O  O288  1  0.03816457  0.24971716  0.18370359  1
  O  O289  1  0.03661359  0.24927868  0.43336853  1
  O  O290  1  0.03613534  0.25004125  0.68197216  1
  O  O291  1  0.03714251  0.24992270  0.93124911  1
  O  O292  1  0.03618776  0.58256546  0.18302714  1
  O  O293  1  0.03605015  0.58373633  0.43192942  1
  O  O294  1  0.03749256  0.58254316  0.68045241  1
  O  O295  1  0.03829395  0.58189737  0.93275602  1
  O  O296  1  0.03607984  0.91890547  0.18314612  1
  O  O297  1  0.03701599  0.91792632  0.43256209  1
  O  O298  1  0.03730839  0.91749010  0.68345089  1
  O  O299  1  0.03615965  0.91871542  0.93263906  1
  O  O300  1  0.53721863  0.25142019  0.18192140  1
  O  O301  1  0.53727265  0.24923711  0.43430072  1
  O  O302  1  0.53638837  0.24827903  0.68375977  1
  O  O303  1  0.53628950  0.25048796  0.93135491  1
  O  O304  1  0.53737436  0.58556586  0.18226961  1
  O  O305  1  0.53768111  0.58286386  0.43409839  1
  O  O306  1  0.53684433  0.58142646  0.68332665  1
  O  O307  1  0.53702958  0.58297332  0.93261492  1
  O  O308  1  0.53748124  0.91612825  0.18317646  1
  O  O309  1  0.53681071  0.91540341  0.43331552  1
  O  O310  1  0.53598982  0.91637448  0.68231309  1
  O  O311  1  0.53611660  0.91597023  0.93082918  1
  O  O312  1  0.46175971  0.08362401  0.06693093  1
  O  O313  1  0.46304097  0.08293493  0.31937676  1
  O  O314  1  0.46400538  0.08325796  0.56790117  1
  O  O315  1  0.46269143  0.08281977  0.81532987  1
  O  O316  1  0.46247605  0.41660264  0.06648127  1
  O  O317  1  0.46245465  0.41820208  0.31852793  1
  O  O318  1  0.46392889  0.41714134  0.56853090  1
  O  O319  1  0.46386442  0.41538128  0.81643985  1
  O  O320  1  0.46191833  0.75042120  0.06780560  1
  O  O321  1  0.46287097  0.75203982  0.31799114  1
  O  O322  1  0.46325202  0.75153045  0.56692560  1
  O  O323  1  0.46265360  0.74885786  0.81692746  1
  O  O324  1  0.96337480  0.08320545  0.06866824  1
  O  O325  1  0.96308184  0.08465649  0.31739391  1
  O  O326  1  0.96268993  0.08461591  0.56858636  1
  O  O327  1  0.96277730  0.08270351  0.81724125  1
  O  O328  1  0.96345001  0.41832355  0.06773436  1
  O  O329  1  0.96385335  0.41720347  0.31803234  1
  O  O330  1  0.96385673  0.41448888  0.56618332  1
  O  O331  1  0.96347694  0.41605082  0.81717357  1
  O  O332  1  0.96291763  0.74947327  0.06736072  1
  O  O333  1  0.96365772  0.74827223  0.31642451  1
  O  O334  1  0.96347797  0.74855319  0.56568898  1
  O  O335  1  0.96211977  0.75028441  0.81654144  1
  O  O336  1  0.21270146  0.08198024  0.05727092  1
  O  O337  1  0.21383333  0.08197073  0.30797752  1
  O  O338  1  0.21343464  0.08278934  0.55790742  1
  O  O339  1  0.21322740  0.08216019  0.80741746  1
  O  O340  1  0.21294731  0.41631332  0.05701362  1
  O  O341  1  0.21357372  0.41907919  0.30795557  1
  O  O342  1  0.21358071  0.41813600  0.55785811  1
  O  O343  1  0.21314473  0.41622257  0.80565153  1
  O  O344  1  0.21192606  0.75013959  0.05878661  1
  O  O345  1  0.21249867  0.75035910  0.30972835  1
  O  O346  1  0.21320104  0.74979449  0.55696191  1
  O  O347  1  0.21230021  0.74957908  0.80728254  1
  O  O348  1  0.71231790  0.08222886  0.05752524  1
  O  O349  1  0.71223990  0.08367517  0.30858727  1
  O  O350  1  0.71249896  0.08294403  0.55891110  1
  O  O351  1  0.71284807  0.08213960  0.80921621  1
  O  O352  1  0.71291042  0.41574007  0.05775547  1
  O  O353  1  0.71325075  0.41569963  0.30788877  1
  O  O354  1  0.71349865  0.41504545  0.55792883  1
  O  O355  1  0.71343620  0.41487905  0.80783859  1
  O  O356  1  0.71300481  0.75076494  0.05730677  1
  O  O357  1  0.71377619  0.74878608  0.30614859  1
  O  O358  1  0.71354617  0.74840600  0.55777461  1
  O  O359  1  0.71318788  0.75056546  0.80613446  1
  O  O360  1  0.28831166  0.24989432  0.19169995  1
  O  O361  1  0.28830427  0.25111115  0.44256778  1
  O  O362  1  0.28609169  0.25197056  0.69136862  1
  O  O363  1  0.28671237  0.25036847  0.94077331  1
  O  O364  1  0.28643495  0.58284084  0.19389781  1
  O  O365  1  0.28607897  0.58396462  0.44299900  1
  O  O366  1  0.28745725  0.58414271  0.69073477  1
  O  O367  1  0.28746398  0.58190187  0.94289386  1
  O  O368  1  0.28674788  0.91706666  0.19408038  1
  O  O369  1  0.28642013  0.91797320  0.44232439  1
  O  O370  1  0.28661336  0.91821821  0.69219652  1
  O  O371  1  0.28651880  0.91804226  0.94260828  1
  O  O372  1  0.78716098  0.25175145  0.19265093  1
  O  O373  1  0.78706347  0.25134697  0.44289571  1
  O  O374  1  0.78691174  0.25132524  0.69284145  1
  O  O375  1  0.78707164  0.25136090  0.94261438  1
  O  O376  1  0.78661424  0.58452085  0.19199938  1
  O  O377  1  0.78648532  0.58410652  0.44188088  1
  O  O378  1  0.78755731  0.58342204  0.69075338  1
  O  O379  1  0.78764480  0.58397439  0.94216555  1
  O  O380  1  0.78769409  0.91542272  0.19144438  1
  O  O381  1  0.78783500  0.91481104  0.44273625  1
  O  O382  1  0.78610692  0.91516002  0.69323420  1
  O  O383  1  0.78603182  0.91554290  0.94186681  1
  O  O384  1  0.22851096  0.24976388  0.05669641  1
  O  O385  1  0.22930258  0.25042887  0.30691997  1
  O  O386  1  0.22822730  0.25171674  0.55738689  1
  O  O387  1  0.22714793  0.25173134  0.80718097  1
  O  O388  1  0.22792526  0.58155894  0.05823390  1
  O  O389  1  0.22723454  0.58350738  0.30980511  1
  O  O390  1  0.22697921  0.58473192  0.55908905  1
  O  O391  1  0.22858195  0.58330011  0.80635030  1
  O  O392  1  0.22767531  0.91822007  0.05845623  1
  O  O393  1  0.22726125  0.91753491  0.30982498  1
  O  O394  1  0.22769235  0.91831586  0.55831313  1
  O  O395  1  0.22745917  0.91846166  0.80791167  1
  O  O396  1  0.72800610  0.25169711  0.05821669  1
  O  O397  1  0.72820047  0.25205949  0.30839522  1
  O  O398  1  0.72798571  0.25124704  0.55850786  1
  O  O399  1  0.72804095  0.25123037  0.80857549  1
  O  O400  1  0.72813965  0.58466390  0.05759702  1
  O  O401  1  0.72784001  0.58454752  0.30790851  1
  O  O402  1  0.72779337  0.58396096  0.55787428  1
  O  O403  1  0.72883200  0.58305647  0.80629261  1
  O  O404  1  0.72771726  0.91455430  0.05809977  1
  O  O405  1  0.72877299  0.91572622  0.30683367  1
  O  O406  1  0.72818747  0.91431832  0.55788221  1
  O  O407  1  0.72669071  0.91533483  0.80914544  1
  O  O408  1  0.27250229  0.08145498  0.19203042  1
  O  O409  1  0.27254292  0.08206446  0.44235565  1
  O  O410  1  0.27219111  0.08269609  0.69167596  1
  O  O411  1  0.27140974  0.08219147  0.94139293  1
  O  O412  1  0.27225783  0.41854477  0.19204320  1
  O  O413  1  0.27255978  0.41910408  0.44215135  1
  O  O414  1  0.27290027  0.41686996  0.69013728  1
  O  O415  1  0.27199250  0.41460098  0.94117405  1
  O  O416  1  0.27136694  0.75010108  0.19400353  1
  O  O417  1  0.27264267  0.75028167  0.44114313  1
  O  O418  1  0.27157645  0.74905311  0.69183003  1
  O  O419  1  0.27117361  0.75039292  0.94367976  1
  O  O420  1  0.77126627  0.08345612  0.19341809  1
  O  O421  1  0.77180295  0.08326100  0.44386063  1
  O  O422  1  0.77179485  0.08267317  0.69381433  1
  O  O423  1  0.77176484  0.08180929  0.94222610  1
  O  O424  1  0.77190581  0.41569799  0.19196638  1
  O  O425  1  0.77229077  0.41505547  0.44202569  1
  O  O426  1  0.77245402  0.41503632  0.69211783  1
  O  O427  1  0.77231266  0.41532616  0.94227498  1
  O  O428  1  0.77268345  0.74928700  0.18993999  1
  O  O429  1  0.77219114  0.74742528  0.44166758  1
  O  O430  1  0.77244072  0.74989953  0.69025020  1
  O  O431  1  0.77177094  0.75169389  0.94139830  1
  O  O432  1  0.02252712  0.08386081  0.18475005  1
  O  O433  1  0.02165639  0.08537406  0.43354232  1
  O  O434  1  0.02224650  0.08290427  0.68428281  1
  O  O435  1  0.02175750  0.08180424  0.93318555  1
  O  O436  1  0.02234998  0.41841436  0.18354288  1
  O  O437  1  0.02310288  0.41617325  0.43388079  1
  O  O438  1  0.02279556  0.41406028  0.68212104  1
  O  O439  1  0.02261169  0.41821244  0.93286403  1
  O  O440  1  0.02219329  0.74917089  0.18297333  1
  O  O441  1  0.02265319  0.74835681  0.43218960  1
  O  O442  1  0.02198052  0.74976964  0.68136843  1
  O  O443  1  0.02126141  0.75024577  0.93176367  1
  O  O444  1  0.52125855  0.08328899  0.18193964  1
  O  O445  1  0.52286517  0.08384717  0.43496292  1
  O  O446  1  0.52273845  0.08358707  0.68431918  1
  O  O447  1  0.52147163  0.08345158  0.93110753  1
  O  O448  1  0.52169200  0.41714390  0.18180688  1
  O  O449  1  0.52190435  0.41801850  0.43386588  1
  O  O450  1  0.52330798  0.41689459  0.68447017  1
  O  O451  1  0.52223543  0.41507120  0.93281157  1
  O  O452  1  0.52164773  0.75222211  0.18309674  1
  O  O453  1  0.52210642  0.75149106  0.43357157  1
  O  O454  1  0.52199800  0.75114230  0.68270170  1
  O  O455  1  0.52159067  0.74814407  0.93266311  1
  O  O456  1  0.47792443  0.25201980  0.06637648  1
  O  O457  1  0.47819742  0.25010503  0.31893999  1
  O  O458  1  0.47798158  0.24826759  0.56754069  1
  O  O459  1  0.47718576  0.24894981  0.81531915  1
  O  O460  1  0.47789350  0.58501906  0.06688760  1
  O  O461  1  0.47842553  0.58424043  0.31887771  1
  O  O462  1  0.47790026  0.58178520  0.56748811  1
  O  O463  1  0.47844980  0.58169395  0.81670330  1
  O  O464  1  0.47812530  0.91645865  0.06803920  1
  O  O465  1  0.47788609  0.91493929  0.31732249  1
  O  O466  1  0.47709157  0.91634169  0.56611602  1
  O  O467  1  0.47653245  0.91542955  0.81519473  1
  O  O468  1  0.97888091  0.25030193  0.06843905  1
  O  O469  1  0.97843255  0.24892676  0.31696961  1
  O  O470  1  0.97727747  0.24973739  0.56561061  1
  O  O471  1  0.97716958  0.25082055  0.81575883  1
  O  O472  1  0.97788915  0.58146829  0.06656250  1
  O  O473  1  0.97706666  0.58290402  0.31563725  1
  O  O474  1  0.97747456  0.58303455  0.56505348  1
  O  O475  1  0.97915001  0.58209397  0.81750071  1
  O  O476  1  0.97749421  0.91919735  0.06702506  1
  O  O477  1  0.97780408  0.91835635  0.31702942  1
  O  O478  1  0.97837932  0.91674586  0.56816584  1
  O  O479  1  0.97731166  0.91865118  0.81668583  1
  O  O480  1  0.07429145  0.31345694  0.07570979  1
  O  O481  1  0.07375815  0.31254972  0.32572964  1
  O  O482  1  0.07240022  0.31300812  0.57324120  1
  O  O483  1  0.07275843  0.31328535  0.82290850  1
  O  O484  1  0.07285870  0.64582438  0.07518341  1
  O  O485  1  0.07175904  0.64680291  0.32311992  1
  O  O486  1  0.07268687  0.64635173  0.57229543  1
  O  O487  1  0.07415274  0.64611919  0.82496286  1
  O  O488  1  0.07274766  0.98206674  0.07465612  1
  O  O489  1  0.07266366  0.98196591  0.32451031  1
  O  O490  1  0.07358102  0.98067902  0.57526022  1
  O  O491  1  0.07261210  0.98149644  0.82374067  1
  O  O492  1  0.57311790  0.31494415  0.07334425  1
  O  O493  1  0.57341024  0.31351408  0.32657146  1
  O  O494  1  0.57321993  0.31186748  0.57624283  1
  O  O495  1  0.57180180  0.31313784  0.82253435  1
  O  O496  1  0.57250067  0.64906215  0.07349613  1
  O  O497  1  0.57397828  0.64706831  0.32638305  1
  O  O498  1  0.57305395  0.64536889  0.57595971  1
  O  O499  1  0.57387698  0.64528535  0.82428033  1
  O  O500  1  0.57340426  0.98000849  0.07504255  1
  O  O501  1  0.57295176  0.97909989  0.32552939  1
  O  O502  1  0.57171703  0.98013943  0.57393709  1
  O  O503  1  0.57102772  0.97971950  0.82249394  1
  O  O504  1  0.42567692  0.02042666  0.17536313  1
  O  O505  1  0.42860945  0.01926411  0.42791111  1
  O  O506  1  0.42845528  0.01919436  0.67602574  1
  O  O507  1  0.42633819  0.01968805  0.92381024  1
  O  O508  1  0.42610210  0.35397215  0.17519827  1
  O  O509  1  0.42634305  0.35478262  0.42633731  1
  O  O510  1  0.42892282  0.35261934  0.67626317  1
  O  O511  1  0.42745301  0.35157350  0.92475624  1
  O  O512  1  0.42632926  0.68809323  0.17657596  1
  O  O513  1  0.42683547  0.68807129  0.42558344  1
  O  O514  1  0.42680584  0.68748837  0.67418833  1
  O  O515  1  0.42673748  0.68481802  0.92533530  1
  O  O516  1  0.92723073  0.02045479  0.17712703  1
  O  O517  1  0.92652966  0.02132653  0.42535486  1
  O  O518  1  0.92675797  0.02022690  0.67620151  1
  O  O519  1  0.92614727  0.01959517  0.92604365  1
  O  O520  1  0.92727530  0.35460394  0.17543479  1
  O  O521  1  0.92795931  0.35306717  0.42582764  1
  O  O522  1  0.92741959  0.35153020  0.67517710  1
  O  O523  1  0.92764441  0.35373334  0.92593327  1
  O  O524  1  0.92748722  0.68535379  0.17546013  1
  O  O525  1  0.92740467  0.68519476  0.42506570  1
  O  O526  1  0.92700009  0.68544228  0.67390971  1
  O  O527  1  0.92596336  0.68666145  0.92433529  1
  O  O528  1  0.17725499  0.01855179  0.19947312  1
  O  O529  1  0.17685502  0.01960362  0.44929906  1
  O  O530  1  0.17730752  0.01892217  0.69855750  1
  O  O531  1  0.17643337  0.01859230  0.94855437  1
  O  O532  1  0.17704045  0.35479630  0.20065928  1
  O  O533  1  0.17750104  0.35495850  0.44948710  1
  O  O534  1  0.17753838  0.35345300  0.69679091  1
  O  O535  1  0.17669237  0.35206527  0.94878109  1
  O  O536  1  0.17596021  0.68690883  0.20137529  1
  O  O537  1  0.17754036  0.68686075  0.44819011  1
  O  O538  1  0.17643942  0.68586660  0.69864754  1
  O  O539  1  0.17613059  0.68627939  0.95071375  1
  O  O540  1  0.67576323  0.02010069  0.20067395  1
  O  O541  1  0.67672520  0.01922624  0.45086949  1
  O  O542  1  0.67620404  0.01934733  0.70072339  1
  O  O543  1  0.67683426  0.01823365  0.94901771  1
  O  O544  1  0.67682397  0.35229000  0.19923932  1
  O  O545  1  0.67699843  0.35186144  0.44938407  1
  O  O546  1  0.67746766  0.35141205  0.69916490  1
  O  O547  1  0.67707179  0.35224002  0.94887115  1
  O  O548  1  0.67737858  0.68613538  0.19756554  1
  O  O549  1  0.67672318  0.68497100  0.44919057  1
  O  O550  1  0.67780849  0.68573746  0.69836800  1
  O  O551  1  0.67700732  0.68713647  0.94903417  1
  O  O552  1  0.32391131  0.31317829  0.04913854  1
  O  O553  1  0.32470636  0.31377156  0.29947532  1
  O  O554  1  0.32333335  0.31529291  0.55091150  1
  O  O555  1  0.32226633  0.31507202  0.80012678  1
  O  O556  1  0.32301651  0.64550559  0.05106571  1
  O  O557  1  0.32194337  0.64742387  0.30189843  1
  O  O558  1  0.32217345  0.64803693  0.55098174  1
  O  O559  1  0.32392798  0.64680561  0.79965718  1
  O  O560  1  0.32283248  0.98144428  0.05122919  1
  O  O561  1  0.32286860  0.98036887  0.30243965  1
  O  O562  1  0.32280132  0.98144389  0.55105303  1
  O  O563  1  0.32277371  0.98145521  0.80086843  1
  O  O564  1  0.82334673  0.31476700  0.05134486  1
  O  O565  1  0.82355058  0.31511177  0.30124656  1
  O  O566  1  0.82316344  0.31463116  0.55157685  1
  O  O567  1  0.82310869  0.31478813  0.80145106  1
  O  O568  1  0.82313400  0.64807632  0.05042007  1
  O  O569  1  0.82295091  0.64789926  0.30061638  1
  O  O570  1  0.82282400  0.64736851  0.55054095  1
  O  O571  1  0.82404992  0.64687077  0.79881730  1
  O  O572  1  0.82273441  0.97880089  0.04993405  1
  O  O573  1  0.82393644  0.97933917  0.29961703  1
  O  O574  1  0.82355521  0.97811385  0.55086605  1
  O  O575  1  0.82107745  0.97964525  0.80152545  1
  O  O576  1  0.42613321  0.14739376  0.17515083  1
  O  O577  1  0.42732984  0.14674113  0.42749143  1
  O  O578  1  0.42723373  0.14642536  0.67617944  1
  O  O579  1  0.42585537  0.14649248  0.92333300  1
  O  O580  1  0.42650797  0.48086621  0.17444405  1
  O  O581  1  0.42699750  0.48193714  0.42721505  1
  O  O582  1  0.42790475  0.48006575  0.67709377  1
  O  O583  1  0.42680795  0.47858261  0.92432004  1
  O  O584  1  0.42640088  0.81515914  0.17613197  1
  O  O585  1  0.42689908  0.81512504  0.42679058  1
  O  O586  1  0.42677008  0.81458696  0.67560365  1
  O  O587  1  0.42604910  0.81194247  0.92495674  1
  O  O588  1  0.92786856  0.14788863  0.17649620  1
  O  O589  1  0.92638912  0.14823921  0.42608262  1
  O  O590  1  0.92784277  0.14761287  0.67767115  1
  O  O591  1  0.92696681  0.14650133  0.92537947  1
  O  O592  1  0.92698144  0.48159683  0.17641750  1
  O  O593  1  0.92825993  0.48039060  0.42660293  1
  O  O594  1  0.92778466  0.47843076  0.67398981  1
  O  O595  1  0.92721109  0.48080782  0.92514046  1
  O  O596  1  0.92673652  0.81265794  0.17514053  1
  O  O597  1  0.92752348  0.81234852  0.42406034  1
  O  O598  1  0.92619119  0.81231274  0.67345879  1
  O  O599  1  0.92585964  0.81369506  0.92472694  1
  O  O600  1  0.07424273  0.18662207  0.07505514  1
  O  O601  1  0.07346133  0.18562175  0.32486431  1
  O  O602  1  0.07216500  0.18587101  0.57396250  1
  O  O603  1  0.07136552  0.18585866  0.82268472  1
  O  O604  1  0.07315938  0.51879769  0.07459002  1
  O  O605  1  0.07224552  0.51953210  0.32415963  1
  O  O606  1  0.07206147  0.51885281  0.57194547  1
  O  O607  1  0.07498699  0.51924465  0.82392871  1
  O  O608  1  0.07244079  0.85487014  0.07561173  1
  O  O609  1  0.07315606  0.85465557  0.32478618  1
  O  O610  1  0.07410547  0.85385355  0.57530274  1
  O  O611  1  0.07242086  0.85442411  0.82525395  1
  O  O612  1  0.57302210  0.18773204  0.07398881  1
  O  O613  1  0.57368596  0.18655330  0.32549518  1
  O  O614  1  0.57304091  0.18484468  0.57517687  1
  O  O615  1  0.57246636  0.18581659  0.82387579  1
  O  O616  1  0.57363508  0.52182233  0.07467095  1
  O  O617  1  0.57378303  0.52025258  0.32512582  1
  O  O618  1  0.57305957  0.51816015  0.57472200  1
  O  O619  1  0.57346377  0.51821397  0.82488192  1
  O  O620  1  0.57374734  0.85319706  0.07446454  1
  O  O621  1  0.57327081  0.85210668  0.32436348  1
  O  O622  1  0.57236227  0.85295601  0.57394860  1
  O  O623  1  0.57188923  0.85225554  0.82281916  1
  O  O624  1  0.32383292  0.18631815  0.04819181  1
  O  O625  1  0.32462789  0.18673881  0.29995192  1
  O  O626  1  0.32371347  0.18806535  0.55090299  1
  O  O627  1  0.32238012  0.18797016  0.79876659  1
  O  O628  1  0.32308852  0.51820884  0.05125754  1
  O  O629  1  0.32269158  0.52022181  0.30254387  1
  O  O630  1  0.32170856  0.52080464  0.55189315  1
  O  O631  1  0.32403562  0.52006935  0.79863361  1
  O  O632  1  0.32288112  0.85434987  0.05044020  1
  O  O633  1  0.32163376  0.85308578  0.30261348  1
  O  O634  1  0.32285934  0.85445364  0.55017079  1
  O  O635  1  0.32239784  0.85425613  0.79993895  1
  O  O636  1  0.82316008  0.18757881  0.05027398  1
  O  O637  1  0.82325489  0.18799057  0.30046994  1
  O  O638  1  0.82323246  0.18751723  0.55070519  1
  O  O639  1  0.82339362  0.18769011  0.80045537  1
  O  O640  1  0.82340635  0.52082444  0.05025461  1
  O  O641  1  0.82303508  0.52084109  0.29970673  1
  O  O642  1  0.82309481  0.52031578  0.54923873  1
  O  O643  1  0.82433994  0.51994355  0.79877797  1
  O  O644  1  0.82306607  0.85185417  0.05022218  1
  O  O645  1  0.82441454  0.85244091  0.29959679  1
  O  O646  1  0.82333326  0.85088602  0.55108356  1
  O  O647  1  0.82224912  0.85224633  0.80146533  1
  O  O648  1  0.17750006  0.14566435  0.20023530  1
  O  O649  1  0.17771307  0.14669306  0.45010235  1
  O  O650  1  0.17671841  0.14604478  0.70012313  1
  O  O651  1  0.17598754  0.14562243  0.94957614  1
  O  O652  1  0.17723302  0.48194755  0.19909139  1
  O  O653  1  0.17710859  0.48192767  0.44952633  1
  O  O654  1  0.17818924  0.48074748  0.69750061  1
  O  O655  1  0.17703969  0.47914757  0.94864043  1
  O  O656  1  0.17598230  0.81364326  0.20136317  1
  O  O657  1  0.17789641  0.81429067  0.44923132  1
  O  O658  1  0.17628582  0.81300195  0.69950543  1
  O  O659  1  0.17546438  0.81337078  0.95067470  1
  O  O660  1  0.67589975  0.14709337  0.20043116  1
  O  O661  1  0.67615906  0.14635388  0.45088441  1
  O  O662  1  0.67651773  0.14620807  0.70147464  1
  O  O663  1  0.67628647  0.14554403  0.94982043  1
  O  O664  1  0.67658306  0.47939954  0.20037803  1
  O  O665  1  0.67720183  0.47894558  0.45034343  1
  O  O666  1  0.67704512  0.47843625  0.70007216  1
  O  O667  1  0.67717260  0.47940916  0.94982039  1
  O  O668  1  0.67818634  0.81357049  0.19855314  1
  O  O669  1  0.67731363  0.81187249  0.44967150  1
  O  O670  1  0.67714188  0.81315058  0.69745029  1
  O  O671  1  0.67609592  0.81394401  0.94856144  1
