# generated using pymatgen
data_Na2MnFe(PO4)2
_symmetry_space_group_name_H-M   'P 1'
_cell_length_a   22.34209842
_cell_length_b   20.09462160
_cell_length_c   19.45097957
_cell_angle_alpha   89.98004548
_cell_angle_beta   90.04800742
_cell_angle_gamma   89.97070705
_symmetry_Int_Tables_number   1
_chemical_formula_structural   Na2MnFe(PO4)2
_chemical_formula_sum   'Na96 Mn48 Fe48 P96 O384'
_cell_volume   8732.62950962
_cell_formula_units_Z   48
loop_
 _symmetry_equiv_pos_site_id
 _symmetry_equiv_pos_as_xyz
  1  'x, y, z'
loop_
 _atom_site_type_symbol
 _atom_site_label
 _atom_site_symmetry_multiplicity
 _atom_site_fract_x
 _atom_site_fract_y
 _atom_site_fract_z
 _atom_site_occupancy
  Na  Na0  1  0.13943158  0.25023162  0.24391628  1
  Na  Na1  1  0.13974532  0.25116738  0.49208752  1
  Na  Na2  1  0.14010354  0.25056040  0.74388181  1
  Na  Na3  1  0.13923271  0.24832205  0.99370877  1
  Na  Na4  1  0.13959793  0.58442559  0.24403339  1
  Na  Na5  1  0.13986066  0.58338488  0.49381386  1
  Na  Na6  1  0.13994196  0.58431792  0.74260231  1
  Na  Na7  1  0.13981721  0.58356091  0.99365541  1
  Na  Na8  1  0.13968173  0.91707767  0.24350460  1
  Na  Na9  1  0.13963745  0.91593113  0.49263467  1
  Na  Na10  1  0.14019368  0.91564387  0.74244038  1
  Na  Na11  1  0.14033816  0.91476562  0.99374846  1
  Na  Na12  1  0.64042327  0.24995148  0.24506717  1
  Na  Na13  1  0.64049332  0.24943640  0.49333852  1
  Na  Na14  1  0.64045073  0.25062562  0.74410967  1
  Na  Na15  1  0.64021211  0.25044156  0.99329811  1
  Na  Na16  1  0.64011262  0.58287541  0.24393182  1
  Na  Na17  1  0.64063399  0.58185197  0.49387703  1
  Na  Na18  1  0.64071883  0.58345604  0.74340615  1
  Na  Na19  1  0.64066631  0.58422226  0.99495423  1
  Na  Na20  1  0.64061356  0.91663161  0.24358779  1
  Na  Na21  1  0.64082593  0.91573385  0.49399277  1
  Na  Na22  1  0.64042789  0.91787648  0.74507215  1
  Na  Na23  1  0.64056321  0.91806850  0.99286789  1
  Na  Na24  1  0.35992243  0.08161840  0.00627325  1
  Na  Na25  1  0.35973482  0.08355074  0.25473293  1
  Na  Na26  1  0.35947931  0.08327316  0.50581720  1
  Na  Na27  1  0.35969841  0.08277155  0.75603517  1
  Na  Na28  1  0.35946719  0.41535522  0.00601942  1
  Na  Na29  1  0.35945560  0.41672405  0.25698056  1
  Na  Na30  1  0.35917581  0.41703695  0.50631692  1
  Na  Na31  1  0.35959948  0.41734611  0.75555086  1
  Na  Na32  1  0.36011539  0.74912879  0.00610527  1
  Na  Na33  1  0.35959903  0.74949059  0.25564298  1
  Na  Na34  1  0.35932858  0.74815588  0.50639373  1
  Na  Na35  1  0.35937979  0.75060794  0.75556529  1
  Na  Na36  1  0.85999581  0.08471455  0.00627781  1
  Na  Na37  1  0.85952614  0.08426020  0.25792342  1
  Na  Na38  1  0.85998580  0.08316199  0.50613757  1
  Na  Na39  1  0.85999985  0.08380609  0.75585080  1
  Na  Na40  1  0.85997739  0.41740421  0.00759763  1
  Na  Na41  1  0.86004513  0.41656694  0.25774379  1
  Na  Na42  1  0.86031488  0.41632491  0.50690653  1
  Na  Na43  1  0.86005441  0.41652964  0.75549423  1
  Na  Na44  1  0.86056263  0.74999021  0.00664891  1
  Na  Na45  1  0.86000616  0.75055605  0.25722098  1
  Na  Na46  1  0.85977790  0.74952776  0.50643656  1
  Na  Na47  1  0.86079144  0.75118409  0.75665326  1
  Na  Na48  1  0.10904506  0.08399007  0.11859112  1
  Na  Na49  1  0.10921598  0.08392026  0.36804378  1
  Na  Na50  1  0.10896536  0.08314025  0.61724113  1
  Na  Na51  1  0.10953448  0.08260363  0.86853033  1
  Na  Na52  1  0.10875162  0.41686685  0.11967595  1
  Na  Na53  1  0.10914466  0.41824390  0.36856408  1
  Na  Na54  1  0.10916307  0.41745827  0.61771951  1
  Na  Na55  1  0.10893078  0.41684676  0.86887020  1
  Na  Na56  1  0.10947036  0.75015275  0.11929331  1
  Na  Na57  1  0.10925198  0.75055438  0.36815301  1
  Na  Na58  1  0.10972275  0.74987716  0.61782720  1
  Na  Na59  1  0.10956351  0.74820692  0.86741575  1
  Na  Na60  1  0.60960011  0.08387440  0.11748448  1
  Na  Na61  1  0.61020536  0.08375633  0.36895626  1
  Na  Na62  1  0.60952700  0.08337668  0.61952956  1
  Na  Na63  1  0.60996540  0.08423036  0.86892202  1
  Na  Na64  1  0.60945265  0.41679705  0.11926632  1
  Na  Na65  1  0.60971622  0.41523743  0.36989024  1
  Na  Na66  1  0.61000908  0.41545295  0.61822665  1
  Na  Na67  1  0.60965926  0.41625141  0.86933140  1
  Na  Na68  1  0.60956239  0.75047365  0.11816962  1
  Na  Na69  1  0.60966749  0.74739716  0.36894579  1
  Na  Na70  1  0.61006243  0.75015151  0.61892641  1
  Na  Na71  1  0.60969863  0.75095907  0.86980306  1
  Na  Na72  1  0.39019148  0.24985659  0.13025177  1
  Na  Na73  1  0.39004452  0.24910229  0.38121667  1
  Na  Na74  1  0.39057440  0.24881432  0.63005760  1
  Na  Na75  1  0.39086837  0.24947110  0.88123146  1
  Na  Na76  1  0.39052398  0.58378355  0.13094075  1
  Na  Na77  1  0.38960678  0.58181208  0.38227776  1
  Na  Na78  1  0.38989971  0.58289277  0.63117148  1
  Na  Na79  1  0.39037186  0.58341685  0.88087285  1
  Na  Na80  1  0.39050404  0.91620175  0.12973150  1
  Na  Na81  1  0.39074366  0.91612983  0.38113789  1
  Na  Na82  1  0.39041718  0.91622833  0.63094018  1
  Na  Na83  1  0.39059138  0.91717439  0.88191393  1
  Na  Na84  1  0.89014300  0.25102808  0.13233821  1
  Na  Na85  1  0.89054455  0.25134466  0.38305370  1
  Na  Na86  1  0.89051009  0.25106431  0.63010101  1
  Na  Na87  1  0.89058214  0.25006724  0.88213229  1
  Na  Na88  1  0.89118060  0.58451208  0.13281570  1
  Na  Na89  1  0.89036826  0.58400525  0.38155835  1
  Na  Na90  1  0.89078730  0.58335784  0.63181820  1
  Na  Na91  1  0.89079265  0.58273490  0.88072735  1
  Na  Na92  1  0.89089121  0.91680500  0.13217866  1
  Na  Na93  1  0.89068816  0.91805103  0.38179250  1
  Na  Na94  1  0.89041512  0.91585866  0.63074543  1
  Na  Na95  1  0.89092594  0.91610064  0.88132328  1
  Mn  Mn96  1  0.00069795  0.33397488  0.74992765  1
  Mn  Mn97  1  0.75025197  0.50030058  0.87546069  1
  Mn  Mn98  1  0.24905892  -0.00061251  0.62414929  1
  Mn  Mn99  1  0.74943724  0.16782765  0.12626726  1
  Mn  Mn100  1  -0.00064915  -0.00090571  0.74913098  1
  Mn  Mn101  1  0.24956489  0.33320197  0.87483736  1
  Mn  Mn102  1  0.49991941  0.49881302  0.50069487  1
  Mn  Mn103  1  0.00023620  0.16711308  0.74918090  1
  Mn  Mn104  1  0.74954468  0.16724318  0.62527481  1
  Mn  Mn105  1  0.50036280  0.83274703  0.24981455  1
  Mn  Mn106  1  0.75092110  0.83343479  0.12520671  1
  Mn  Mn107  1  0.50017798  0.33352967  0.25007809  1
  Mn  Mn108  1  0.25025736  0.16527040  0.87422158  1
  Mn  Mn109  1  0.24983102  0.33365414  0.37471840  1
  Mn  Mn110  1  0.74963267  -0.00019596  0.62549515  1
  Mn  Mn111  1  0.25019564  0.00041498  0.37374419  1
  Mn  Mn112  1  0.24926492  0.50093533  0.87507866  1
  Mn  Mn113  1  0.24917991  0.16685427  0.62507500  1
  Mn  Mn114  1  0.50030466  0.66669585  0.75061989  1
  Mn  Mn115  1  0.24987383  0.83262337  0.87408412  1
  Mn  Mn116  1  0.50010754  -0.00004981  0.24953271  1
  Mn  Mn117  1  0.75086538  0.66747808  0.87443078  1
  Mn  Mn118  1  0.25014163  0.33460761  0.62387769  1
  Mn  Mn119  1  0.00035627  0.83213159  0.00069070  1
  Mn  Mn120  1  0.50092510  0.49878247  0.75056202  1
  Mn  Mn121  1  0.74961194  0.83261886  0.37457786  1
  Mn  Mn122  1  0.50027207  0.16656965  0.75043285  1
  Mn  Mn123  1  0.24886616  0.33189849  0.12600216  1
  Mn  Mn124  1  0.25028968  0.83238678  0.37448611  1
  Mn  Mn125  1  0.49975218  0.83406364  0.74992578  1
  Mn  Mn126  1  0.49968958  0.49988987  -0.00037579  1
  Mn  Mn127  1  0.24948903  -0.00069170  0.12505603  1
  Mn  Mn128  1  0.25012804  0.49992789  0.12511407  1
  Mn  Mn129  1  0.75017930  0.83470918  0.87597987  1
  Mn  Mn130  1  0.75044067  0.66665547  0.62520404  1
  Mn  Mn131  1  0.74995812  0.00104970  0.12515858  1
  Mn  Mn132  1  0.50003913  0.16695820  0.24908842  1
  Mn  Mn133  1  0.50062017  0.00025987  0.50023515  1
  Mn  Mn134  1  0.49922714  0.66534685  0.24956228  1
  Mn  Mn135  1  -0.00026605  0.66715641  0.49978901  1
  Mn  Mn136  1  0.25024918  0.66691036  0.12467880  1
  Mn  Mn137  1  0.74982698  0.33347917  0.87523847  1
  Mn  Mn138  1  0.75035217  0.50036954  0.12591917  1
  Mn  Mn139  1  0.50067914  0.83217263  0.50065044  1
  Mn  Mn140  1  0.00018183  0.50024060  0.00043322  1
  Mn  Mn141  1  -0.00056444  0.16735407  0.25055337  1
  Mn  Mn142  1  0.00077122  0.00013324  0.00018822  1
  Mn  Mn143  1  0.75018972  0.49942227  0.37502920  1
  Fe  Fe144  1  0.50002032  0.16722965  -0.00096880  1
  Fe  Fe145  1  0.75049307  0.49942291  0.62431415  1
  Fe  Fe146  1  0.74993164  0.33328577  0.37586377  1
  Fe  Fe147  1  0.00005707  0.66646466  0.00003768  1
  Fe  Fe148  1  0.74995912  0.66615183  0.37575043  1
  Fe  Fe149  1  0.75025646  0.66698684  0.12547709  1
  Fe  Fe150  1  0.00000436  0.50080362  0.49969086  1
  Fe  Fe151  1  0.24938763  0.50072356  0.37554688  1
  Fe  Fe152  1  0.24957002  0.16666195  0.37456050  1
  Fe  Fe153  1  -0.00049924  0.33378028  0.00048204  1
  Fe  Fe154  1  0.24985028  0.66655296  0.62433748  1
  Fe  Fe155  1  -0.00035040  0.00073308  0.25046351  1
  Fe  Fe156  1  0.00077643  0.83278744  0.74948216  1
  Fe  Fe157  1  0.74994390  -0.00026671  0.37561079  1
  Fe  Fe158  1  0.24935567  0.50105367  0.62520029  1
  Fe  Fe159  1  0.75088244  0.16746794  0.87498969  1
  Fe  Fe160  1  0.50015988  0.83388515  -0.00036355  1
  Fe  Fe161  1  -0.00038281  0.50062553  0.25014751  1
  Fe  Fe162  1  0.00008675  0.66613326  0.74933681  1
  Fe  Fe163  1  0.75063775  0.33308509  0.62507003  1
  Fe  Fe164  1  0.00020988  0.00008589  0.49945163  1
  Fe  Fe165  1  -0.00037085  0.66741023  0.25055097  1
  Fe  Fe166  1  0.00016156  0.33461039  0.50005118  1
  Fe  Fe167  1  0.24952787  -0.00121237  0.87494875  1
  Fe  Fe168  1  0.75053101  0.83336470  0.62496675  1
  Fe  Fe169  1  -0.00047091  0.83376053  0.49937447  1
  Fe  Fe170  1  0.50008276  0.16606979  0.50022300  1
  Fe  Fe171  1  0.25022462  0.66696930  0.87398294  1
  Fe  Fe172  1  0.49997260  0.66525888  0.49984830  1
  Fe  Fe173  1  -0.00000013  0.16746496  0.49928700  1
  Fe  Fe174  1  -0.00061712  0.16706601  0.00061952  1
  Fe  Fe175  1  0.24972375  0.83268304  0.12441914  1
  Fe  Fe176  1  0.50002627  0.33246322  0.74963834  1
  Fe  Fe177  1  0.25030666  0.83297642  0.62449923  1
  Fe  Fe178  1  0.50059200  0.66670320  0.00034798  1
  Fe  Fe179  1  0.75011658  0.33348323  0.12570275  1
  Fe  Fe180  1  -0.00026542  0.49984274  0.75004657  1
  Fe  Fe181  1  0.49963124  0.33240454  0.49971697  1
  Fe  Fe182  1  0.00004974  0.83405635  0.25023279  1
  Fe  Fe183  1  -0.00012709  0.33395471  0.25074809  1
  Fe  Fe184  1  0.24955439  0.16570055  0.12433891  1
  Fe  Fe185  1  0.75107108  0.00111464  0.87471401  1
  Fe  Fe186  1  0.50043684  0.00032820  -0.00039208  1
  Fe  Fe187  1  0.49960294  0.49939659  0.25009213  1
  Fe  Fe188  1  0.49953421  0.33369694  0.00001618  1
  Fe  Fe189  1  0.24929651  0.66633656  0.37548988  1
  Fe  Fe190  1  0.50006074  0.00046361  0.75073735  1
  Fe  Fe191  1  0.75028768  0.16700189  0.37565203  1
  P  P192  1  0.04060358  0.25086219  0.10237121  1
  P  P193  1  0.04150992  0.25190770  0.35350931  1
  P  P194  1  0.04156434  0.25046052  0.60084391  1
  P  P195  1  0.04248172  0.25001137  0.85397874  1
  P  P196  1  0.04190989  0.58500300  0.10333388  1
  P  P197  1  0.04072442  0.58381657  0.35184833  1
  P  P198  1  0.04156574  0.58250997  0.60279170  1
  P  P199  1  0.04144117  0.58290420  0.85139971  1
  P  P200  1  0.04258512  0.91654405  0.10414985  1
  P  P201  1  0.04112473  0.91734977  0.35217470  1
  P  P202  1  0.04122208  0.91623469  0.60115570  1
  P  P203  1  0.04246907  0.91487556  0.85187062  1
  P  P204  1  0.54140083  0.25049725  0.10105950  1
  P  P205  1  0.54238893  0.24964897  0.35391168  1
  P  P206  1  0.54156698  0.24953141  0.60171074  1
  P  P207  1  0.54235997  0.25128044  0.85319930  1
  P  P208  1  0.54213277  0.58375518  0.10278416  1
  P  P209  1  0.54173098  0.58108983  0.35287041  1
  P  P210  1  0.54268540  0.58367702  0.60265940  1
  P  P211  1  0.54328518  0.58323008  0.85391346  1
  P  P212  1  0.54190852  0.91703081  0.10106244  1
  P  P213  1  0.54318104  0.91626271  0.35308633  1
  P  P214  1  0.54321540  0.91689496  0.60386674  1
  P  P215  1  0.54188525  0.91835675  0.85355346  1
  P  P216  1  0.45762653  0.08334993  0.14518616  1
  P  P217  1  0.45763713  0.08426458  0.39743305  1
  P  P218  1  0.45783430  0.08229801  0.64768843  1
  P  P219  1  0.45886640  0.08320299  0.89799435  1
  P  P220  1  0.45730040  0.41752747  0.14723895  1
  P  P221  1  0.45743922  0.41510168  0.39751723  1
  P  P222  1  0.45813754  0.41452160  0.64719280  1
  P  P223  1  0.45754404  0.41493286  0.89694762  1
  P  P224  1  0.45760172  0.74997482  0.14573507  1
  P  P225  1  0.45771079  0.74779848  0.39782458  1
  P  P226  1  0.45748239  0.74925129  0.64664328  1
  P  P227  1  0.45889226  0.75006373  0.89862863  1
  P  P228  1  0.95758286  0.08303806  0.14786427  1
  P  P229  1  0.95872852  0.08355361  0.39807985  1
  P  P230  1  0.95751587  0.08338968  0.64534632  1
  P  P231  1  0.95824970  0.08434282  0.89771721  1
  P  P232  1  0.95847272  0.41677546  0.14881749  1
  P  P233  1  0.95895353  0.41766531  0.39792298  1
  P  P234  1  0.95821171  0.41815877  0.64669985  1
  P  P235  1  0.95751355  0.41603458  0.89783235  1
  P  P236  1  0.95857784  0.75039496  0.14887403  1
  P  P237  1  0.95795394  0.75185257  0.39681679  1
  P  P238  1  0.95894269  0.75028530  0.64791188  1
  P  P239  1  0.95829624  0.74808571  0.89691278  1
  P  P240  1  0.20721451  0.08490008  0.22740656  1
  P  P241  1  0.20729378  0.08413950  0.47668046  1
  P  P242  1  0.20644923  0.08237302  0.72806275  1
  P  P243  1  0.20770564  0.08110480  0.97741712  1
  P  P244  1  0.20699129  0.41725852  0.22897703  1
  P  P245  1  0.20747869  0.41866214  0.47761838  1
  P  P246  1  0.20718980  0.41849519  0.72699051  1
  P  P247  1  0.20657004  0.41630814  0.97826755  1
  P  P248  1  0.20755786  0.75084308  0.22753995  1
  P  P249  1  0.20761459  0.74831649  0.47796443  1
  P  P250  1  0.20860089  0.74975627  0.72591585  1
  P  P251  1  0.20760209  0.74850701  0.97687267  1
  P  P252  1  0.70720059  0.08376797  0.22955783  1
  P  P253  1  0.70880528  0.08312823  0.47688477  1
  P  P254  1  0.70762593  0.08391039  0.72922574  1
  P  P255  1  0.70905915  0.08444338  0.97643062  1
  P  P256  1  0.70811979  0.41507747  0.22841075  1
  P  P257  1  0.70845209  0.41532547  0.47854675  1
  P  P258  1  0.70884085  0.41642022  0.72628112  1
  P  P259  1  0.70744497  0.41699902  0.97902275  1
  P  P260  1  0.70792818  0.74864937  0.22781717  1
  P  P261  1  0.70790779  0.74852753  0.47798209  1
  P  P262  1  0.70822427  0.75186756  0.72754838  1
  P  P263  1  0.70781663  0.74991458  0.97883743  1
  P  P264  1  0.29166089  0.24795424  0.02245329  1
  P  P265  1  0.29168694  0.24826384  0.27211620  1
  P  P266  1  0.29207026  0.24975940  0.52093014  1
  P  P267  1  0.29296003  0.25018089  0.77154074  1
  P  P268  1  0.29301211  0.58336415  0.02135186  1
  P  P269  1  0.29122185  0.58371309  0.27379354  1
  P  P270  1  0.29106871  0.58308366  0.52275022  1
  P  P271  1  0.29190254  0.58491756  0.77138709  1
  P  P272  1  0.29177445  0.91470614  0.02192057  1
  P  P273  1  0.29292753  0.91615621  0.27091251  1
  P  P274  1  0.29217948  0.91496621  0.52200093  1
  P  P275  1  0.29223692  0.91728009  0.77190197  1
  P  P276  1  0.79214251  0.25126127  0.02299339  1
  P  P277  1  0.79154579  0.25075955  0.27420446  1
  P  P278  1  0.79197301  0.25095798  0.52194005  1
  P  P279  1  0.79283635  0.24972721  0.77236581  1
  P  P280  1  0.79311114  0.58486446  0.02340478  1
  P  P281  1  0.79202585  0.58476413  0.27281070  1
  P  P282  1  0.79257223  0.58209383  0.52238241  1
  P  P283  1  0.79292847  0.58286045  0.77118075  1
  P  P284  1  0.79330561  0.91798185  0.02179386  1
  P  P285  1  0.79238468  0.91795052  0.27308176  1
  P  P286  1  0.79196299  0.91567117  0.52218525  1
  P  P287  1  0.79279817  0.91814071  0.77251300  1
  O  O288  1  0.03552614  0.25089259  0.18235628  1
  O  O289  1  0.03623584  0.25150397  0.43335139  1
  O  O290  1  0.03718051  0.25060662  0.68087802  1
  O  O291  1  0.03682948  0.24994341  0.93384978  1
  O  O292  1  0.03644702  0.58498236  0.18314305  1
  O  O293  1  0.03585868  0.58342259  0.43178028  1
  O  O294  1  0.03633505  0.58239990  0.68262000  1
  O  O295  1  0.03681370  0.58343914  0.93136569  1
  O  O296  1  0.03707781  0.91678900  0.18400817  1
  O  O297  1  0.03581967  0.91756620  0.43206381  1
  O  O298  1  0.03637706  0.91556999  0.68111629  1
  O  O299  1  0.03766454  0.91496803  0.93181902  1
  O  O300  1  0.53666153  0.25014425  0.18105861  1
  O  O301  1  0.53704256  0.24948216  0.43378074  1
  O  O302  1  0.53650806  0.24997398  0.68168819  1
  O  O303  1  0.53679174  0.25132101  0.93302127  1
  O  O304  1  0.53653725  0.58271858  0.18270096  1
  O  O305  1  0.53666793  0.58175735  0.43284521  1
  O  O306  1  0.53797933  0.58337432  0.68264713  1
  O  O307  1  0.53790682  0.58370058  0.93384046  1
  O  O308  1  0.53723395  0.91666660  0.18107222  1
  O  O309  1  0.53827356  0.91622187  0.43305822  1
  O  O310  1  0.53779787  0.91747230  0.68380701  1
  O  O311  1  0.53633765  0.91804867  0.93343695  1
  O  O312  1  0.46302578  0.08331119  0.06530148  1
  O  O313  1  0.46264330  0.08408926  0.31745047  1
  O  O314  1  0.46321377  0.08301699  0.56778269  1
  O  O315  1  0.46374190  0.08306778  0.81802779  1
  O  O316  1  0.46244266  0.41705255  0.06729563  1
  O  O317  1  0.46261446  0.41612909  0.31758715  1
  O  O318  1  0.46340814  0.41452677  0.56724168  1
  O  O319  1  0.46313836  0.41461672  0.81704348  1
  O  O320  1  0.46321845  0.74997545  0.06588395  1
  O  O321  1  0.46257750  0.74806513  0.31782514  1
  O  O322  1  0.46277228  0.74841820  0.56673730  1
  O  O323  1  0.46366185  0.75056116  0.81864848  1
  O  O324  1  0.96294583  0.08373626  0.06795070  1
  O  O325  1  0.96346996  0.08345107  0.31807245  1
  O  O326  1  0.96307660  0.08338255  0.56546308  1
  O  O327  1  0.96297768  0.08417639  0.81773042  1
  O  O328  1  0.96338622  0.41652683  0.06887973  1
  O  O329  1  0.96380442  0.41700071  0.31803719  1
  O  O330  1  0.96365582  0.41828212  0.56686467  1
  O  O331  1  0.96279548  0.41665992  0.81792783  1
  O  O332  1  0.96348106  0.74945400  0.06893921  1
  O  O333  1  0.96321192  0.75189189  0.31699971  1
  O  O334  1  0.96338370  0.75055088  0.56793429  1
  O  O335  1  0.96360172  0.74842906  0.81707814  1
  O  O336  1  0.21295496  0.08180665  0.05738685  1
  O  O337  1  0.21259931  0.08537751  0.30734816  1
  O  O338  1  0.21197561  0.08363108  0.55668793  1
  O  O339  1  0.21170624  0.08159308  0.80802435  1
  O  O340  1  0.21181690  0.41616908  0.05824135  1
  O  O341  1  0.21241622  0.41786919  0.30893279  1
  O  O342  1  0.21286002  0.41883734  0.55755491  1
  O  O343  1  0.21211737  0.41813381  0.80696539  1
  O  O344  1  0.21257284  0.74922214  0.05681947  1
  O  O345  1  0.21263353  0.75005203  0.30745622  1
  O  O346  1  0.21313192  0.74856246  0.55782224  1
  O  O347  1  0.21374608  0.74960980  0.80586860  1
  O  O348  1  0.71353762  0.08439426  0.05649492  1
  O  O349  1  0.71262419  0.08342245  0.30942829  1
  O  O350  1  0.71339786  0.08348114  0.55688211  1
  O  O351  1  0.71336261  0.08411930  0.80906194  1
  O  O352  1  0.71250664  0.41667441  0.05896925  1
  O  O353  1  0.71349523  0.41489580  0.30836322  1
  O  O354  1  0.71404342  0.41577108  0.55839101  1
  O  O355  1  0.71366366  0.41668455  0.80631738  1
  O  O356  1  0.71308182  0.74934147  0.05879535  1
  O  O357  1  0.71290774  0.74839948  0.30782729  1
  O  O358  1  0.71344235  0.74949114  0.55786739  1
  O  O359  1  0.71336904  0.75168857  0.80751158  1
  O  O360  1  0.28638324  0.24791088  0.19215879  1
  O  O361  1  0.28668708  0.24920946  0.44098020  1
  O  O362  1  0.28781219  0.25051252  0.69157708  1
  O  O363  1  0.28671934  0.24837990  0.94248415  1
  O  O364  1  0.28646329  0.58363004  0.19381230  1
  O  O365  1  0.28571011  0.58298350  0.44285105  1
  O  O366  1  0.28639239  0.58468374  0.69149058  1
  O  O367  1  0.28801086  0.58381205  0.94140748  1
  O  O368  1  0.28745015  0.91558215  0.19100156  1
  O  O369  1  0.28731576  0.91525160  0.44202712  1
  O  O370  1  0.28703955  0.91658742  0.69197141  1
  O  O371  1  0.28646807  0.91541352  0.94197703  1
  O  O372  1  0.78678494  0.25085839  0.19420046  1
  O  O373  1  0.78648016  0.25084510  0.44208553  1
  O  O374  1  0.78749664  0.25032463  0.69241963  1
  O  O375  1  0.78713199  0.25043973  0.94303626  1
  O  O376  1  0.78681983  0.58509697  0.19288522  1
  O  O377  1  0.78735083  0.58254186  0.44242462  1
  O  O378  1  0.78747874  0.58210076  0.69125244  1
  O  O379  1  0.78822233  0.58447816  0.94339901  1
  O  O380  1  0.78755904  0.91774010  0.19309212  1
  O  O381  1  0.78629532  0.91616597  0.44228525  1
  O  O382  1  0.78750187  0.91721142  0.69256991  1
  O  O383  1  0.78818761  0.91859934  0.94181371  1
  O  O384  1  0.22726343  0.24764502  0.05783771  1
  O  O385  1  0.22743670  0.24896957  0.30775654  1
  O  O386  1  0.22776529  0.25046593  0.55629585  1
  O  O387  1  0.22847343  0.24954819  0.80637627  1
  O  O388  1  0.22858627  0.58333630  0.05639920  1
  O  O389  1  0.22690228  0.58401189  0.30939622  1
  O  O390  1  0.22701309  0.58332997  0.55908626  1
  O  O391  1  0.22771245  0.58537081  0.80744482  1
  O  O392  1  0.22759182  0.91452410  0.05784056  1
  O  O393  1  0.22860663  0.91640624  0.30628471  1
  O  O394  1  0.22773148  0.91458883  0.55712956  1
  O  O395  1  0.22790228  0.91747106  0.80748225  1
  O  O396  1  0.72777754  0.25209869  0.05854770  1
  O  O397  1  0.72734573  0.25077078  0.30985976  1
  O  O398  1  0.72790739  0.25182983  0.55819227  1
  O  O399  1  0.72855231  0.24881044  0.80807349  1
  O  O400  1  0.72865599  0.58476679  0.05855127  1
  O  O401  1  0.72781524  0.58439371  0.30860551  1
  O  O402  1  0.72836452  0.58218839  0.55806926  1
  O  O403  1  0.72866151  0.58347101  0.80665650  1
  O  O404  1  0.72889200  0.91713460  0.05687219  1
  O  O405  1  0.72797606  0.91800686  0.30826637  1
  O  O406  1  0.72788173  0.91500262  0.55834529  1
  O  O407  1  0.72860125  0.91903767  0.80835913  1
  O  O408  1  0.27144997  0.08453090  0.19167397  1
  O  O409  1  0.27177453  0.08426232  0.44167063  1
  O  O410  1  0.27083527  0.08265191  0.69291216  1
  O  O411  1  0.27196256  0.08050296  0.94162849  1
  O  O412  1  0.27127569  0.41616231  0.19362079  1
  O  O413  1  0.27167964  0.41852987  0.44185365  1
  O  O414  1  0.27160420  0.41878803  0.69170691  1
  O  O415  1  0.27094951  0.41688830  0.94311146  1
  O  O416  1  0.27184003  0.75153257  0.19185238  1
  O  O417  1  0.27178182  0.74760375  0.44193420  1
  O  O418  1  0.27269892  0.74976860  0.68989132  1
  O  O419  1  0.27196967  0.74816774  0.94138217  1
  O  O420  1  0.77149540  0.08426219  0.19401419  1
  O  O421  1  0.77298572  0.08252393  0.44122263  1
  O  O422  1  0.77169124  0.08382506  0.69323921  1
  O  O423  1  0.77334310  0.08486950  0.94082747  1
  O  O424  1  0.77233578  0.41522940  0.19256134  1
  O  O425  1  0.77251392  0.41518846  0.44233070  1
  O  O426  1  0.77306689  0.41607811  0.69056234  1
  O  O427  1  0.77183993  0.41682026  0.94389377  1
  O  O428  1  0.77237115  0.74883779  0.19253373  1
  O  O429  1  0.77208122  0.74843450  0.44205520  1
  O  O430  1  0.77256840  0.75159730  0.69210140  1
  O  O431  1  0.77219274  0.75056748  0.94362637  1
  O  O432  1  0.02179796  0.08291327  0.18377198  1
  O  O433  1  0.02287882  0.08331537  0.43396522  1
  O  O434  1  0.02165322  0.08301487  0.68133854  1
  O  O435  1  0.02251065  0.08478367  0.93331999  1
  O  O436  1  0.02258541  0.41649667  0.18490356  1
  O  O437  1  0.02300082  0.41837909  0.43420024  1
  O  O438  1  0.02231198  0.41872957  0.68305629  1
  O  O439  1  0.02175278  0.41532038  0.93376738  1
  O  O440  1  0.02271553  0.75094047  0.18492114  1
  O  O441  1  0.02208228  0.75173729  0.43293238  1
  O  O442  1  0.02314600  0.75038348  0.68378730  1
  O  O443  1  0.02247241  0.74779229  0.93316048  1
  O  O444  1  0.52188187  0.08326726  0.18095731  1
  O  O445  1  0.52206529  0.08471833  0.43284641  1
  O  O446  1  0.52204471  0.08189771  0.68371284  1
  O  O447  1  0.52303262  0.08300322  0.93394072  1
  O  O448  1  0.52165388  0.41811919  0.18293794  1
  O  O449  1  0.52171557  0.41475190  0.43324746  1
  O  O450  1  0.52241110  0.41420842  0.68309073  1
  O  O451  1  0.52173974  0.41505984  0.93296495  1
  O  O452  1  0.52174472  0.74920392  0.18177419  1
  O  O453  1  0.52215028  0.74750545  0.43313686  1
  O  O454  1  0.52180626  0.75002973  0.68204253  1
  O  O455  1  0.52305746  0.74961866  0.93444113  1
  O  O456  1  0.47715968  0.25068963  0.06534270  1
  O  O457  1  0.47820801  0.25002096  0.31802131  1
  O  O458  1  0.47742191  0.24885599  0.56557147  1
  O  O459  1  0.47824938  0.25132382  0.81682590  1
  O  O460  1  0.47799611  0.58440043  0.06670461  1
  O  O461  1  0.47738346  0.58067966  0.31724119  1
  O  O462  1  0.47820202  0.58363896  0.56747158  1
  O  O463  1  0.47894011  0.58260876  0.81854050  1
  O  O464  1  0.47766162  0.91785276  0.06542778  1
  O  O465  1  0.47866541  0.91626258  0.31812722  1
  O  O466  1  0.47892543  0.91658885  0.56836672  1
  O  O467  1  0.47781566  0.91866294  0.81710797  1
  O  O468  1  0.97655528  0.25132817  0.06609080  1
  O  O469  1  0.97737292  0.25217006  0.31734142  1
  O  O470  1  0.97731214  0.25022648  0.56533125  1
  O  O471  1  0.97838674  0.25044693  0.81780471  1
  O  O472  1  0.97783353  0.58500212  0.06694861  1
  O  O473  1  0.97662983  0.58398413  0.31585351  1
  O  O474  1  0.97745712  0.58241020  0.56653226  1
  O  O475  1  0.97727014  0.58255793  0.81543546  1
  O  O476  1  0.97849956  0.91645876  0.06806245  1
  O  O477  1  0.97714343  0.91706253  0.31558325  1
  O  O478  1  0.97704790  0.91720395  0.56517250  1
  O  O479  1  0.97805987  0.91414398  0.81644883  1
  O  O480  1  0.07213510  0.31405166  0.07425516  1
  O  O481  1  0.07254727  0.31527249  0.32492666  1
  O  O482  1  0.07183531  0.31451237  0.57262870  1
  O  O483  1  0.07393249  0.31333204  0.82562431  1
  O  O484  1  0.07278869  0.64828236  0.07426960  1
  O  O485  1  0.07155663  0.64769919  0.32410948  1
  O  O486  1  0.07250720  0.64626059  0.57478442  1
  O  O487  1  0.07195377  0.64646144  0.82231648  1
  O  O488  1  0.07382217  0.97987804  0.07566563  1
  O  O489  1  0.07180520  0.98111087  0.32368739  1
  O  O490  1  0.07266514  0.97965403  0.57322943  1
  O  O491  1  0.07273119  0.97886953  0.82385251  1
  O  O492  1  0.57228931  0.31429704  0.07353604  1
  O  O493  1  0.57372070  0.31300888  0.32558438  1
  O  O494  1  0.57214130  0.31314055  0.57310686  1
  O  O495  1  0.57347134  0.31439227  0.82414568  1
  O  O496  1  0.57300875  0.64749349  0.07494863  1
  O  O497  1  0.57284289  0.64449876  0.32457689  1
  O  O498  1  0.57315408  0.64724381  0.57397991  1
  O  O499  1  0.57430964  0.64655871  0.82543494  1
  O  O500  1  0.57346627  0.98031860  0.07318132  1
  O  O501  1  0.57399110  0.97978878  0.32480986  1
  O  O502  1  0.57455552  0.98004709  0.57539567  1
  O  O503  1  0.57285884  0.98178414  0.82506528  1
  O  O504  1  0.42642845  0.02005691  0.17385006  1
  O  O505  1  0.42685186  0.02043505  0.42518256  1
  O  O506  1  0.42699214  0.01872126  0.67592243  1
  O  O507  1  0.42743363  0.02006416  0.92630735  1
  O  O508  1  0.42640085  0.35392077  0.17536169  1
  O  O509  1  0.42680641  0.35129725  0.42549503  1
  O  O510  1  0.42690571  0.35129528  0.67549589  1
  O  O511  1  0.42651763  0.35181322  0.92597121  1
  O  O512  1  0.42574795  0.68694164  0.17407321  1
  O  O513  1  0.42711743  0.68413579  0.42621176  1
  O  O514  1  0.42648889  0.68604693  0.67547175  1
  O  O515  1  0.42783147  0.68644738  0.92637936  1
  O  O516  1  0.92702736  0.01932244  0.17626328  1
  O  O517  1  0.92743036  0.02028274  0.42633415  1
  O  O518  1  0.92615315  0.02008933  0.67383920  1
  O  O519  1  0.92757653  0.02041675  0.92531854  1
  O  O520  1  0.92706898  0.35371430  0.17749543  1
  O  O521  1  0.92871937  0.35387293  0.42712083  1
  O  O522  1  0.92758478  0.35417422  0.67455294  1
  O  O523  1  0.92643441  0.35265138  0.92614904  1
  O  O524  1  0.92800244  0.68686635  0.17792636  1
  O  O525  1  0.92676792  0.68831837  0.42497890  1
  O  O526  1  0.92873807  0.68615819  0.67610222  1
  O  O527  1  0.92736753  0.68472265  0.92580582  1
  O  O528  1  0.17614316  0.02102598  0.20014514  1
  O  O529  1  0.17647701  0.02045467  0.44856124  1
  O  O530  1  0.17518141  0.01937769  0.69903030  1
  O  O531  1  0.17690891  0.01740513  0.94933173  1
  O  O532  1  0.17546834  0.35377204  0.20142031  1
  O  O533  1  0.17647481  0.35490393  0.44999229  1
  O  O534  1  0.17630520  0.35481738  0.69897176  1
  O  O535  1  0.17596869  0.35260793  0.95013533  1
  O  O536  1  0.17667137  0.68725859  0.19931442  1
  O  O537  1  0.17629950  0.68510970  0.44928363  1
  O  O538  1  0.17731491  0.68645565  0.69771078  1
  O  O539  1  0.17703357  0.68490351  0.94827019  1
  O  O540  1  0.67618769  0.02053857  0.20053969  1
  O  O541  1  0.67751513  0.01959121  0.44924941  1
  O  O542  1  0.67633026  0.02057035  0.70093546  1
  O  O543  1  0.67889042  0.02044030  0.94817325  1
  O  O544  1  0.67722168  0.35182212  0.19957264  1
  O  O545  1  0.67735996  0.35197136  0.45006576  1
  O  O546  1  0.67799858  0.35261558  0.69854295  1
  O  O547  1  0.67609356  0.35399297  0.95014764  1
  O  O548  1  0.67711196  0.68536661  0.19892363  1
  O  O549  1  0.67748798  0.68452941  0.45005343  1
  O  O550  1  0.67691120  0.68832209  0.69989052  1
  O  O551  1  0.67689727  0.68671818  0.94992010  1
  O  O552  1  0.32246722  0.31158221  0.05064158  1
  O  O553  1  0.32309894  0.31192932  0.29952689  1
  O  O554  1  0.32331754  0.31340586  0.54848823  1
  O  O555  1  0.32352828  0.31377555  0.79999595  1
  O  O556  1  0.32419522  0.64649906  0.05011715  1
  O  O557  1  0.32202389  0.64739517  0.30184343  1
  O  O558  1  0.32220338  0.64655403  0.55104814  1
  O  O559  1  0.32292430  0.64831383  0.80003064  1
  O  O560  1  0.32311989  0.97797450  0.05010933  1
  O  O561  1  0.32382207  0.97999873  0.29860518  1
  O  O562  1  0.32302238  0.97871949  0.54981256  1
  O  O563  1  0.32279946  0.98083180  0.80057699  1
  O  O564  1  0.82301186  0.31479135  0.05137823  1
  O  O565  1  0.82275242  0.31404140  0.30264702  1
  O  O566  1  0.82346116  0.31402330  0.55062806  1
  O  O567  1  0.82357696  0.31338302  0.80058063  1
  O  O568  1  0.82362935  0.64842601  0.05202626  1
  O  O569  1  0.82281330  0.64796284  0.30194794  1
  O  O570  1  0.82410038  0.64541837  0.55033656  1
  O  O571  1  0.82406300  0.64664853  0.79851550  1
  O  O572  1  0.82411223  0.98136528  0.05043575  1
  O  O573  1  0.82301006  0.98143874  0.30172573  1
  O  O574  1  0.82295203  0.97924445  0.55013986  1
  O  O575  1  0.82378210  0.98179112  0.80049023  1
  O  O576  1  0.42646601  0.14679942  0.17350218  1
  O  O577  1  0.42675361  0.14756751  0.42612038  1
  O  O578  1  0.42667549  0.14578262  0.67580282  1
  O  O579  1  0.42867462  0.14745560  0.92597567  1
  O  O580  1  0.42648818  0.48106978  0.17570709  1
  O  O581  1  0.42610733  0.47830129  0.42609355  1
  O  O582  1  0.42753967  0.47856577  0.67491873  1
  O  O583  1  0.42638922  0.47878637  0.92421026  1
  O  O584  1  0.42690842  0.81363222  0.17420830  1
  O  O585  1  0.42680104  0.81151813  0.42565175  1
  O  O586  1  0.42624261  0.81288921  0.67431998  1
  O  O587  1  0.42857410  0.81415833  0.92676232  1
  O  O588  1  0.92612098  0.14636720  0.17602328  1
  O  O589  1  0.92843116  0.14773044  0.42602134  1
  O  O590  1  0.92644122  0.14690221  0.67362597  1
  O  O591  1  0.92737398  0.14775532  0.92647555  1
  O  O592  1  0.92828894  0.48105507  0.17678420  1
  O  O593  1  0.92748206  0.48109744  0.42586079  1
  O  O594  1  0.92680514  0.48111885  0.67568478  1
  O  O595  1  0.92675072  0.47969567  0.92615809  1
  O  O596  1  0.92741692  0.81412059  0.17642888  1
  O  O597  1  0.92705209  0.81522673  0.42571981  1
  O  O598  1  0.92778522  0.81357551  0.67648024  1
  O  O599  1  0.92722965  0.81166074  0.92525988  1
  O  O600  1  0.07069727  0.18658865  0.07427708  1
  O  O601  1  0.07256397  0.18832778  0.32525677  1
  O  O602  1  0.07264817  0.18695020  0.57277526  1
  O  O603  1  0.07364555  0.18668752  0.82537595  1
  O  O604  1  0.07311567  0.52134355  0.07540964  1
  O  O605  1  0.07153519  0.52033750  0.32314033  1
  O  O606  1  0.07267423  0.51940568  0.57368440  1
  O  O607  1  0.07232930  0.51909859  0.82360692  1
  O  O608  1  0.07385709  0.85313883  0.07587535  1
  O  O609  1  0.07248108  0.85385624  0.32416534  1
  O  O610  1  0.07147072  0.85239361  0.57238989  1
  O  O611  1  0.07365579  0.85161674  0.82329764  1
  O  O612  1  0.57194597  0.18672776  0.07257521  1
  O  O613  1  0.57348558  0.18635710  0.32521127  1
  O  O614  1  0.57258604  0.18567532  0.57406701  1
  O  O615  1  0.57343978  0.18753206  0.82539601  1
  O  O616  1  0.57341962  0.52037952  0.07468002  1
  O  O617  1  0.57246738  0.51742105  0.32456353  1
  O  O618  1  0.57374709  0.52000894  0.57490988  1
  O  O619  1  0.57449279  0.51964539  0.82598185  1
  O  O620  1  0.57187925  0.85288168  0.07265908  1
  O  O621  1  0.57408506  0.85266018  0.32495226  1
  O  O622  1  0.57426793  0.85324262  0.57600444  1
  O  O623  1  0.57305892  0.85468950  0.82570836  1
  O  O624  1  0.32246079  0.18426017  0.05049264  1
  O  O625  1  0.32232453  0.18481180  0.30108443  1
  O  O626  1  0.32310402  0.18648811  0.54965748  1
  O  O627  1  0.32429624  0.18670558  0.79946024  1
  O  O628  1  0.32389508  0.51967743  0.04953328  1
  O  O629  1  0.32174126  0.51985656  0.30205689  1
  O  O630  1  0.32199756  0.51951577  0.55141486  1
  O  O631  1  0.32295953  0.52129440  0.79953988  1
  O  O632  1  0.32227046  0.85080738  0.05003109  1
  O  O633  1  0.32435008  0.85312142  0.29962473  1
  O  O634  1  0.32297243  0.85144098  0.55054023  1
  O  O635  1  0.32353977  0.85381964  0.80008053  1
  O  O636  1  0.82294625  0.18773560  0.05159667  1
  O  O637  1  0.82193553  0.18673179  0.30268776  1
  O  O638  1  0.82267419  0.18704410  0.54984138  1
  O  O639  1  0.82400389  0.18630450  0.80066140  1
  O  O640  1  0.82418897  0.52126804  0.05152688  1
  O  O641  1  0.82318037  0.52084179  0.30007577  1
  O  O642  1  0.82306984  0.51827685  0.55069932  1
  O  O643  1  0.82398925  0.51967097  0.80013860  1
  O  O644  1  0.82463686  0.85442707  0.04968981  1
  O  O645  1  0.82333769  0.85418202  0.30076525  1
  O  O646  1  0.82294853  0.85204239  0.55038817  1
  O  O647  1  0.82378065  0.85463612  0.80088929  1
  O  O648  1  0.17624702  0.14807110  0.19822837  1
  O  O649  1  0.17664229  0.14781477  0.44839218  1
  O  O650  1  0.17546320  0.14623684  0.70042323  1
  O  O651  1  0.17666366  0.14465803  0.94930360  1
  O  O652  1  0.17620739  0.48069853  0.20033354  1
  O  O653  1  0.17644683  0.48198161  0.44893998  1
  O  O654  1  0.17643952  0.48209243  0.69864275  1
  O  O655  1  0.17517642  0.47968182  0.95025508  1
  O  O656  1  0.17674079  0.81442038  0.19914311  1
  O  O657  1  0.17677234  0.81201012  0.44967228  1
  O  O658  1  0.17810038  0.81377078  0.69775039  1
  O  O659  1  0.17641447  0.81189349  0.94846828  1
  O  O660  1  0.67584473  0.14718716  0.20117673  1
  O  O661  1  0.67873220  0.14727199  0.44852292  1
  O  O662  1  0.67623308  0.14720355  0.70066406  1
  O  O663  1  0.67804090  0.14807773  0.94850969  1
  O  O664  1  0.67709706  0.47899789  0.20102782  1
  O  O665  1  0.67714824  0.47880336  0.45025307  1
  O  O666  1  0.67821307  0.48017506  0.69792037  1
  O  O667  1  0.67673135  0.48078407  0.95084349  1
  O  O668  1  0.67708287  0.81259798  0.20007479  1
  O  O669  1  0.67625261  0.81160259  0.44956594  1
  O  O670  1  0.67775925  0.81561570  0.69918211  1
  O  O671  1  0.67656977  0.81356370  0.95109540  1
