# generated using pymatgen
data_Na2MnFe(PO4)2
_symmetry_space_group_name_H-M   'P 1'
_cell_length_a   22.34647771
_cell_length_b   20.09620137
_cell_length_c   19.44608413
_cell_angle_alpha   90.00529346
_cell_angle_beta   90.01214391
_cell_angle_gamma   89.98735485
_symmetry_Int_Tables_number   1
_chemical_formula_structural   Na2MnFe(PO4)2
_chemical_formula_sum   'Na96 Mn48 Fe48 P96 O384'
_cell_volume   8732.83370999
_cell_formula_units_Z   48
loop_
 _symmetry_equiv_pos_site_id
 _symmetry_equiv_pos_as_xyz
  1  'x, y, z'
loop_
 _atom_site_type_symbol
 _atom_site_label
 _atom_site_symmetry_multiplicity
 _atom_site_fract_x
 _atom_site_fract_y
 _atom_site_fract_z
 _atom_site_occupancy
  Na  Na0  1  0.13975720  0.25050225  0.24358926  1
  Na  Na1  1  0.13975362  0.24979395  0.49438284  1
  Na  Na2  1  0.14071363  0.24917489  0.74414712  1
  Na  Na3  1  0.13981467  0.24936815  0.99323016  1
  Na  Na4  1  0.14009960  0.58504633  0.24330838  1
  Na  Na5  1  0.14026147  0.58501232  0.49316459  1
  Na  Na6  1  0.14030235  0.58344209  0.74418581  1
  Na  Na7  1  0.14023571  0.58220057  0.99416317  1
  Na  Na8  1  0.14058238  0.91651294  0.24330955  1
  Na  Na9  1  0.14054603  0.91652992  0.49384654  1
  Na  Na10  1  0.14028901  0.91714623  0.74292800  1
  Na  Na11  1  0.14069600  0.91548717  0.99377056  1
  Na  Na12  1  0.63999075  0.24980493  0.24308735  1
  Na  Na13  1  0.63996328  0.24972907  0.49437964  1
  Na  Na14  1  0.64055023  0.25018765  0.74296941  1
  Na  Na15  1  0.63977821  0.24921520  0.99368949  1
  Na  Na16  1  0.64043228  0.58247645  0.24391391  1
  Na  Na17  1  0.64018327  0.58271715  0.49539319  1
  Na  Na18  1  0.64034114  0.58287873  0.74377852  1
  Na  Na19  1  0.64058262  0.58280781  0.99400479  1
  Na  Na20  1  0.64047696  0.91718541  0.24350167  1
  Na  Na21  1  0.64056120  0.91858053  0.49415791  1
  Na  Na22  1  0.64043054  0.91788745  0.74361002  1
  Na  Na23  1  0.64043166  0.91623863  0.99260294  1
  Na  Na24  1  0.36002569  0.08315366  0.00668295  1
  Na  Na25  1  0.35993854  0.08363696  0.25598032  1
  Na  Na26  1  0.35980421  0.08402470  0.50756768  1
  Na  Na27  1  0.35983885  0.08345631  0.75604898  1
  Na  Na28  1  0.35908653  0.41545027  0.00644705  1
  Na  Na29  1  0.35913588  0.41808437  0.25539546  1
  Na  Na30  1  0.35937928  0.41642666  0.50698104  1
  Na  Na31  1  0.35924297  0.41522525  0.75673528  1
  Na  Na32  1  0.35987194  0.74888845  0.00767334  1
  Na  Na33  1  0.35973654  0.75065449  0.25500084  1
  Na  Na34  1  0.35931244  0.75094273  0.50484076  1
  Na  Na35  1  0.35976072  0.74996760  0.75685829  1
  Na  Na36  1  0.86013462  0.08352642  0.00647520  1
  Na  Na37  1  0.86045646  0.08414237  0.25614513  1
  Na  Na38  1  0.85990099  0.08498274  0.50638206  1
  Na  Na39  1  0.85998429  0.08353440  0.75549429  1
  Na  Na40  1  0.85957974  0.41543660  0.00761823  1
  Na  Na41  1  0.85923430  0.41535897  0.25500075  1
  Na  Na42  1  0.85908919  0.41654634  0.50779106  1
  Na  Na43  1  0.85957722  0.41754886  0.75533610  1
  Na  Na44  1  0.85960464  0.74855171  0.00532348  1
  Na  Na45  1  0.85989759  0.74944392  0.25682377  1
  Na  Na46  1  0.86036158  0.75041632  0.50793169  1
  Na  Na47  1  0.85998975  0.75021164  0.75600435  1
  Na  Na48  1  0.10969026  0.08445337  0.11895884  1
  Na  Na49  1  0.10972517  0.08389368  0.36921168  1
  Na  Na50  1  0.11019063  0.08248173  0.61796103  1
  Na  Na51  1  0.10977721  0.08347216  0.86839733  1
  Na  Na52  1  0.10902412  0.41618054  0.11759314  1
  Na  Na53  1  0.10894137  0.41642658  0.36912765  1
  Na  Na54  1  0.10965247  0.41602473  0.61820895  1
  Na  Na55  1  0.10943156  0.41664741  0.86936881  1
  Na  Na56  1  0.11022284  0.74858634  0.11883045  1
  Na  Na57  1  0.10994219  0.75089080  0.36804861  1
  Na  Na58  1  0.10943712  0.74980576  0.61876546  1
  Na  Na59  1  0.10980478  0.75008570  0.86849221  1
  Na  Na60  1  0.60937955  0.08441076  0.11787964  1
  Na  Na61  1  0.60961345  0.08322239  0.36939363  1
  Na  Na62  1  0.61014374  0.08312186  0.61829187  1
  Na  Na63  1  0.60988244  0.08414591  0.86881549  1
  Na  Na64  1  0.60958765  0.41664726  0.11781594  1
  Na  Na65  1  0.60924642  0.41594492  0.36962968  1
  Na  Na66  1  0.60943168  0.41510605  0.61868719  1
  Na  Na67  1  0.60964844  0.41618260  0.86955336  1
  Na  Na68  1  0.60937132  0.75142318  0.11784719  1
  Na  Na69  1  0.60980712  0.75009138  0.36965675  1
  Na  Na70  1  0.60941439  0.74940391  0.61884036  1
  Na  Na71  1  0.60953757  0.75023692  0.86891431  1
  Na  Na72  1  0.38982554  0.24994657  0.13023185  1
  Na  Na73  1  0.39051547  0.24907887  0.38156401  1
  Na  Na74  1  0.38980002  0.24843858  0.63244949  1
  Na  Na75  1  0.39009417  0.24949763  0.88165726  1
  Na  Na76  1  0.38995303  0.58504273  0.13136069  1
  Na  Na77  1  0.38987580  0.58392727  0.38035021  1
  Na  Na78  1  0.39033812  0.58183510  0.63131908  1
  Na  Na79  1  0.39018105  0.58383409  0.88293020  1
  Na  Na80  1  0.39097338  0.91736520  0.13081352  1
  Na  Na81  1  0.39036320  0.91684542  0.38078219  1
  Na  Na82  1  0.39030766  0.91750337  0.63059577  1
  Na  Na83  1  0.39123467  0.91733944  0.88200579  1
  Na  Na84  1  0.89001778  0.24908214  0.13144055  1
  Na  Na85  1  0.88978842  0.24911195  0.38136577  1
  Na  Na86  1  0.88994106  0.24914146  0.63095229  1
  Na  Na87  1  0.89049338  0.25067345  0.88179207  1
  Na  Na88  1  0.89030304  0.58219071  0.13107031  1
  Na  Na89  1  0.89055062  0.58406742  0.38214121  1
  Na  Na90  1  0.89024439  0.58447730  0.63189662  1
  Na  Na91  1  0.89016140  0.58341891  0.88079193  1
  Na  Na92  1  0.89086366  0.91694920  0.13107241  1
  Na  Na93  1  0.89129553  0.91732816  0.38139815  1
  Na  Na94  1  0.89112699  0.91589073  0.63189748  1
  Na  Na95  1  0.89061643  0.91775337  0.87988040  1
  Mn  Mn96  1  0.75048681  0.83283138  0.12430204  1
  Mn  Mn97  1  0.24987777  -0.00003247  0.12481595  1
  Mn  Mn98  1  0.25023968  0.49963459  0.62512193  1
  Mn  Mn99  1  -0.00057336  0.66586568  -0.00092302  1
  Mn  Mn100  1  0.75011823  0.66639395  0.37554759  1
  Mn  Mn101  1  -0.00034155  0.50067725  0.74892919  1
  Mn  Mn102  1  -0.00070956  0.50009339  0.25028822  1
  Mn  Mn103  1  0.00005165  0.83330775  0.25026225  1
  Mn  Mn104  1  0.49924368  0.50035797  -0.00009404  1
  Mn  Mn105  1  0.49916628  0.66562536  0.49937361  1
  Mn  Mn106  1  0.74933283  0.33257361  0.37541271  1
  Mn  Mn107  1  0.25040359  0.00027452  0.87496458  1
  Mn  Mn108  1  0.75006444  0.33316034  0.87491861  1
  Mn  Mn109  1  -0.00017030  0.33325816  0.75018045  1
  Mn  Mn110  1  0.00014803  0.83336795  0.00014431  1
  Mn  Mn111  1  0.24949452  0.33304966  0.12506455  1
  Mn  Mn112  1  0.74964904  0.50009785  0.87521518  1
  Mn  Mn113  1  -0.00056517  0.33225603  0.24948221  1
  Mn  Mn114  1  0.24906456  0.50132036  0.37538788  1
  Mn  Mn115  1  0.25027555  0.16727840  0.37585763  1
  Mn  Mn116  1  0.50004592  0.49839584  0.75142599  1
  Mn  Mn117  1  0.25019523  0.66710917  0.62449279  1
  Mn  Mn118  1  0.25016407  0.49935980  0.87511502  1
  Mn  Mn119  1  0.75100622  0.16593051  0.87403346  1
  Mn  Mn120  1  0.00077299  0.16612443  0.75007624  1
  Mn  Mn121  1  0.49999570  0.00042016  0.24963041  1
  Mn  Mn122  1  0.50021311  0.16628538  0.75069939  1
  Mn  Mn123  1  0.24998908  0.33398497  0.37483300  1
  Mn  Mn124  1  0.24956433  0.83401775  0.62523327  1
  Mn  Mn125  1  0.49989016  0.83450467  0.74987274  1
  Mn  Mn126  1  0.00115978  0.00085923  0.00033948  1
  Mn  Mn127  1  0.50090937  0.66804268  0.25048409  1
  Mn  Mn128  1  0.49993871  0.50033615  0.24911348  1
  Mn  Mn129  1  0.75064031  0.00044034  0.12463312  1
  Mn  Mn130  1  0.49983651  0.83392745  0.50017090  1
  Mn  Mn131  1  0.24960554  0.00007583  0.37483805  1
  Mn  Mn132  1  0.75026847  0.83308713  0.87418664  1
  Mn  Mn133  1  0.75026410  0.83408091  0.37588219  1
  Mn  Mn134  1  0.74995054  0.49937965  0.37551772  1
  Mn  Mn135  1  0.74978367  0.83404907  0.62545946  1
  Mn  Mn136  1  0.75084647  0.00173866  0.37400924  1
  Mn  Mn137  1  0.49963128  0.66637285  0.75010619  1
  Mn  Mn138  1  0.49913414  0.33218558  0.49963700  1
  Mn  Mn139  1  0.49916350  0.33258882  0.24994707  1
  Mn  Mn140  1  -0.00003546  0.50056566  0.49952483  1
  Mn  Mn141  1  0.00031239  -0.00045839  0.49995075  1
  Mn  Mn142  1  0.74956244  0.66536268  0.12578819  1
  Mn  Mn143  1  0.25066112  0.83227369  0.87468279  1
  Fe  Fe144  1  0.00027996  0.66710310  0.75018890  1
  Fe  Fe145  1  0.50061223  0.00114030  0.00053130  1
  Fe  Fe146  1  0.00075676  0.00067202  0.25054618  1
  Fe  Fe147  1  0.74938583  0.33225812  0.12539169  1
  Fe  Fe148  1  0.49983783  0.33230927  0.74985265  1
  Fe  Fe149  1  0.25034740  0.83371506  0.37422944  1
  Fe  Fe150  1  0.25020184  0.83272405  0.12464701  1
  Fe  Fe151  1  0.00049702  0.83330967  0.74963087  1
  Fe  Fe152  1  -0.00035031  0.16612925  0.49978109  1
  Fe  Fe153  1  0.00018952  0.66749917  0.50065266  1
  Fe  Fe154  1  0.75029248  0.49921179  0.12494621  1
  Fe  Fe155  1  0.75021937  0.00017669  0.87439737  1
  Fe  Fe156  1  0.50024974  0.83466340  -0.00045889  1
  Fe  Fe157  1  0.49983526  0.33334365  -0.00002569  1
  Fe  Fe158  1  0.24962688  0.33234534  0.87558584  1
  Fe  Fe159  1  0.24969176  0.16712989  0.62576645  1
  Fe  Fe160  1  0.25040819  0.66771173  0.37358285  1
  Fe  Fe161  1  0.75060400  0.00109679  0.62428493  1
  Fe  Fe162  1  0.50044721  0.00071970  0.75062997  1
  Fe  Fe163  1  0.74976287  0.50049137  0.62574526  1
  Fe  Fe164  1  0.50022408  -0.00002782  0.49975431  1
  Fe  Fe165  1  0.50040845  0.66784461  0.00056210  1
  Fe  Fe166  1  0.75003802  0.16696867  0.62511727  1
  Fe  Fe167  1  0.49958827  0.49879775  0.50034143  1
  Fe  Fe168  1  0.24995256  0.66576035  0.87586457  1
  Fe  Fe169  1  0.00003128  -0.00029177  0.74965154  1
  Fe  Fe170  1  -0.00025733  0.66693740  0.25030306  1
  Fe  Fe171  1  0.75011100  0.33340055  0.62495524  1
  Fe  Fe172  1  0.49990824  0.16739011  -0.00059362  1
  Fe  Fe173  1  0.74957314  0.16636572  0.12474397  1
  Fe  Fe174  1  -0.00085076  0.33252987  0.49931730  1
  Fe  Fe175  1  0.24993718  0.66654810  0.12508426  1
  Fe  Fe176  1  0.00065769  0.83314974  0.50019459  1
  Fe  Fe177  1  -0.00053495  0.16655931  0.00004029  1
  Fe  Fe178  1  0.25061354  0.00036868  0.62485618  1
  Fe  Fe179  1  0.74971761  0.66688987  0.62562636  1
  Fe  Fe180  1  0.49987598  0.16640377  0.24971119  1
  Fe  Fe181  1  0.24953525  0.16633714  0.87464407  1
  Fe  Fe182  1  0.50002014  0.16564302  0.50061433  1
  Fe  Fe183  1  0.00047897  0.16684915  0.25006285  1
  Fe  Fe184  1  0.75010423  0.66609482  0.87480004  1
  Fe  Fe185  1  0.74980460  0.16737863  0.37529889  1
  Fe  Fe186  1  0.24928303  0.33303466  0.62601851  1
  Fe  Fe187  1  0.24929272  0.50012775  0.12491209  1
  Fe  Fe188  1  0.25001619  0.16675537  0.12480839  1
  Fe  Fe189  1  0.50042414  0.83436304  0.24945613  1
  Fe  Fe190  1  -0.00015354  0.33312338  0.00007753  1
  Fe  Fe191  1  -0.00009272  0.49989120  0.00003311  1
  P  P192  1  0.04121503  0.24933994  0.10167494  1
  P  P193  1  0.04187514  0.24875226  0.35321912  1
  P  P194  1  0.04097209  0.24935929  0.60128214  1
  P  P195  1  0.04244079  0.25013276  0.85415078  1
  P  P196  1  0.04195332  0.58227238  0.10262526  1
  P  P197  1  0.04184000  0.58517333  0.35290222  1
  P  P198  1  0.04224584  0.58508061  0.60263201  1
  P  P199  1  0.04199364  0.58386540  0.85245729  1
  P  P200  1  0.04326530  0.91707094  0.10377730  1
  P  P201  1  0.04265232  0.91791110  0.35266436  1
  P  P202  1  0.04234716  0.91481016  0.60315853  1
  P  P203  1  0.04196904  0.91688903  0.85129057  1
  P  P204  1  0.54092178  0.25005802  0.10163220  1
  P  P205  1  0.54186359  0.24781224  0.35270351  1
  P  P206  1  0.54175654  0.24836766  0.60277960  1
  P  P207  1  0.54242091  0.25127261  0.85314715  1
  P  P208  1  0.54215923  0.58510166  0.10220730  1
  P  P209  1  0.54271672  0.58261827  0.35347083  1
  P  P210  1  0.54152635  0.58113938  0.60263961  1
  P  P211  1  0.54242645  0.58365956  0.85409414  1
  P  P212  1  0.54189253  0.91750391  0.10160729  1
  P  P213  1  0.54245235  0.91635675  0.35244651  1
  P  P214  1  0.54237347  0.91846631  0.60281242  1
  P  P215  1  0.54240985  0.91865790  0.85330090  1
  P  P216  1  0.45799827  0.08492728  0.14656517  1
  P  P217  1  0.45814393  0.08314363  0.39832952  1
  P  P218  1  0.45840286  0.08199313  0.64727556  1
  P  P219  1  0.45882924  0.08332583  0.89841734  1
  P  P220  1  0.45697313  0.41631094  0.14604626  1
  P  P221  1  0.45697026  0.41730104  0.39743944  1
  P  P222  1  0.45743649  0.41460188  0.64766249  1
  P  P223  1  0.45740127  0.41476947  0.89743588  1
  P  P224  1  0.45860390  0.75220659  0.14663472  1
  P  P225  1  0.45738353  0.75087161  0.39621015  1
  P  P226  1  0.45682752  0.75015923  0.64699105  1
  P  P227  1  0.45863569  0.75072793  0.89880585  1
  P  P228  1  0.95895043  0.08382297  0.14836428  1
  P  P229  1  0.95814285  0.08430513  0.39686277  1
  P  P230  1  0.95844669  0.08190639  0.64707781  1
  P  P231  1  0.95786109  0.08417260  0.89726353  1
  P  P232  1  0.95751924  0.41621809  0.14593843  1
  P  P233  1  0.95712173  0.41544330  0.39764702  1
  P  P234  1  0.95744411  0.41619300  0.64598541  1
  P  P235  1  0.95815512  0.41697462  0.89853299  1
  P  P236  1  0.95763817  0.74869845  0.14766738  1
  P  P237  1  0.95854959  0.75028349  0.39857633  1
  P  P238  1  0.95884917  0.74996013  0.64794019  1
  P  P239  1  0.95762826  0.75054520  0.89562144  1
  P  P240  1  0.20781056  0.08477458  0.22732525  1
  P  P241  1  0.20756501  0.08360899  0.47930166  1
  P  P242  1  0.20885921  0.08346885  0.72682266  1
  P  P243  1  0.20797109  0.08442372  0.97767770  1
  P  P244  1  0.20699021  0.41834303  0.22725046  1
  P  P245  1  0.20681279  0.41654056  0.47872517  1
  P  P246  1  0.20751166  0.41506956  0.72830133  1
  P  P247  1  0.20772504  0.41532191  0.97787761  1
  P  P248  1  0.20883080  0.75030859  0.22688448  1
  P  P249  1  0.20862183  0.75062345  0.47565203  1
  P  P250  1  0.20720683  0.74964302  0.72847430  1
  P  P251  1  0.20815778  0.74803997  0.97827140  1
  P  P252  1  0.70772789  0.08500493  0.22744807  1
  P  P253  1  0.70833427  0.08523285  0.47810041  1
  P  P254  1  0.70876431  0.08337075  0.72649057  1
  P  P255  1  0.70829291  0.08231023  0.97716686  1
  P  P256  1  0.70809085  0.41624624  0.22644025  1
  P  P257  1  0.70728861  0.41639820  0.47951818  1
  P  P258  1  0.70838094  0.41670019  0.72651609  1
  P  P259  1  0.70745046  0.41604050  0.97909130  1
  P  P260  1  0.70696455  0.75001977  0.22830067  1
  P  P261  1  0.70756063  0.75004248  0.47931569  1
  P  P262  1  0.70767539  0.74886762  0.72800435  1
  P  P263  1  0.70795383  0.74820474  0.97697789  1
  P  P264  1  0.29141111  0.24846339  0.02167198  1
  P  P265  1  0.29282170  0.25018776  0.27150967  1
  P  P266  1  0.29121990  0.25059523  0.52435452  1
  P  P267  1  0.29116652  0.24953225  0.77313344  1
  P  P268  1  0.29135799  0.58293132  0.02339710  1
  P  P269  1  0.29171895  0.58491228  0.27123099  1
  P  P270  1  0.29289640  0.58383372  0.52129194  1
  P  P271  1  0.29262797  0.58403833  0.77306791  1
  P  P272  1  0.29237381  0.91505782  0.02260888  1
  P  P273  1  0.29208583  0.91559234  0.27168670  1
  P  P274  1  0.29215148  0.91780231  0.52207436  1
  P  P275  1  0.29314238  0.91712547  0.77150020  1
  P  P276  1  0.79119169  0.24922328  0.02347360  1
  P  P277  1  0.79163915  0.24872059  0.27174268  1
  P  P278  1  0.79101671  0.24977620  0.52328049  1
  P  P279  1  0.79304129  0.25021086  0.77072514  1
  P  P280  1  0.79231726  0.58172380  0.02242917  1
  P  P281  1  0.79296270  0.58224315  0.27191685  1
  P  P282  1  0.79155869  0.58339218  0.52419235  1
  P  P283  1  0.79193956  0.58440085  0.77176073  1
  P  P284  1  0.79316986  0.91672071  0.02079687  1
  P  P285  1  0.79359039  0.91696659  0.27173139  1
  P  P286  1  0.79278078  0.91864505  0.52271932  1
  P  P287  1  0.79206213  0.91852787  0.77152398  1
  O  O288  1  0.03638485  0.24898701  0.18169096  1
  O  O289  1  0.03648520  0.24910932  0.43309824  1
  O  O290  1  0.03618943  0.24964713  0.68130044  1
  O  O291  1  0.03684698  0.25011281  0.93403569  1
  O  O292  1  0.03665138  0.58300044  0.18254520  1
  O  O293  1  0.03666880  0.58538127  0.43288864  1
  O  O294  1  0.03698417  0.58526076  0.68258873  1
  O  O295  1  0.03662326  0.58269178  0.93239788  1
  O  O296  1  0.03799956  0.91748095  0.18371856  1
  O  O297  1  0.03738364  0.91724762  0.43259625  1
  O  O298  1  0.03684704  0.91479442  0.68304264  1
  O  O299  1  0.03711502  0.91710688  0.93132622  1
  O  O300  1  0.53616547  0.24946888  0.18160254  1
  O  O301  1  0.53647790  0.24773318  0.43266039  1
  O  O302  1  0.53696681  0.24901684  0.68275575  1
  O  O303  1  0.53719685  0.25130336  0.93304824  1
  O  O304  1  0.53733498  0.58504964  0.18219915  1
  O  O305  1  0.53712021  0.58164025  0.43339955  1
  O  O306  1  0.53633371  0.58126840  0.68263328  1
  O  O307  1  0.53706046  0.58447035  0.93402932  1
  O  O308  1  0.53686244  0.91683486  0.18159291  1
  O  O309  1  0.53705806  0.91710605  0.43236637  1
  O  O310  1  0.53720626  0.91880915  0.68277321  1
  O  O311  1  0.53711097  0.91866396  0.93319086  1
  O  O312  1  0.46345358  0.08462442  0.06672716  1
  O  O313  1  0.46297596  0.08367021  0.31831603  1
  O  O314  1  0.46375572  0.08232815  0.56739355  1
  O  O315  1  0.46374892  0.08323457  0.81844399  1
  O  O316  1  0.46223451  0.41582564  0.06609375  1
  O  O317  1  0.46210025  0.41697616  0.31745189  1
  O  O318  1  0.46247473  0.41537898  0.56765770  1
  O  O319  1  0.46270678  0.41439380  0.81747722  1
  O  O320  1  0.46424487  0.75167927  0.06673931  1
  O  O321  1  0.46313426  0.75170600  0.31630929  1
  O  O322  1  0.46181601  0.74994900  0.56701149  1
  O  O323  1  0.46307081  0.75076609  0.81875677  1
  O  O324  1  0.96405493  0.08422026  0.06836014  1
  O  O325  1  0.96381086  0.08413464  0.31700973  1
  O  O326  1  0.96371611  0.08246802  0.56716488  1
  O  O327  1  0.96312685  0.08334002  0.81734585  1
  O  O328  1  0.96313465  0.41634180  0.06604533  1
  O  O329  1  0.96195026  0.41561982  0.31762141  1
  O  O330  1  0.96259700  0.41577881  0.56606456  1
  O  O331  1  0.96299010  0.41676279  0.81849143  1
  O  O332  1  0.96261631  0.74893149  0.06767677  1
  O  O333  1  0.96333427  0.74981157  0.31855837  1
  O  O334  1  0.96414344  0.75004746  0.56799625  1
  O  O335  1  0.96332006  0.75063888  0.81573056  1
  O  O336  1  0.21311802  0.08447815  0.05763673  1
  O  O337  1  0.21302845  0.08442122  0.30729332  1
  O  O338  1  0.21279488  0.08329666  0.55923092  1
  O  O339  1  0.21361323  0.08407074  0.80682707  1
  O  O340  1  0.21294309  0.41629866  0.05781107  1
  O  O341  1  0.21212458  0.41827470  0.30724489  1
  O  O342  1  0.21203322  0.41591480  0.55873116  1
  O  O343  1  0.21299347  0.41466385  0.80824918  1
  O  O344  1  0.21357408  0.74842184  0.05820199  1
  O  O345  1  0.21429860  0.75066153  0.30677773  1
  O  O346  1  0.21350616  0.75072518  0.55564774  1
  O  O347  1  0.21218468  0.74906345  0.80843006  1
  O  O348  1  0.71328411  0.08302167  0.05712068  1
  O  O349  1  0.71282015  0.08549761  0.30741780  1
  O  O350  1  0.71392800  0.08464763  0.55798799  1
  O  O351  1  0.71395511  0.08268513  0.80646545  1
  O  O352  1  0.71260980  0.41605181  0.05898730  1
  O  O353  1  0.71270938  0.41594855  0.30649685  1
  O  O354  1  0.71261619  0.41663721  0.55940292  1
  O  O355  1  0.71308545  0.41649782  0.80655351  1
  O  O356  1  0.71301472  0.74851184  0.05696359  1
  O  O357  1  0.71208624  0.75035746  0.30832143  1
  O  O358  1  0.71272098  0.74971338  0.55933748  1
  O  O359  1  0.71316077  0.74858167  0.80794143  1
  O  O360  1  0.28761948  0.24965778  0.19153918  1
  O  O361  1  0.28688524  0.25041901  0.44432391  1
  O  O362  1  0.28591330  0.24976663  0.69321231  1
  O  O363  1  0.28587330  0.24859449  0.94179354  1
  O  O364  1  0.28605281  0.58439279  0.19133422  1
  O  O365  1  0.28762939  0.58432885  0.44132574  1
  O  O366  1  0.28762954  0.58373060  0.69307733  1
  O  O367  1  0.28646065  0.58314447  0.94337013  1
  O  O368  1  0.28678701  0.91548171  0.19174424  1
  O  O369  1  0.28681626  0.91720508  0.44212065  1
  O  O370  1  0.28789662  0.91777592  0.69152639  1
  O  O371  1  0.28739134  0.91529294  0.94263088  1
  O  O372  1  0.78614524  0.24887409  0.19186188  1
  O  O373  1  0.78618473  0.24957606  0.44326723  1
  O  O374  1  0.78778482  0.25019286  0.69081777  1
  O  O375  1  0.78699071  0.24956635  0.94341990  1
  O  O376  1  0.78783394  0.58165576  0.19193474  1
  O  O377  1  0.78664249  0.58316823  0.44415977  1
  O  O378  1  0.78641256  0.58434971  0.69187153  1
  O  O379  1  0.78697353  0.58250692  0.94246466  1
  O  O380  1  0.78863543  0.91666129  0.19171312  1
  O  O381  1  0.78786227  0.91831685  0.44271033  1
  O  O382  1  0.78647079  0.91889490  0.69160046  1
  O  O383  1  0.78775628  0.91714876  0.94081377  1
  O  O384  1  0.22737103  0.24827336  0.05807212  1
  O  O385  1  0.22842721  0.25033493  0.30670015  1
  O  O386  1  0.22687418  0.25107881  0.55971496  1
  O  O387  1  0.22712193  0.24954681  0.80949578  1
  O  O388  1  0.22718788  0.58323144  0.05931540  1
  O  O389  1  0.22769758  0.58578844  0.30768315  1
  O  O390  1  0.22852308  0.58330501  0.55656709  1
  O  O391  1  0.22823918  0.58424228  0.80844527  1
  O  O392  1  0.22806109  0.91507339  0.05802847  1
  O  O393  1  0.22789239  0.91558962  0.30756357  1
  O  O394  1  0.22797803  0.91858463  0.55804657  1
  O  O395  1  0.22878907  0.91653176  0.80673395  1
  O  O396  1  0.72684571  0.24868230  0.05879594  1
  O  O397  1  0.72749054  0.24830764  0.30795630  1
  O  O398  1  0.72695476  0.24925752  0.55931236  1
  O  O399  1  0.72877685  0.24970249  0.80630403  1
  O  O400  1  0.72808458  0.58088953  0.05827795  1
  O  O401  1  0.72851919  0.58279648  0.30696759  1
  O  O402  1  0.72734465  0.58330435  0.55996153  1
  O  O403  1  0.72781231  0.58454908  0.80791052  1
  O  O404  1  0.72883882  0.91676943  0.05617715  1
  O  O405  1  0.72911921  0.91737025  0.30662965  1
  O  O406  1  0.72837729  0.91867798  0.55795131  1
  O  O407  1  0.72800785  0.91820997  0.80774662  1
  O  O408  1  0.27207491  0.08479441  0.19167878  1
  O  O409  1  0.27180410  0.08324199  0.44364773  1
  O  O410  1  0.27297058  0.08306216  0.69090344  1
  O  O411  1  0.27225393  0.08469395  0.94204694  1
  O  O412  1  0.27129136  0.41802839  0.19175625  1
  O  O413  1  0.27115412  0.41743717  0.44341999  1
  O  O414  1  0.27171269  0.41470435  0.69237147  1
  O  O415  1  0.27189639  0.41487744  0.94198613  1
  O  O416  1  0.27275517  0.74991872  0.19021525  1
  O  O417  1  0.27279420  0.75029034  0.43975477  1
  O  O418  1  0.27160372  0.75033572  0.69337791  1
  O  O419  1  0.27234148  0.74763815  0.94218776  1
  O  O420  1  0.77210875  0.08514470  0.19198644  1
  O  O421  1  0.77243149  0.08598307  0.44180202  1
  O  O422  1  0.77290759  0.08420475  0.69047618  1
  O  O423  1  0.77262439  0.08163711  0.94159687  1
  O  O424  1  0.77229685  0.41657102  0.19076771  1
  O  O425  1  0.77149951  0.41592385  0.44376525  1
  O  O426  1  0.77257030  0.41730868  0.69085496  1
  O  O427  1  0.77170507  0.41653565  0.94344795  1
  O  O428  1  0.77146441  0.74947483  0.19341341  1
  O  O429  1  0.77194037  0.75010284  0.44406461  1
  O  O430  1  0.77188949  0.74918539  0.69218409  1
  O  O431  1  0.77222348  0.74837663  0.94138502  1
  O  O432  1  0.02304060  0.08389737  0.18459131  1
  O  O433  1  0.02218110  0.08454791  0.43327341  1
  O  O434  1  0.02265391  0.08137448  0.68296919  1
  O  O435  1  0.02217731  0.08549163  0.93295770  1
  O  O436  1  0.02153798  0.41624635  0.18212593  1
  O  O437  1  0.02149065  0.41563963  0.43286736  1
  O  O438  1  0.02170580  0.41661409  0.68147855  1
  O  O439  1  0.02234580  0.41702568  0.93441225  1
  O  O440  1  0.02198469  0.74869190  0.18314423  1
  O  O441  1  0.02284200  0.75049169  0.43436017  1
  O  O442  1  0.02283862  0.74985597  0.68442393  1
  O  O443  1  0.02173609  0.74998451  0.93168060  1
  O  O444  1  0.52208381  0.08484325  0.18287112  1
  O  O445  1  0.52239849  0.08306608  0.43421110  1
  O  O446  1  0.52252979  0.08202160  0.68350521  1
  O  O447  1  0.52299874  0.08302850  0.93424182  1
  O  O448  1  0.52129144  0.41601428  0.18141988  1
  O  O449  1  0.52128980  0.41707287  0.43300163  1
  O  O450  1  0.52177719  0.41421625  0.68333754  1
  O  O451  1  0.52163145  0.41535267  0.93316634  1
  O  O452  1  0.52265334  0.75264583  0.18307098  1
  O  O453  1  0.52149767  0.75017922  0.43207039  1
  O  O454  1  0.52128021  0.75021256  0.68200940  1
  O  O455  1  0.52295848  0.75050200  0.93415270  1
  O  O456  1  0.47681776  0.25064051  0.06566380  1
  O  O457  1  0.47760631  0.24790978  0.31689498  1
  O  O458  1  0.47746342  0.24785282  0.56717342  1
  O  O459  1  0.47817191  0.25106602  0.81721277  1
  O  O460  1  0.47775611  0.58530480  0.06695902  1
  O  O461  1  0.47848902  0.58360556  0.31785154  1
  O  O462  1  0.47729839  0.58106988  0.56689798  1
  O  O463  1  0.47807333  0.58299199  0.81881698  1
  O  O464  1  0.47778588  0.91835073  0.06552076  1
  O  O465  1  0.47825980  0.91591364  0.31640842  1
  O  O466  1  0.47811697  0.91863928  0.56705127  1
  O  O467  1  0.47822312  0.91898429  0.81721224  1
  O  O468  1  0.97705367  0.24928277  0.06568125  1
  O  O469  1  0.97771853  0.24794163  0.31707666  1
  O  O470  1  0.97678037  0.24874639  0.56544261  1
  O  O471  1  0.97829701  0.24957956  0.81826948  1
  O  O472  1  0.97773846  0.58146890  0.06670069  1
  O  O473  1  0.97757486  0.58510819  0.31716318  1
  O  O474  1  0.97798425  0.58510767  0.56690575  1
  O  O475  1  0.97780985  0.58479108  0.81654552  1
  O  O476  1  0.97896693  0.91722127  0.06832539  1
  O  O477  1  0.97846383  0.91828894  0.31677645  1
  O  O478  1  0.97829309  0.91465724  0.56683212  1
  O  O479  1  0.97781673  0.91696474  0.81534275  1
  O  O480  1  0.07160875  0.31343891  0.07374816  1
  O  O481  1  0.07251720  0.31255614  0.32484503  1
  O  O482  1  0.07107840  0.31335773  0.57287219  1
  O  O483  1  0.07327299  0.31369937  0.82572066  1
  O  O484  1  0.07284471  0.64578836  0.07428274  1
  O  O485  1  0.07261040  0.64848860  0.32395785  1
  O  O486  1  0.07334004  0.64829561  0.57391338  1
  O  O487  1  0.07305164  0.64749412  0.82470483  1
  O  O488  1  0.07472183  0.98017010  0.07523015  1
  O  O489  1  0.07341426  0.98158679  0.32450737  1
  O  O490  1  0.07348454  0.97842047  0.57529108  1
  O  O491  1  0.07264195  0.98069726  0.82315522  1
  O  O492  1  0.57211100  0.31364789  0.07380408  1
  O  O493  1  0.57281297  0.31171584  0.32509664  1
  O  O494  1  0.57269482  0.31178285  0.57427328  1
  O  O495  1  0.57318970  0.31452755  0.82392579  1
  O  O496  1  0.57303041  0.64857241  0.07382667  1
  O  O497  1  0.57420295  0.64623435  0.32621316  1
  O  O498  1  0.57255348  0.64488469  0.57510800  1
  O  O499  1  0.57346608  0.64675765  0.82506265  1
  O  O500  1  0.57315946  0.98119838  0.07416690  1
  O  O501  1  0.57348803  0.97989820  0.32421238  1
  O  O502  1  0.57343039  0.98149286  0.57358920  1
  O  O503  1  0.57347437  0.98187607  0.82437704  1
  O  O504  1  0.42673577  0.02140668  0.17471041  1
  O  O505  1  0.42763523  0.01908951  0.42605405  1
  O  O506  1  0.42749946  0.01869254  0.67608478  1
  O  O507  1  0.42734115  0.02031530  0.92694120  1
  O  O508  1  0.42542525  0.35336357  0.17468767  1
  O  O509  1  0.42579762  0.35361933  0.42509901  1
  O  O510  1  0.42695319  0.35075031  0.67582103  1
  O  O511  1  0.42674755  0.35144391  0.92638425  1
  O  O512  1  0.42752015  0.68862559  0.17474868  1
  O  O513  1  0.42604966  0.68719890  0.42349201  1
  O  O514  1  0.42580437  0.68674645  0.67532776  1
  O  O515  1  0.42770576  0.68717627  0.92709968  1
  O  O516  1  0.92850867  0.01979228  0.17629341  1
  O  O517  1  0.92697776  0.02075190  0.42489744  1
  O  O518  1  0.92769460  0.01826881  0.67537343  1
  O  O519  1  0.92747955  0.02043754  0.92581677  1
  O  O520  1  0.92633135  0.35263372  0.17390327  1
  O  O521  1  0.92678807  0.35161391  0.42606304  1
  O  O522  1  0.92633286  0.35299799  0.67464229  1
  O  O523  1  0.92757710  0.35314948  0.92684424  1
  O  O524  1  0.92705015  0.68508597  0.17607848  1
  O  O525  1  0.92761691  0.68692562  0.42738700  1
  O  O526  1  0.92781252  0.68643195  0.67632271  1
  O  O527  1  0.92600217  0.68729824  0.92371381  1
  O  O528  1  0.17676138  0.02110361  0.19963377  1
  O  O529  1  0.17600024  0.02062538  0.45044565  1
  O  O530  1  0.17791286  0.01981633  0.69884700  1
  O  O531  1  0.17730868  0.02035035  0.95000497  1
  O  O532  1  0.17568378  0.35474974  0.19964604  1
  O  O533  1  0.17613905  0.35310901  0.44984401  1
  O  O534  1  0.17612795  0.35204413  0.69950259  1
  O  O535  1  0.17698374  0.35159252  0.94988399  1
  O  O536  1  0.17750329  0.68684360  0.19880142  1
  O  O537  1  0.17772615  0.68703584  0.44750474  1
  O  O538  1  0.17636934  0.68636307  0.69953634  1
  O  O539  1  0.17717881  0.68461693  0.94968346  1
  O  O540  1  0.67710416  0.02093274  0.19993729  1
  O  O541  1  0.67758589  0.02154603  0.44966984  1
  O  O542  1  0.67821960  0.01980478  0.69769066  1
  O  O543  1  0.67740411  0.01881608  0.94880123  1
  O  O544  1  0.67782706  0.35219154  0.19815083  1
  O  O545  1  0.67591432  0.35310531  0.45099817  1
  O  O546  1  0.67819097  0.35270619  0.69812443  1
  O  O547  1  0.67669778  0.35244458  0.95047446  1
  O  O548  1  0.67568231  0.68654556  0.20053798  1
  O  O549  1  0.67630629  0.68679218  0.45091772  1
  O  O550  1  0.67676985  0.68560884  0.69911602  1
  O  O551  1  0.67745662  0.68448735  0.94873579  1
  O  O552  1  0.32251384  0.31209603  0.04961644  1
  O  O553  1  0.32362372  0.31398775  0.29943239  1
  O  O554  1  0.32237971  0.31394144  0.55260868  1
  O  O555  1  0.32209398  0.31300353  0.80182982  1
  O  O556  1  0.32266541  0.64619846  0.05179193  1
  O  O557  1  0.32308741  0.64828212  0.29940592  1
  O  O558  1  0.32392885  0.64722477  0.54965844  1
  O  O559  1  0.32335686  0.64746392  0.80171994  1
  O  O560  1  0.32336253  0.97880567  0.05025066  1
  O  O561  1  0.32303736  0.97945421  0.29932122  1
  O  O562  1  0.32313168  0.98128561  0.55042317  1
  O  O563  1  0.32402746  0.98043681  0.80033809  1
  O  O564  1  0.82119442  0.31312496  0.05235026  1
  O  O565  1  0.82249735  0.31250064  0.29988535  1
  O  O566  1  0.82105411  0.31402687  0.55141681  1
  O  O567  1  0.82385625  0.31372996  0.79938596  1
  O  O568  1  0.82322539  0.64534320  0.05054732  1
  O  O569  1  0.82402735  0.64582688  0.29998822  1
  O  O570  1  0.82223178  0.64726332  0.55204122  1
  O  O571  1  0.82293811  0.64766950  0.80067889  1
  O  O572  1  0.82458765  0.97978666  0.04947498  1
  O  O573  1  0.82459998  0.98062398  0.29947830  1
  O  O574  1  0.82344862  0.98234604  0.55082692  1
  O  O575  1  0.82297695  0.98180771  0.80026687  1
  O  O576  1  0.42716567  0.14829129  0.17541696  1
  O  O577  1  0.42712767  0.14644360  0.42726415  1
  O  O578  1  0.42716543  0.14549966  0.67553380  1
  O  O579  1  0.42868933  0.14759540  0.92648489  1
  O  O580  1  0.42632601  0.48028478  0.17373318  1
  O  O581  1  0.42644066  0.48089016  0.42592940  1
  O  O582  1  0.42624475  0.47790002  0.67615854  1
  O  O583  1  0.42606937  0.47853777  0.92478023  1
  O  O584  1  0.42753869  0.81568776  0.17494863  1
  O  O585  1  0.42618219  0.81406342  0.42481738  1
  O  O586  1  0.42604105  0.81384267  0.67502993  1
  O  O587  1  0.42829582  0.81473230  0.92702843  1
  O  O588  1  0.92777570  0.14722447  0.17663727  1
  O  O589  1  0.92703704  0.14759784  0.42566830  1
  O  O590  1  0.92737405  0.14539061  0.67517355  1
  O  O591  1  0.92643708  0.14746347  0.92544752  1
  O  O592  1  0.92610558  0.47935308  0.17452522  1
  O  O593  1  0.92586830  0.47898128  0.42541042  1
  O  O594  1  0.92641360  0.47987935  0.67394917  1
  O  O595  1  0.92730215  0.48073717  0.92628199  1
  O  O596  1  0.92656322  0.81232392  0.17553012  1
  O  O597  1  0.92797578  0.81424042  0.42658272  1
  O  O598  1  0.92785667  0.81358721  0.67622117  1
  O  O599  1  0.92675503  0.81409857  0.92405083  1
  O  O600  1  0.07236480  0.18603453  0.07325489  1
  O  O601  1  0.07338456  0.18570927  0.32447844  1
  O  O602  1  0.07215720  0.18570618  0.57372757  1
  O  O603  1  0.07406324  0.18702791  0.82557908  1
  O  O604  1  0.07295275  0.51875873  0.07435449  1
  O  O605  1  0.07279022  0.52125818  0.32544663  1
  O  O606  1  0.07316316  0.52122684  0.57499152  1
  O  O607  1  0.07293410  0.52036762  0.82396648  1
  O  O608  1  0.07393312  0.85326759  0.07566902  1
  O  O609  1  0.07376912  0.85441777  0.32457382  1
  O  O610  1  0.07339425  0.85155392  0.57417506  1
  O  O611  1  0.07283876  0.85317801  0.82344038  1
  O  O612  1  0.57134581  0.18635107  0.07267219  1
  O  O613  1  0.57270939  0.18459207  0.32373390  1
  O  O614  1  0.57260356  0.18475467  0.57457927  1
  O  O615  1  0.57365798  0.18763610  0.82524578  1
  O  O616  1  0.57295139  0.52124961  0.07458557  1
  O  O617  1  0.57367528  0.51936890  0.32445857  1
  O  O618  1  0.57216770  0.51746095  0.57438162  1
  O  O619  1  0.57364299  0.51991037  0.82662056  1
  O  O620  1  0.57231517  0.85387233  0.07262837  1
  O  O621  1  0.57340498  0.85281221  0.32433595  1
  O  O622  1  0.57317981  0.85441766  0.57547377  1
  O  O623  1  0.57325309  0.85483903  0.82525024  1
  O  O624  1  0.32248167  0.18514344  0.05039911  1
  O  O625  1  0.32408953  0.18708945  0.30031202  1
  O  O626  1  0.32131059  0.18650551  0.55283668  1
  O  O627  1  0.32212587  0.18576108  0.80122156  1
  O  O628  1  0.32170367  0.51879034  0.05129135  1
  O  O629  1  0.32256703  0.52123406  0.29944708  1
  O  O630  1  0.32396655  0.52034796  0.54959476  1
  O  O631  1  0.32352180  0.52024869  0.80084485  1
  O  O632  1  0.32305056  0.85152022  0.05101101  1
  O  O633  1  0.32304699  0.85234062  0.30051704  1
  O  O634  1  0.32306431  0.85413875  0.55008737  1
  O  O635  1  0.32443168  0.85362940  0.79935698  1
  O  O636  1  0.82234748  0.18566660  0.05132554  1
  O  O637  1  0.82288565  0.18563755  0.30065768  1
  O  O638  1  0.82270253  0.18674821  0.55162625  1
  O  O639  1  0.82451542  0.18699792  0.79921919  1
  O  O640  1  0.82325727  0.51818749  0.05062840  1
  O  O641  1  0.82387796  0.51891096  0.30065696  1
  O  O642  1  0.82240791  0.51972402  0.55230919  1
  O  O643  1  0.82304893  0.52068346  0.79964139  1
  O  O644  1  0.82403009  0.85290014  0.04857935  1
  O  O645  1  0.82446238  0.85359298  0.30033012  1
  O  O646  1  0.82377924  0.85508317  0.55082830  1
  O  O647  1  0.82325104  0.85463513  0.79860666  1
  O  O648  1  0.17708908  0.14836788  0.19908407  1
  O  O649  1  0.17676587  0.14733081  0.45111052  1
  O  O650  1  0.17824382  0.14724743  0.69827581  1
  O  O651  1  0.17674128  0.14739154  0.94863606  1
  O  O652  1  0.17650652  0.48199329  0.19877249  1
  O  O653  1  0.17529534  0.47995171  0.45096721  1
  O  O654  1  0.17694443  0.47921021  0.70084722  1
  O  O655  1  0.17657081  0.47871598  0.94952676  1
  O  O656  1  0.17801444  0.81397448  0.19836227  1
  O  O657  1  0.17810844  0.81456451  0.44763521  1
  O  O658  1  0.17605653  0.81319775  0.70042490  1
  O  O659  1  0.17714699  0.81171098  0.95015582  1
  O  O660  1  0.67655303  0.14794468  0.19812870  1
  O  O661  1  0.67697897  0.14848733  0.44977164  1
  O  O662  1  0.67757172  0.14713088  0.69897761  1
  O  O663  1  0.67745191  0.14590714  0.94879665  1
  O  O664  1  0.67702521  0.47972836  0.19834210  1
  O  O665  1  0.67634450  0.47979072  0.45078871  1
  O  O666  1  0.67709532  0.48025538  0.69886111  1
  O  O667  1  0.67585952  0.47910238  0.95043123  1
  O  O668  1  0.67634777  0.81353922  0.19957560  1
  O  O669  1  0.67668728  0.81383284  0.45145269  1
  O  O670  1  0.67648060  0.81274319  0.70078529  1
  O  O671  1  0.67672674  0.81175383  0.94916316  1
