# generated using pymatgen
data_Na2MnFe(PO4)2
_symmetry_space_group_name_H-M   'P 1'
_cell_length_a   22.34243482
_cell_length_b   20.09333463
_cell_length_c   19.44911922
_cell_angle_alpha   89.99064320
_cell_angle_beta   89.97197327
_cell_angle_gamma   89.95768940
_symmetry_Int_Tables_number   1
_chemical_formula_structural   Na2MnFe(PO4)2
_chemical_formula_sum   'Na96 Mn48 Fe48 P96 O384'
_cell_volume   8731.36771995
_cell_formula_units_Z   48
loop_
 _symmetry_equiv_pos_site_id
 _symmetry_equiv_pos_as_xyz
  1  'x, y, z'
loop_
 _atom_site_type_symbol
 _atom_site_label
 _atom_site_symmetry_multiplicity
 _atom_site_fract_x
 _atom_site_fract_y
 _atom_site_fract_z
 _atom_site_occupancy
  Na  Na0  1  0.14117669  0.24895758  0.24420416  1
  Na  Na1  1  0.14091790  0.24985255  0.49299585  1
  Na  Na2  1  0.14033160  0.24975104  0.74522879  1
  Na  Na3  1  0.14084736  0.25091735  0.99447930  1
  Na  Na4  1  0.14062014  0.58199610  0.24364455  1
  Na  Na5  1  0.14033228  0.58275604  0.49241484  1
  Na  Na6  1  0.14075043  0.58385139  0.74382764  1
  Na  Na7  1  0.14086690  0.58322993  0.99436977  1
  Na  Na8  1  0.14045809  0.91688516  0.24378596  1
  Na  Na9  1  0.14070346  0.91754065  0.49355224  1
  Na  Na10  1  0.14065794  0.91738346  0.74391343  1
  Na  Na11  1  0.14041592  0.91788384  0.99422778  1
  Na  Na12  1  0.64038819  0.25074964  0.24272302  1
  Na  Na13  1  0.64020524  0.25156299  0.49407792  1
  Na  Na14  1  0.63971129  0.25037576  0.74429838  1
  Na  Na15  1  0.63985536  0.24909212  0.99380163  1
  Na  Na16  1  0.64027846  0.58276901  0.24188611  1
  Na  Na17  1  0.63978991  0.58469655  0.49272267  1
  Na  Na18  1  0.64043308  0.58348987  0.74381908  1
  Na  Na19  1  0.64055093  0.58241451  0.99419511  1
  Na  Na20  1  0.63963848  0.91616991  0.24186978  1
  Na  Na21  1  0.64062693  0.91837586  0.49270528  1
  Na  Na22  1  0.64023242  0.91658916  0.74453724  1
  Na  Na23  1  0.63973591  0.91516461  0.99358394  1
  Na  Na24  1  0.35976654  0.08462031  0.00831817  1
  Na  Na25  1  0.35943544  0.08235272  0.25621349  1
  Na  Na26  1  0.35964751  0.08225476  0.50449412  1
  Na  Na27  1  0.35967294  0.08411592  0.75714888  1
  Na  Na28  1  0.35950743  0.41584731  0.00706322  1
  Na  Na29  1  0.36029036  0.41508324  0.25768298  1
  Na  Na30  1  0.36050204  0.41589730  0.50579953  1
  Na  Na31  1  0.35969820  0.41533557  0.75739727  1
  Na  Na32  1  0.35994677  0.75064785  0.00778298  1
  Na  Na33  1  0.35976720  0.74948073  0.25664374  1
  Na  Na34  1  0.35969253  0.74956422  0.50535005  1
  Na  Na35  1  0.35969503  0.74944214  0.75594215  1
  Na  Na36  1  0.85922078  0.08232835  0.00620205  1
  Na  Na37  1  0.85912854  0.08231987  0.25634505  1
  Na  Na38  1  0.85926490  0.08469720  0.50627972  1
  Na  Na39  1  0.85976304  0.08396140  0.75614246  1
  Na  Na40  1  0.85884007  0.41577616  0.00726771  1
  Na  Na41  1  0.85964548  0.41656796  0.25605676  1
  Na  Na42  1  0.85990332  0.41865960  0.50636253  1
  Na  Na43  1  0.85903957  0.41753321  0.75564909  1
  Na  Na44  1  0.85954634  0.74909973  0.00624637  1
  Na  Na45  1  0.85925951  0.74963875  0.25480475  1
  Na  Na46  1  0.85900696  0.75212705  0.50558622  1
  Na  Na47  1  0.85951560  0.75030418  0.75600086  1
  Na  Na48  1  0.11014497  0.08233692  0.11925758  1
  Na  Na49  1  0.11027553  0.08289256  0.36835805  1
  Na  Na50  1  0.10963911  0.08348780  0.61964792  1
  Na  Na51  1  0.10977570  0.08401018  0.86975116  1
  Na  Na52  1  0.11040302  0.41669097  0.11934218  1
  Na  Na53  1  0.11018513  0.41771106  0.36817764  1
  Na  Na54  1  0.10999272  0.41658465  0.61928247  1
  Na  Na55  1  0.11013292  0.41699381  0.86843350  1
  Na  Na56  1  0.10998726  0.74926967  0.11946550  1
  Na  Na57  1  0.10959832  0.75038506  0.36834897  1
  Na  Na58  1  0.10976279  0.75034861  0.61859006  1
  Na  Na59  1  0.10985833  0.75171101  0.86887065  1
  Na  Na60  1  0.60915934  0.08320455  0.11768900  1
  Na  Na61  1  0.60973125  0.08370016  0.36718215  1
  Na  Na62  1  0.60971348  0.08417812  0.61865847  1
  Na  Na63  1  0.60930988  0.08340484  0.86961730  1
  Na  Na64  1  0.60996117  0.41626554  0.11807550  1
  Na  Na65  1  0.60993874  0.41647696  0.36862201  1
  Na  Na66  1  0.60912479  0.41662692  0.61911497  1
  Na  Na67  1  0.60984573  0.41541750  0.86979321  1
  Na  Na68  1  0.60957057  0.75084534  0.11716701  1
  Na  Na69  1  0.60950481  0.74973273  0.36713473  1
  Na  Na70  1  0.60987387  0.74869348  0.61790919  1
  Na  Na71  1  0.60971234  0.74918218  0.86978489  1
  Na  Na72  1  0.38999088  0.25012285  0.13219204  1
  Na  Na73  1  0.39021230  0.25080185  0.38129839  1
  Na  Na74  1  0.39032925  0.25042177  0.63060918  1
  Na  Na75  1  0.38999918  0.24949210  0.88335431  1
  Na  Na76  1  0.39058136  0.58354909  0.13197264  1
  Na  Na77  1  0.39119033  0.58155329  0.38133685  1
  Na  Na78  1  0.39053105  0.58182297  0.63047746  1
  Na  Na79  1  0.39035246  0.58253511  0.88257388  1
  Na  Na80  1  0.39039228  0.91710583  0.13204611  1
  Na  Na81  1  0.38994936  0.91540030  0.38077753  1
  Na  Na82  1  0.39032850  0.91587962  0.63047558  1
  Na  Na83  1  0.39080563  0.91659671  0.88259752  1
  Na  Na84  1  0.88949192  0.24975613  0.13244251  1
  Na  Na85  1  0.89016725  0.24998606  0.38120221  1
  Na  Na86  1  0.89037724  0.25030025  0.63166624  1
  Na  Na87  1  0.88976448  0.25014110  0.88126821  1
  Na  Na88  1  0.89021087  0.58353400  0.13131872  1
  Na  Na89  1  0.89014498  0.58403327  0.37969499  1
  Na  Na90  1  0.89025807  0.58408249  0.63063913  1
  Na  Na91  1  0.89015692  0.58538230  0.88122214  1
  Na  Na92  1  0.89011291  0.91479998  0.13086254  1
  Na  Na93  1  0.88955560  0.91703736  0.38048908  1
  Na  Na94  1  0.89005504  0.91818675  0.63105107  1
  Na  Na95  1  0.89018755  0.91736269  0.88029969  1
  Mn  Mn96  1  0.74999570  0.33308774  0.37481202  1
  Mn  Mn97  1  0.00031460  0.16575144  0.50064590  1
  Mn  Mn98  1  0.25008850  0.66602382  0.37520233  1
  Mn  Mn99  1  0.25070086  0.49900515  0.12519812  1
  Mn  Mn100  1  -0.00029895  0.66623567  0.49909935  1
  Mn  Mn101  1  0.25094264  0.00156107  0.87485770  1
  Mn  Mn102  1  -0.00076653  -0.00101382  -0.00060939  1
  Mn  Mn103  1  0.50092309  0.83210013  0.49967499  1
  Mn  Mn104  1  0.50032112  0.49862225  0.75083323  1
  Mn  Mn105  1  0.00044503  0.33430033  0.50044226  1
  Mn  Mn106  1  0.74965444  0.16784146  0.62583351  1
  Mn  Mn107  1  0.74976367  0.50060791  0.37460698  1
  Mn  Mn108  1  0.49904083  0.16751990  0.75003209  1
  Mn  Mn109  1  0.25058751  0.66720863  0.62423165  1
  Mn  Mn110  1  -0.00041886  0.50133241  0.74968408  1
  Mn  Mn111  1  0.74992427  0.49956305  0.87493113  1
  Mn  Mn112  1  0.74990087  0.16641359  0.87481773  1
  Mn  Mn113  1  0.24976035  0.83350720  0.12545347  1
  Mn  Mn114  1  0.00017877  0.50075785  -0.00042161  1
  Mn  Mn115  1  0.75001253  0.83259276  0.87412953  1
  Mn  Mn116  1  0.74965908  -0.00080935  0.12519500  1
  Mn  Mn117  1  -0.00038096  0.83430536  0.49948157  1
  Mn  Mn118  1  0.00092388  0.66782125  0.00033680  1
  Mn  Mn119  1  0.25007836  -0.00058737  0.62517890  1
  Mn  Mn120  1  0.00003014  0.83324752  0.25041798  1
  Mn  Mn121  1  0.00012049  0.83429113  0.74914227  1
  Mn  Mn122  1  0.24985159  0.49947236  0.62512785  1
  Mn  Mn123  1  -0.00067969  0.33325716  0.74940871  1
  Mn  Mn124  1  0.74948581  0.83464842  0.62526748  1
  Mn  Mn125  1  0.00011993  0.16543565  0.25096485  1
  Mn  Mn126  1  0.25043444  0.83399022  0.87601909  1
  Mn  Mn127  1  -0.00072866  0.16619572  0.00070518  1
  Mn  Mn128  1  0.74990387  0.66821714  0.37339911  1
  Mn  Mn129  1  0.00049974  0.33421695  0.25095305  1
  Mn  Mn130  1  0.74961396  0.50121525  0.62543256  1
  Mn  Mn131  1  0.50015596  -0.00040490  0.49933383  1
  Mn  Mn132  1  0.74933209  0.00087340  0.37413081  1
  Mn  Mn133  1  0.25058625  0.16663150  0.62475067  1
  Mn  Mn134  1  0.50011196  0.83260869  0.75020433  1
  Mn  Mn135  1  0.50013173  0.16698851  0.24963470  1
  Mn  Mn136  1  -0.00026334  0.33347200  0.00010954  1
  Mn  Mn137  1  0.24977543  0.66643832  0.87521082  1
  Mn  Mn138  1  0.49995795  0.49954176  0.00063534  1
  Mn  Mn139  1  0.49975548  0.66584341  0.75024619  1
  Mn  Mn140  1  0.49982719  0.16752897  0.49884214  1
  Mn  Mn141  1  0.24990812  0.33304459  0.62529092  1
  Mn  Mn142  1  0.49988009  0.00021477  0.75036637  1
  Mn  Mn143  1  0.50033442  0.66641886  0.24988860  1
  Fe  Fe144  1  0.49973865  0.83315130  0.24901028  1
  Fe  Fe145  1  0.25069373  0.49891039  0.37424918  1
  Fe  Fe146  1  0.00048071  0.50077933  0.49962067  1
  Fe  Fe147  1  -0.00007693  -0.00080157  0.24971963  1
  Fe  Fe148  1  0.49961365  0.16677509  0.00058955  1
  Fe  Fe149  1  0.00011321  0.83340281  -0.00002412  1
  Fe  Fe150  1  0.74985841  0.66611631  0.87540515  1
  Fe  Fe151  1  0.74905999  0.83398743  0.37420410  1
  Fe  Fe152  1  0.00030389  0.00058833  0.75049899  1
  Fe  Fe153  1  0.25015239  0.00045796  0.12569925  1
  Fe  Fe154  1  0.25039440  0.16599685  0.37413077  1
  Fe  Fe155  1  0.74998993  0.83258510  0.12371018  1
  Fe  Fe156  1  0.00025412  0.66765148  0.74961527  1
  Fe  Fe157  1  0.74965119  0.66782069  0.62444175  1
  Fe  Fe158  1  0.24985943  0.33295040  0.12564037  1
  Fe  Fe159  1  0.74980458  0.66625161  0.12458610  1
  Fe  Fe160  1  0.25043492  0.66605171  0.12568040  1
  Fe  Fe161  1  0.50056230  0.49940866  0.25051851  1
  Fe  Fe162  1  0.24957941  0.83294310  0.37458856  1
  Fe  Fe163  1  0.50040352  0.33370410  0.50017777  1
  Fe  Fe164  1  0.74956227  0.16593018  0.12463263  1
  Fe  Fe165  1  0.49985558  0.66549608  0.49911771  1
  Fe  Fe166  1  0.24994682  0.33312278  0.87621687  1
  Fe  Fe167  1  0.49975439  -0.00007460  0.00015734  1
  Fe  Fe168  1  0.49965773  0.33283248  0.75044044  1
  Fe  Fe169  1  0.25010358  -0.00048092  0.37487511  1
  Fe  Fe170  1  0.25045579  0.33256085  0.37464775  1
  Fe  Fe171  1  0.74981575  0.16743036  0.37512665  1
  Fe  Fe172  1  0.50023560  0.66666854  0.00093550  1
  Fe  Fe173  1  -0.00011676  0.00042162  0.50059741  1
  Fe  Fe174  1  0.50022894  0.49900309  0.49996172  1
  Fe  Fe175  1  0.74979435  -0.00047600  0.87523462  1
  Fe  Fe176  1  0.75022046  0.33223341  0.12525524  1
  Fe  Fe177  1  0.75026929  0.49923177  0.12408447  1
  Fe  Fe178  1  0.74976670  0.33295350  0.87569003  1
  Fe  Fe179  1  0.74983728  0.33421750  0.62484947  1
  Fe  Fe180  1  0.74970506  0.00125100  0.62440407  1
  Fe  Fe181  1  0.25039996  0.49989693  0.87556059  1
  Fe  Fe182  1  0.49946967  0.33321556  0.00072175  1
  Fe  Fe183  1  0.25040619  0.83339129  0.62481333  1
  Fe  Fe184  1  0.00017106  0.16665894  0.75012912  1
  Fe  Fe185  1  0.00013831  0.66662175  0.24972750  1
  Fe  Fe186  1  0.49990111  -0.00044306  0.24875018  1
  Fe  Fe187  1  0.25013311  0.16691739  0.12584746  1
  Fe  Fe188  1  0.50057562  0.33347221  0.25014641  1
  Fe  Fe189  1  0.49977634  0.83330323  0.00031962  1
  Fe  Fe190  1  -0.00027280  0.50046440  0.24976934  1
  Fe  Fe191  1  0.24976993  0.16746717  0.87675371  1
  P  P192  1  0.04258873  0.24980956  0.10372225  1
  P  P193  1  0.04308746  0.24990683  0.35358086  1
  P  P194  1  0.04304180  0.24960765  0.60364017  1
  P  P195  1  0.04165569  0.24914192  0.85253359  1
  P  P196  1  0.04286724  0.58341928  0.10401165  1
  P  P197  1  0.04174408  0.58343941  0.35143670  1
  P  P198  1  0.04276570  0.58286821  0.60231573  1
  P  P199  1  0.04243936  0.58576759  0.85214616  1
  P  P200  1  0.04234908  0.91523090  0.10279694  1
  P  P201  1  0.04219773  0.91834964  0.35289355  1
  P  P202  1  0.04232552  0.91839915  0.60281654  1
  P  P203  1  0.04263541  0.91781517  0.85257438  1
  P  P204  1  0.54104011  0.25040581  0.10207796  1
  P  P205  1  0.54245792  0.25166910  0.35243299  1
  P  P206  1  0.54204787  0.25147483  0.60259964  1
  P  P207  1  0.54142539  0.25109979  0.85378411  1
  P  P208  1  0.54221591  0.58405480  0.10309669  1
  P  P209  1  0.54270380  0.58153534  0.35280514  1
  P  P210  1  0.54125782  0.58255080  0.60120145  1
  P  P211  1  0.54271653  0.58297156  0.85411889  1
  P  P212  1  0.54080810  0.91692658  0.10190789  1
  P  P213  1  0.54125396  0.91608575  0.35040393  1
  P  P214  1  0.54330670  0.91628013  0.60275336  1
  P  P215  1  0.54225347  0.91647186  0.85432849  1
  P  P216  1  0.45814926  0.08236918  0.14668747  1
  P  P217  1  0.45785196  0.08294270  0.39541062  1
  P  P218  1  0.45687646  0.08357609  0.64667002  1
  P  P219  1  0.45824560  0.08340929  0.89912525  1
  P  P220  1  0.45879987  0.41652507  0.14878605  1
  P  P221  1  0.45930492  0.41617128  0.39775776  1
  P  P222  1  0.45771532  0.41488850  0.64744575  1
  P  P223  1  0.45770358  0.41486878  0.89808758  1
  P  P224  1  0.45800019  0.75110663  0.14679619  1
  P  P225  1  0.45807776  0.74816382  0.39678598  1
  P  P226  1  0.45749883  0.74877787  0.64625958  1
  P  P227  1  0.45843103  0.74947747  0.89925962  1
  P  P228  1  0.95723567  0.08133036  0.14788457  1
  P  P229  1  0.95761727  0.08152129  0.39745902  1
  P  P230  1  0.95857091  0.08317655  0.64850803  1
  P  P231  1  0.95687223  0.08347343  0.89611502  1
  P  P232  1  0.95776133  0.41786776  0.14778435  1
  P  P233  1  0.95810615  0.41896910  0.39720321  1
  P  P234  1  0.95697632  0.41776588  0.64620858  1
  P  P235  1  0.95670010  0.41725405  0.89670954  1
  P  P236  1  0.95805924  0.74914674  0.14726509  1
  P  P237  1  0.95704189  0.75007194  0.39603353  1
  P  P238  1  0.95753923  0.74941679  0.64704964  1
  P  P239  1  0.95783760  0.75187568  0.89706279  1
  P  P240  1  0.20890656  0.08325816  0.22758856  1
  P  P241  1  0.20892732  0.08329515  0.47603758  1
  P  P242  1  0.20765338  0.08398560  0.72857626  1
  P  P243  1  0.20820012  0.08507435  0.97905271  1
  P  P244  1  0.20859134  0.41461495  0.22855418  1
  P  P245  1  0.20887542  0.41607459  0.47600556  1
  P  P246  1  0.20744812  0.41641701  0.72946533  1
  P  P247  1  0.20875211  0.41680133  0.97735529  1
  P  P248  1  0.20823190  0.74864076  0.22815883  1
  P  P249  1  0.20768978  0.75146268  0.47746440  1
  P  P250  1  0.20789624  0.75123622  0.72730571  1
  P  P251  1  0.20751076  0.74992466  0.97923807  1
  P  P252  1  0.70717093  0.08462169  0.22735888  1
  P  P253  1  0.70732558  0.08555218  0.47743560  1
  P  P254  1  0.70750028  0.08221493  0.72790812  1
  P  P255  1  0.70786921  0.08180804  0.97776319  1
  P  P256  1  0.70888139  0.41645874  0.22596859  1
  P  P257  1  0.70762515  0.41714704  0.47836315  1
  P  P258  1  0.70736348  0.41568238  0.72789288  1
  P  P259  1  0.70816117  0.41492642  0.97853122  1
  P  P260  1  0.70809846  0.75026698  0.22568345  1
  P  P261  1  0.70728322  0.75218725  0.47689063  1
  P  P262  1  0.70750795  0.74893524  0.72756790  1
  P  P263  1  0.70811329  0.74822675  0.97791031  1
  P  P264  1  0.29131677  0.25034226  0.02375688  1
  P  P265  1  0.29172276  0.24917996  0.27263778  1
  P  P266  1  0.29274556  0.24991696  0.52077335  1
  P  P267  1  0.29148061  0.24978645  0.77468789  1
  P  P268  1  0.29252767  0.58377823  0.02281364  1
  P  P269  1  0.29271019  0.58160462  0.27226255  1
  P  P270  1  0.29248284  0.58244299  0.52105204  1
  P  P271  1  0.29276533  0.58200331  0.77285865  1
  P  P272  1  0.29236436  0.91862198  0.02345318  1
  P  P273  1  0.29106495  0.91637780  0.27307341  1
  P  P274  1  0.29211871  0.91516800  0.52149053  1
  P  P275  1  0.29345989  0.91654929  0.77196620  1
  P  P276  1  0.79112940  0.24908328  0.02325688  1
  P  P277  1  0.79203334  0.24843790  0.27169311  1
  P  P278  1  0.79250983  0.25174847  0.52264379  1
  P  P279  1  0.79178164  0.25182174  0.77248262  1
  P  P280  1  0.79134539  0.58321228  0.02290367  1
  P  P281  1  0.79198766  0.58337557  0.27016549  1
  P  P282  1  0.79186635  0.58584194  0.52220879  1
  P  P283  1  0.79194008  0.58492268  0.77229649  1
  P  P284  1  0.79201364  0.91520324  0.02179061  1
  P  P285  1  0.79134666  0.91519660  0.27151626  1
  P  P286  1  0.79177238  0.91893201  0.52193029  1
  P  P287  1  0.79188639  0.91844596  0.77192703  1
  O  O288  1  0.03786412  0.24990649  0.18372135  1
  O  O289  1  0.03804264  0.24988077  0.43353278  1
  O  O290  1  0.03754084  0.24908615  0.68359645  1
  O  O291  1  0.03651458  0.24938438  0.93251688  1
  O  O292  1  0.03737656  0.58311604  0.18391064  1
  O  O293  1  0.03690207  0.58276647  0.43144639  1
  O  O294  1  0.03751497  0.58386879  0.68224212  1
  O  O295  1  0.03750825  0.58556575  0.93214598  1
  O  O296  1  0.03715646  0.91585635  0.18276220  1
  O  O297  1  0.03694567  0.91857483  0.43283285  1
  O  O298  1  0.03718633  0.91854960  0.68278132  1
  O  O299  1  0.03722149  0.91659170  0.93250484  1
  O  O300  1  0.53662234  0.25045303  0.18207719  1
  O  O301  1  0.53742630  0.25186301  0.43238425  1
  O  O302  1  0.53661903  0.25129115  0.68255628  1
  O  O303  1  0.53599209  0.25066256  0.93367176  1
  O  O304  1  0.53697064  0.58338455  0.18299639  1
  O  O305  1  0.53726502  0.58184926  0.43266982  1
  O  O306  1  0.53652641  0.58223952  0.68122069  1
  O  O307  1  0.53749064  0.58361699  0.93406900  1
  O  O308  1  0.53574316  0.91672906  0.18181986  1
  O  O309  1  0.53669398  0.91572980  0.43040630  1
  O  O310  1  0.53824173  0.91629137  0.68274410  1
  O  O311  1  0.53670132  0.91655642  0.93424549  1
  O  O312  1  0.46350771  0.08251325  0.06679432  1
  O  O313  1  0.46339877  0.08244409  0.31547944  1
  O  O314  1  0.46204427  0.08374586  0.56668094  1
  O  O315  1  0.46274989  0.08400236  0.81908580  1
  O  O316  1  0.46366077  0.41607566  0.06881928  1
  O  O317  1  0.46413831  0.41657947  0.31784743  1
  O  O318  1  0.46316072  0.41502097  0.56757440  1
  O  O319  1  0.46284994  0.41472867  0.81817520  1
  O  O320  1  0.46328848  0.75097965  0.06691139  1
  O  O321  1  0.46327446  0.74886010  0.31686132  1
  O  O322  1  0.46286605  0.74817925  0.56631765  1
  O  O323  1  0.46321607  0.74938242  0.81923187  1
  O  O324  1  0.96200876  0.08168810  0.06789620  1
  O  O325  1  0.96274877  0.08127806  0.31749030  1
  O  O326  1  0.96368373  0.08268762  0.56850996  1
  O  O327  1  0.96236782  0.08386644  0.81621953  1
  O  O328  1  0.96252366  0.41748301  0.06778423  1
  O  O329  1  0.96352755  0.41912579  0.31720935  1
  O  O330  1  0.96236932  0.41819272  0.56625225  1
  O  O331  1  0.96145020  0.41716853  0.81670671  1
  O  O332  1  0.96351833  0.75028029  0.06735044  1
  O  O333  1  0.96249899  0.74957203  0.31611463  1
  O  O334  1  0.96255687  0.74956892  0.56707247  1
  O  O335  1  0.96297677  0.75130844  0.81709321  1
  O  O336  1  0.21359922  0.08458292  0.05893159  1
  O  O337  1  0.21412910  0.08300990  0.30745759  1
  O  O338  1  0.21367363  0.08282923  0.55599443  1
  O  O339  1  0.21273550  0.08457506  0.80850758  1
  O  O340  1  0.21370539  0.41606176  0.05733875  1
  O  O341  1  0.21417287  0.41501729  0.30840765  1
  O  O342  1  0.21335455  0.41617971  0.55606834  1
  O  O343  1  0.21264232  0.41683421  0.80935310  1
  O  O344  1  0.21286515  0.74923723  0.05918770  1
  O  O345  1  0.21354526  0.74921814  0.30808233  1
  O  O346  1  0.21312752  0.75160905  0.55739075  1
  O  O347  1  0.21288127  0.75084177  0.80731093  1
  O  O348  1  0.71316488  0.08242022  0.05770244  1
  O  O349  1  0.71230165  0.08487775  0.30732470  1
  O  O350  1  0.71244533  0.08498063  0.55739635  1
  O  O351  1  0.71293006  0.08188725  0.80784937  1
  O  O352  1  0.71382496  0.41535151  0.05837165  1
  O  O353  1  0.71329431  0.41649320  0.30598811  1
  O  O354  1  0.71275684  0.41693802  0.55828805  1
  O  O355  1  0.71288971  0.41557457  0.80785417  1
  O  O356  1  0.71372630  0.74862366  0.05776044  1
  O  O357  1  0.71300271  0.75117256  0.30567612  1
  O  O358  1  0.71233998  0.75175579  0.55682269  1
  O  O359  1  0.71288268  0.74854422  0.80750675  1
  O  O360  1  0.28622600  0.24949719  0.19276815  1
  O  O361  1  0.28754178  0.25005441  0.44088083  1
  O  O362  1  0.28697305  0.24996314  0.69467254  1
  O  O363  1  0.28609360  0.25034788  0.94389075  1
  O  O364  1  0.28751026  0.58231742  0.19229683  1
  O  O365  1  0.28717998  0.58184243  0.44110692  1
  O  O366  1  0.28768573  0.58242858  0.69286669  1
  O  O367  1  0.28730536  0.58327329  0.94287364  1
  O  O368  1  0.28612324  0.91718880  0.19313440  1
  O  O369  1  0.28651939  0.91522189  0.44161174  1
  O  O370  1  0.28827421  0.91592261  0.69198602  1
  O  O371  1  0.28766573  0.91851419  0.94349230  1
  O  O372  1  0.78677529  0.24823387  0.19180933  1
  O  O373  1  0.78739822  0.25071429  0.44267990  1
  O  O374  1  0.78646066  0.25204614  0.69257289  1
  O  O375  1  0.78635383  0.24982161  0.94328247  1
  O  O376  1  0.78654980  0.58289860  0.19029223  1
  O  O377  1  0.78681689  0.58550010  0.44222967  1
  O  O378  1  0.78645049  0.58513995  0.69236833  1
  O  O379  1  0.78630119  0.58336582  0.94292075  1
  O  O380  1  0.78620705  0.91482120  0.19157111  1
  O  O381  1  0.78637559  0.91829063  0.44202154  1
  O  O382  1  0.78641356  0.91886910  0.69201336  1
  O  O383  1  0.78678767  0.91584112  0.94186789  1
  O  O384  1  0.22729216  0.25058641  0.06022619  1
  O  O385  1  0.22784731  0.24905337  0.30944829  1
  O  O386  1  0.22847141  0.24984558  0.55653360  1
  O  O387  1  0.22722131  0.24918517  0.81037225  1
  O  O388  1  0.22832848  0.58380697  0.05866439  1
  O  O389  1  0.22843510  0.58130572  0.30790665  1
  O  O390  1  0.22824489  0.58303231  0.55662844  1
  O  O391  1  0.22838995  0.58147738  0.80840392  1
  O  O392  1  0.22795744  0.91846811  0.05871960  1
  O  O393  1  0.22696084  0.91578373  0.30907763  1
  O  O394  1  0.22807253  0.91489386  0.55804922  1
  O  O395  1  0.22906832  0.91734372  0.80725373  1
  O  O396  1  0.72693103  0.24859844  0.05911922  1
  O  O397  1  0.72781975  0.24863679  0.30774449  1
  O  O398  1  0.72816671  0.25222224  0.55831607  1
  O  O399  1  0.72758703  0.25152587  0.80847696  1
  O  O400  1  0.72727104  0.58341866  0.05905525  1
  O  O401  1  0.72781945  0.58389678  0.30606755  1
  O  O402  1  0.72754132  0.58576365  0.55781026  1
  O  O403  1  0.72775694  0.58463757  0.80833382  1
  O  O404  1  0.72774963  0.91496717  0.05757480  1
  O  O405  1  0.72707390  0.91571755  0.30726515  1
  O  O406  1  0.72757879  0.91912512  0.55791584  1
  O  O407  1  0.72776058  0.91775290  0.80803393  1
  O  O408  1  0.27287485  0.08344551  0.19103682  1
  O  O409  1  0.27307196  0.08380006  0.44012352  1
  O  O410  1  0.27202847  0.08325333  0.69325595  1
  O  O411  1  0.27238477  0.08576609  0.94286395  1
  O  O412  1  0.27269120  0.41420338  0.19229251  1
  O  O413  1  0.27321627  0.41586292  0.44053247  1
  O  O414  1  0.27173528  0.41620876  0.69376220  1
  O  O415  1  0.27288347  0.41725198  0.94136443  1
  O  O416  1  0.27238485  0.74887583  0.19222974  1
  O  O417  1  0.27188934  0.75127299  0.44151611  1
  O  O418  1  0.27227377  0.75160281  0.69178505  1
  O  O419  1  0.27184903  0.74981330  0.94385637  1
  O  O420  1  0.77149585  0.08436012  0.19175885  1
  O  O421  1  0.77159504  0.08532252  0.44161782  1
  O  O422  1  0.77169178  0.08258384  0.69185814  1
  O  O423  1  0.77201286  0.08189138  0.94174979  1
  O  O424  1  0.77313687  0.41659244  0.19052533  1
  O  O425  1  0.77189674  0.41700833  0.44282458  1
  O  O426  1  0.77153503  0.41599127  0.69181231  1
  O  O427  1  0.77212307  0.41493848  0.94193680  1
  O  O428  1  0.77232692  0.74965850  0.18977193  1
  O  O429  1  0.77160419  0.75263154  0.44116989  1
  O  O430  1  0.77170555  0.74930764  0.69158726  1
  O  O431  1  0.77215559  0.74813183  0.94145935  1
  O  O432  1  0.02173645  0.08099697  0.18299421  1
  O  O433  1  0.02200427  0.08133001  0.43294454  1
  O  O434  1  0.02269287  0.08322818  0.68462049  1
  O  O435  1  0.02107591  0.08320558  0.93188641  1
  O  O436  1  0.02219510  0.41814638  0.18289254  1
  O  O437  1  0.02237925  0.41895169  0.43298929  1
  O  O438  1  0.02123418  0.41742826  0.68165845  1
  O  O439  1  0.02134602  0.41695645  0.93127739  1
  O  O440  1  0.02217586  0.74850707  0.18330929  1
  O  O441  1  0.02131625  0.75036026  0.43145520  1
  O  O442  1  0.02191374  0.74944249  0.68243450  1
  O  O443  1  0.02219102  0.75246612  0.93269796  1
  O  O444  1  0.52224773  0.08208653  0.18275591  1
  O  O445  1  0.52202053  0.08334262  0.43113252  1
  O  O446  1  0.52125277  0.08396343  0.68185890  1
  O  O447  1  0.52250350  0.08281652  0.93462529  1
  O  O448  1  0.52308329  0.41697970  0.18454134  1
  O  O449  1  0.52333889  0.41571653  0.43393060  1
  O  O450  1  0.52187784  0.41418511  0.68366488  1
  O  O451  1  0.52197683  0.41479664  0.93375098  1
  O  O452  1  0.52219726  0.75104707  0.18270246  1
  O  O453  1  0.52233623  0.74728357  0.43249798  1
  O  O454  1  0.52183009  0.74893378  0.68168533  1
  O  O455  1  0.52269273  0.74929452  0.93486691  1
  O  O456  1  0.47674162  0.25066136  0.06661794  1
  O  O457  1  0.47815073  0.25160703  0.31690857  1
  O  O458  1  0.47788195  0.25160493  0.56663143  1
  O  O459  1  0.47724631  0.25172468  0.81763971  1
  O  O460  1  0.47799497  0.58440157  0.06733889  1
  O  O461  1  0.47852604  0.58134276  0.31673886  1
  O  O462  1  0.47715311  0.58314565  0.56526684  1
  O  O463  1  0.47837316  0.58241954  0.81883782  1
  O  O464  1  0.47680191  0.91743248  0.06563759  1
  O  O465  1  0.47694455  0.91634113  0.31491537  1
  O  O466  1  0.47886868  0.91592573  0.56772182  1
  O  O467  1  0.47811934  0.91636058  0.81835381  1
  O  O468  1  0.97799349  0.25011275  0.06907848  1
  O  O469  1  0.97865355  0.24990253  0.31862309  1
  O  O470  1  0.97873669  0.25003633  0.56827244  1
  O  O471  1  0.97741275  0.24888077  0.81691052  1
  O  O472  1  0.97866390  0.58384058  0.06827061  1
  O  O473  1  0.97753654  0.58407215  0.31555356  1
  O  O474  1  0.97837830  0.58201291  0.56675278  1
  O  O475  1  0.97801530  0.58621889  0.81688409  1
  O  O476  1  0.97800757  0.91451455  0.06716424  1
  O  O477  1  0.97791139  0.91823350  0.31719967  1
  O  O478  1  0.97796732  0.91871356  0.56722669  1
  O  O479  1  0.97841840  0.91851342  0.81670510  1
  O  O480  1  0.07365449  0.31317645  0.07524186  1
  O  O481  1  0.07410538  0.31341662  0.32562484  1
  O  O482  1  0.07425020  0.31318591  0.57582040  1
  O  O483  1  0.07263873  0.31285497  0.82485455  1
  O  O484  1  0.07432894  0.64670210  0.07585902  1
  O  O485  1  0.07262029  0.64732443  0.32378598  1
  O  O486  1  0.07357181  0.64636148  0.57370032  1
  O  O487  1  0.07325728  0.64922496  0.82361177  1
  O  O488  1  0.07310235  0.97886887  0.07452903  1
  O  O489  1  0.07313804  0.98144121  0.32371527  1
  O  O490  1  0.07351052  0.98154883  0.57412985  1
  O  O491  1  0.07347506  0.98161804  0.82490989  1
  O  O492  1  0.57221735  0.31374338  0.07373296  1
  O  O493  1  0.57337959  0.31490763  0.32341963  1
  O  O494  1  0.57309676  0.31477637  0.57411929  1
  O  O495  1  0.57266275  0.31426906  0.82508412  1
  O  O496  1  0.57292849  0.64774248  0.07495387  1
  O  O497  1  0.57385874  0.64501248  0.32449440  1
  O  O498  1  0.57246076  0.64595340  0.57306571  1
  O  O499  1  0.57373215  0.64615118  0.82521224  1
  O  O500  1  0.57239778  0.98016613  0.07370888  1
  O  O501  1  0.57216002  0.97977892  0.32244031  1
  O  O502  1  0.57394334  0.97994363  0.57445683  1
  O  O503  1  0.57332966  0.97994991  0.82593990  1
  O  O504  1  0.42701694  0.01910105  0.17547726  1
  O  O505  1  0.42668092  0.01963969  0.42380748  1
  O  O506  1  0.42621597  0.01989086  0.67479628  1
  O  O507  1  0.42697559  0.01993021  0.92684023  1
  O  O508  1  0.42830056  0.35280038  0.17739866  1
  O  O509  1  0.42798430  0.35281754  0.42607095  1
  O  O510  1  0.42633663  0.35185184  0.67636760  1
  O  O511  1  0.42661818  0.35179648  0.92713028  1
  O  O512  1  0.42668882  0.68771848  0.17495967  1
  O  O513  1  0.42701763  0.68465469  0.42492301  1
  O  O514  1  0.42619380  0.68562024  0.67493748  1
  O  O515  1  0.42750469  0.68593528  0.92756141  1
  O  O516  1  0.92655475  0.01767089  0.17607989  1
  O  O517  1  0.92644464  0.01853040  0.42650041  1
  O  O518  1  0.92754828  0.01979757  0.67697416  1
  O  O519  1  0.92567582  0.01998010  0.92430154  1
  O  O520  1  0.92685800  0.35426586  0.17594099  1
  O  O521  1  0.92716977  0.35504253  0.42462805  1
  O  O522  1  0.92586811  0.35412841  0.67399267  1
  O  O523  1  0.92565085  0.35392371  0.92523708  1
  O  O524  1  0.92720796  0.68544838  0.17511889  1
  O  O525  1  0.92580759  0.68682784  0.42438646  1
  O  O526  1  0.92710563  0.68584233  0.67573967  1
  O  O527  1  0.92696023  0.68834861  0.92544182  1
  O  O528  1  0.17810735  0.01959833  0.19903755  1
  O  O529  1  0.17873356  0.01929999  0.44756616  1
  O  O530  1  0.17645990  0.02049598  0.70055337  1
  O  O531  1  0.17736191  0.02149470  0.95062464  1
  O  O532  1  0.17733745  0.35133321  0.20015413  1
  O  O533  1  0.17796912  0.35248617  0.44792287  1
  O  O534  1  0.17637596  0.35292634  0.70106059  1
  O  O535  1  0.17813061  0.35314408  0.94869961  1
  O  O536  1  0.17809293  0.68463282  0.19994729  1
  O  O537  1  0.17664227  0.68762126  0.44996089  1
  O  O538  1  0.17722158  0.68744346  0.69928643  1
  O  O539  1  0.17601679  0.68698025  0.95051040  1
  O  O540  1  0.67627763  0.02071163  0.19987014  1
  O  O541  1  0.67581575  0.02238770  0.44903716  1
  O  O542  1  0.67661995  0.01910753  0.69881449  1
  O  O543  1  0.67740825  0.01795258  0.94971528  1
  O  O544  1  0.67858979  0.35239253  0.19784220  1
  O  O545  1  0.67631515  0.35401853  0.44977515  1
  O  O546  1  0.67651042  0.35244500  0.69912348  1
  O  O547  1  0.67732155  0.35136049  0.95015461  1
  O  O548  1  0.67714602  0.68639138  0.19827038  1
  O  O549  1  0.67635986  0.68870091  0.44851396  1
  O  O550  1  0.67672004  0.68568530  0.69851711  1
  O  O551  1  0.67718675  0.68470018  0.94961810  1
  O  O552  1  0.32251383  0.31378943  0.05208911  1
  O  O553  1  0.32262732  0.31276902  0.30106000  1
  O  O554  1  0.32371918  0.31319739  0.54972279  1
  O  O555  1  0.32142643  0.31385339  0.80323649  1
  O  O556  1  0.32295043  0.64749308  0.05141872  1
  O  O557  1  0.32396386  0.64492981  0.30042987  1
  O  O558  1  0.32352460  0.64620650  0.54863256  1
  O  O559  1  0.32345611  0.64586648  0.80065824  1
  O  O560  1  0.32283867  0.98218562  0.05209671  1
  O  O561  1  0.32156706  0.98003798  0.30189241  1
  O  O562  1  0.32310393  0.97896880  0.54930619  1
  O  O563  1  0.32473880  0.98006793  0.79979640  1
  O  O564  1  0.82161556  0.31269694  0.05231224  1
  O  O565  1  0.82330346  0.31208049  0.29947658  1
  O  O566  1  0.82322306  0.31547659  0.55057600  1
  O  O567  1  0.82271091  0.31499252  0.80134927  1
  O  O568  1  0.82272121  0.64645029  0.05115785  1
  O  O569  1  0.82334141  0.64681339  0.29812141  1
  O  O570  1  0.82236232  0.64961204  0.55039620  1
  O  O571  1  0.82285343  0.64814812  0.80112331  1
  O  O572  1  0.82325184  0.97848318  0.05018372  1
  O  O573  1  0.82246391  0.97896948  0.29896192  1
  O  O574  1  0.82234690  0.98268938  0.55013501  1
  O  O575  1  0.82249988  0.98173576  0.80100309  1
  O  O576  1  0.42710888  0.14610148  0.17458831  1
  O  O577  1  0.42671166  0.14666203  0.42297034  1
  O  O578  1  0.42553219  0.14689492  0.67498187  1
  O  O579  1  0.42811621  0.14738790  0.92788673  1
  O  O580  1  0.42786693  0.48024203  0.17677027  1
  O  O581  1  0.42883664  0.47992379  0.42683594  1
  O  O582  1  0.42709048  0.47883516  0.67555642  1
  O  O583  1  0.42687006  0.47873998  0.92589800  1
  O  O584  1  0.42722251  0.81466021  0.17562068  1
  O  O585  1  0.42726362  0.81185035  0.42493996  1
  O  O586  1  0.42661657  0.81249117  0.67432181  1
  O  O587  1  0.42783844  0.81344713  0.92722875  1
  O  O588  1  0.92646994  0.14503704  0.17602653  1
  O  O589  1  0.92696006  0.14559845  0.42517275  1
  O  O590  1  0.92792657  0.14727350  0.67616023  1
  O  O591  1  0.92557083  0.14666574  0.92493446  1
  O  O592  1  0.92695479  0.48147374  0.17604543  1
  O  O593  1  0.92709269  0.48232561  0.42572502  1
  O  O594  1  0.92566032  0.48098446  0.67470477  1
  O  O595  1  0.92612158  0.48105832  0.92481062  1
  O  O596  1  0.92681273  0.81250672  0.17559117  1
  O  O597  1  0.92595910  0.81372980  0.42394824  1
  O  O598  1  0.92638043  0.81313101  0.67460515  1
  O  O599  1  0.92700887  0.81546241  0.92546145  1
  O  O600  1  0.07322221  0.18606852  0.07561074  1
  O  O601  1  0.07405666  0.18634565  0.32545791  1
  O  O602  1  0.07421918  0.18628717  0.57518008  1
  O  O603  1  0.07254843  0.18554694  0.82432401  1
  O  O604  1  0.07394007  0.52001048  0.07526634  1
  O  O605  1  0.07244425  0.51986250  0.32274652  1
  O  O606  1  0.07373651  0.51925058  0.57414287  1
  O  O607  1  0.07319010  0.52184637  0.82457373  1
  O  O608  1  0.07331048  0.85169261  0.07454211  1
  O  O609  1  0.07317849  0.85446933  0.32532438  1
  O  O610  1  0.07281645  0.85433346  0.57498895  1
  O  O611  1  0.07382960  0.85453729  0.82396929  1
  O  O612  1  0.57124774  0.18633933  0.07352527  1
  O  O613  1  0.57339141  0.18793011  0.32450985  1
  O  O614  1  0.57305760  0.18772270  0.57467058  1
  O  O615  1  0.57228407  0.18735049  0.82546027  1
  O  O616  1  0.57337028  0.52056248  0.07496857  1
  O  O617  1  0.57363126  0.51808957  0.32405434  1
  O  O618  1  0.57150122  0.51842851  0.57303907  1
  O  O619  1  0.57383903  0.51928469  0.82628427  1
  O  O620  1  0.57122090  0.85296259  0.07331490  1
  O  O621  1  0.57180984  0.85227976  0.32193969  1
  O  O622  1  0.57454438  0.85292997  0.57449889  1
  O  O623  1  0.57358646  0.85303337  0.82613000  1
  O  O624  1  0.32208024  0.18666637  0.05231026  1
  O  O625  1  0.32288313  0.18549125  0.30048618  1
  O  O626  1  0.32394004  0.18642844  0.54906872  1
  O  O627  1  0.32280716  0.18645021  0.80291218  1
  O  O628  1  0.32405159  0.52037468  0.05075154  1
  O  O629  1  0.32338543  0.51777536  0.30037741  1
  O  O630  1  0.32368898  0.51923703  0.54963368  1
  O  O631  1  0.32373846  0.51860436  0.80132831  1
  O  O632  1  0.32344923  0.85494960  0.05118519  1
  O  O633  1  0.32221876  0.85262778  0.30065838  1
  O  O634  1  0.32331935  0.85191371  0.55021260  1
  O  O635  1  0.32432134  0.85318495  0.80084977  1
  O  O636  1  0.82222914  0.18533224  0.05092774  1
  O  O637  1  0.82274570  0.18509137  0.30095738  1
  O  O638  1  0.82358740  0.18831981  0.55123768  1
  O  O639  1  0.82280126  0.18785309  0.79984270  1
  O  O640  1  0.82173243  0.51904239  0.05083226  1
  O  O641  1  0.82301610  0.52006824  0.29909236  1
  O  O642  1  0.82306269  0.52235325  0.55022069  1
  O  O643  1  0.82303644  0.52107857  0.79982643  1
  O  O644  1  0.82272044  0.85142858  0.04994950  1
  O  O645  1  0.82208663  0.85185289  0.30047171  1
  O  O646  1  0.82316888  0.85560511  0.55022195  1
  O  O647  1  0.82327879  0.85457172  0.79897693  1
  O  O648  1  0.17774315  0.14682115  0.19943026  1
  O  O649  1  0.17763187  0.14673874  0.44812297  1
  O  O650  1  0.17678931  0.14731509  0.69974835  1
  O  O651  1  0.17697637  0.14848091  0.95064081  1
  O  O652  1  0.17756483  0.47819849  0.20025080  1
  O  O653  1  0.17836433  0.47994998  0.44769515  1
  O  O654  1  0.17622355  0.47963419  0.70050177  1
  O  O655  1  0.17772957  0.48054595  0.94957262  1
  O  O656  1  0.17642865  0.81188472  0.20035693  1
  O  O657  1  0.17663992  0.81468013  0.44861301  1
  O  O658  1  0.17701136  0.81475182  0.69904491  1
  O  O659  1  0.17683774  0.81392557  0.95156395  1
  O  O660  1  0.67619394  0.14778133  0.19829741  1
  O  O661  1  0.67704606  0.14951835  0.44922304  1
  O  O662  1  0.67638356  0.14623654  0.70074452  1
  O  O663  1  0.67637671  0.14513757  0.94968645  1
  O  O664  1  0.67773954  0.47986528  0.19764703  1
  O  O665  1  0.67681589  0.48090487  0.45032160  1
  O  O666  1  0.67619728  0.47959352  0.70052181  1
  O  O667  1  0.67671305  0.47837824  0.95046824  1
  O  O668  1  0.67741455  0.81377308  0.19674354  1
  O  O669  1  0.67650692  0.81580416  0.44837060  1
  O  O670  1  0.67636141  0.81281894  0.70028705  1
  O  O671  1  0.67681385  0.81169453  0.94975050  1
