# generated using pymatgen
data_Na2MnFe(PO4)2
_symmetry_space_group_name_H-M   'P 1'
_cell_length_a   22.33864001
_cell_length_b   20.09022972
_cell_length_c   19.45363174
_cell_angle_alpha   89.98643253
_cell_angle_beta   89.97140625
_cell_angle_gamma   89.93031923
_symmetry_Int_Tables_number   1
_chemical_formula_structural   Na2MnFe(PO4)2
_chemical_formula_sum   'Na96 Mn48 Fe48 P96 O384'
_cell_volume   8730.55665958
_cell_formula_units_Z   48
loop_
 _symmetry_equiv_pos_site_id
 _symmetry_equiv_pos_as_xyz
  1  'x, y, z'
loop_
 _atom_site_type_symbol
 _atom_site_label
 _atom_site_symmetry_multiplicity
 _atom_site_fract_x
 _atom_site_fract_y
 _atom_site_fract_z
 _atom_site_occupancy
  Na  Na0  1  0.14024131  0.24947065  0.24330777  1
  Na  Na1  1  0.14070905  0.25027893  0.49309457  1
  Na  Na2  1  0.14069591  0.24873835  0.74458811  1
  Na  Na3  1  0.14064847  0.24891950  0.99270938  1
  Na  Na4  1  0.14027212  0.58311069  0.24558361  1
  Na  Na5  1  0.13999869  0.58407249  0.49418549  1
  Na  Na6  1  0.14007014  0.58312729  0.74353085  1
  Na  Na7  1  0.14073415  0.58421142  0.99361675  1
  Na  Na8  1  0.14044326  0.91781918  0.24305499  1
  Na  Na9  1  0.14001859  0.91715545  0.49345561  1
  Na  Na10  1  0.14028407  0.91557544  0.74425002  1
  Na  Na11  1  0.14047329  0.91784498  0.99322855  1
  Na  Na12  1  0.64038398  0.24918345  0.24316389  1
  Na  Na13  1  0.64038343  0.25187767  0.49379648  1
  Na  Na14  1  0.64083076  0.25193528  0.74377642  1
  Na  Na15  1  0.64037687  0.24958982  0.99334602  1
  Na  Na16  1  0.64073357  0.58176534  0.24339879  1
  Na  Na17  1  0.63995825  0.58456447  0.49381849  1
  Na  Na18  1  0.64020565  0.58362481  0.74271039  1
  Na  Na19  1  0.64041763  0.58315678  0.99326509  1
  Na  Na20  1  0.64116587  0.91482602  0.24353930  1
  Na  Na21  1  0.64051301  0.91743654  0.49442181  1
  Na  Na22  1  0.64028410  0.91773510  0.74325882  1
  Na  Na23  1  0.64063656  0.91532810  0.99328759  1
  Na  Na24  1  0.35990123  0.08376915  0.00512483  1
  Na  Na25  1  0.35967327  0.08341270  0.25419505  1
  Na  Na26  1  0.35961790  0.08283179  0.50600779  1
  Na  Na27  1  0.35917358  0.08235795  0.75731633  1
  Na  Na28  1  0.35935019  0.41632036  0.00613283  1
  Na  Na29  1  0.36024576  0.41658785  0.25611399  1
  Na  Na30  1  0.35996000  0.41778590  0.50611896  1
  Na  Na31  1  0.35926313  0.41608067  0.75724468  1
  Na  Na32  1  0.35982199  0.75081185  0.00555197  1
  Na  Na33  1  0.35932316  0.74957628  0.25606407  1
  Na  Na34  1  0.35976126  0.75036562  0.50750889  1
  Na  Na35  1  0.35971581  0.74942447  0.75720831  1
  Na  Na36  1  0.85976547  0.08227023  0.00744502  1
  Na  Na37  1  0.85975769  0.08092824  0.25598798  1
  Na  Na38  1  0.85964668  0.08443492  0.50588104  1
  Na  Na39  1  0.85941567  0.08520901  0.75637441  1
  Na  Na40  1  0.85932359  0.41659659  0.00642817  1
  Na  Na41  1  0.85963109  0.41454105  0.25724899  1
  Na  Na42  1  0.85931725  0.41741520  0.50749927  1
  Na  Na43  1  0.85919313  0.41796768  0.75503403  1
  Na  Na44  1  0.85909561  0.75074914  0.00647700  1
  Na  Na45  1  0.85943429  0.74885390  0.25626006  1
  Na  Na46  1  0.85967513  0.75004461  0.50732346  1
  Na  Na47  1  0.85995801  0.75024142  0.75632096  1
  Na  Na48  1  0.10983027  0.08207477  0.11736713  1
  Na  Na49  1  0.10998202  0.08311467  0.36794319  1
  Na  Na50  1  0.10993827  0.08272782  0.61811264  1
  Na  Na51  1  0.11021174  0.08289428  0.86915302  1
  Na  Na52  1  0.10936597  0.41521220  0.11917808  1
  Na  Na53  1  0.10953286  0.41706315  0.36970441  1
  Na  Na54  1  0.10952062  0.41749108  0.61863670  1
  Na  Na55  1  0.10985882  0.41699589  0.86844535  1
  Na  Na56  1  0.10981410  0.75059174  0.11868371  1
  Na  Na57  1  0.10936774  0.75066972  0.36996357  1
  Na  Na58  1  0.10912733  0.74945590  0.61832762  1
  Na  Na59  1  0.10948710  0.75127400  0.86915326  1
  Na  Na60  1  0.61006752  0.08340231  0.11800114  1
  Na  Na61  1  0.60973711  0.08443904  0.36874080  1
  Na  Na62  1  0.60965511  0.08463646  0.61901973  1
  Na  Na63  1  0.61018036  0.08332397  0.86829650  1
  Na  Na64  1  0.60980143  0.41596668  0.11855123  1
  Na  Na65  1  0.60990054  0.41660154  0.36865149  1
  Na  Na66  1  0.60975641  0.41862477  0.61821096  1
  Na  Na67  1  0.60977917  0.41685009  0.86828483  1
  Na  Na68  1  0.61044708  0.74914227  0.11803850  1
  Na  Na69  1  0.60983986  0.74856680  0.36875727  1
  Na  Na70  1  0.60971532  0.74998773  0.61986341  1
  Na  Na71  1  0.60958576  0.74892127  0.86798125  1
  Na  Na72  1  0.39041488  0.25056841  0.12995614  1
  Na  Na73  1  0.39063479  0.25064531  0.38003914  1
  Na  Na74  1  0.39061095  0.25082626  0.63171495  1
  Na  Na75  1  0.38999299  0.24977029  0.88221685  1
  Na  Na76  1  0.39039282  0.58321915  0.13129595  1
  Na  Na77  1  0.39049507  0.58207752  0.38129291  1
  Na  Na78  1  0.39021876  0.58466551  0.63205312  1
  Na  Na79  1  0.39029695  0.58220011  0.88109626  1
  Na  Na80  1  0.39024999  0.91716435  0.13046498  1
  Na  Na81  1  0.39027049  0.91668540  0.38133863  1
  Na  Na82  1  0.39029555  0.91651200  0.63252090  1
  Na  Na83  1  0.39036796  0.91637760  0.88109907  1
  Na  Na84  1  0.89059078  0.24856542  0.13156967  1
  Na  Na85  1  0.89032792  0.24983231  0.38207105  1
  Na  Na86  1  0.88988002  0.25073257  0.63084302  1
  Na  Na87  1  0.88997162  0.24988414  0.88176305  1
  Na  Na88  1  0.89023018  0.58300135  0.13142280  1
  Na  Na89  1  0.89025023  0.58288777  0.38326792  1
  Na  Na90  1  0.88955322  0.58376063  0.63112080  1
  Na  Na91  1  0.88996541  0.58528929  0.88068134  1
  Na  Na92  1  0.88957053  0.91633024  0.13113508  1
  Na  Na93  1  0.89066481  0.91611180  0.38111623  1
  Na  Na94  1  0.89044948  0.91638103  0.63050570  1
  Na  Na95  1  0.89002798  0.91793631  0.88288832  1
  Mn  Mn96  1  0.00008219  0.49881791  0.25140266  1
  Mn  Mn97  1  0.49954466  0.16810713  0.49950794  1
  Mn  Mn98  1  0.50073353  0.16694690  0.75003480  1
  Mn  Mn99  1  0.50066588  0.83233813  0.50112717  1
  Mn  Mn100  1  0.75032172  0.66636717  0.37481098  1
  Mn  Mn101  1  0.00023381  0.16680242  0.49923432  1
  Mn  Mn102  1  -0.00043034  0.33229551  -0.00021060  1
  Mn  Mn103  1  0.24970185  0.66688654  0.87546000  1
  Mn  Mn104  1  0.49979481  0.83243293  0.25030760  1
  Mn  Mn105  1  0.50031643  0.33438657  0.75040970  1
  Mn  Mn106  1  -0.00069647  0.50124947  0.74930589  1
  Mn  Mn107  1  0.00027859  0.66743306  0.00077704  1
  Mn  Mn108  1  0.74989293  -0.00015642  0.37493911  1
  Mn  Mn109  1  0.75010890  0.33302965  0.37557074  1
  Mn  Mn110  1  0.25081180  0.33390802  0.37431450  1
  Mn  Mn111  1  0.74993491  0.83339453  0.87504391  1
  Mn  Mn112  1  0.75036638  0.49896747  0.12430109  1
  Mn  Mn113  1  0.50032542  0.00001287  0.50042975  1
  Mn  Mn114  1  0.50060457  0.00004160  0.24965190  1
  Mn  Mn115  1  0.25033900  0.16585754  0.37414601  1
  Mn  Mn116  1  0.00010691  0.50006927  0.00028173  1
  Mn  Mn117  1  0.24984170  0.33305281  0.62515709  1
  Mn  Mn118  1  0.75010885  0.16553092  0.12437993  1
  Mn  Mn119  1  0.74983145  0.50047539  0.87494275  1
  Mn  Mn120  1  0.50000246  0.50034317  0.49988214  1
  Mn  Mn121  1  0.50103580  0.00008918  -0.00028070  1
  Mn  Mn122  1  0.25056818  0.16529662  0.62470557  1
  Mn  Mn123  1  0.24946284  0.50054617  0.12486019  1
  Mn  Mn124  1  0.50020687  0.49978565  -0.00011776  1
  Mn  Mn125  1  0.24939417  0.33286282  0.12485671  1
  Mn  Mn126  1  0.24996132  0.83423889  0.12545670  1
  Mn  Mn127  1  -0.00037797  0.00003952  0.75011707  1
  Mn  Mn128  1  0.24941995  0.50037812  0.62610241  1
  Mn  Mn129  1  0.50037401  0.83233019  -0.00053159  1
  Mn  Mn130  1  0.75054163  0.83385291  0.62546870  1
  Mn  Mn131  1  -0.00020290  0.33358028  0.75019382  1
  Mn  Mn132  1  0.24994148  0.66647312  0.37563724  1
  Mn  Mn133  1  0.24991374  0.83425184  0.37539236  1
  Mn  Mn134  1  0.75045988  0.00190129  0.62426771  1
  Mn  Mn135  1  0.49969557  0.66560652  0.24962824  1
  Mn  Mn136  1  0.00000534  0.83302486  0.74993052  1
  Mn  Mn137  1  0.75041561  0.16738504  0.87569805  1
  Mn  Mn138  1  -0.00007304  0.16659523  0.74951622  1
  Mn  Mn139  1  0.25018486  0.83343135  0.62538780  1
  Mn  Mn140  1  0.49969832  0.16784259  0.24939094  1
  Mn  Mn141  1  -0.00026893  0.83423748  0.25011001  1
  Mn  Mn142  1  0.00003596  0.66675737  0.25067181  1
  Mn  Mn143  1  0.00017455  0.16603941  0.25035442  1
  Fe  Fe144  1  0.74954550  -0.00133096  0.12582962  1
  Fe  Fe145  1  -0.00024667  -0.00000611  0.49948608  1
  Fe  Fe146  1  0.49966707  0.00024692  0.75020319  1
  Fe  Fe147  1  0.24991653  0.16568749  0.87447055  1
  Fe  Fe148  1  0.25053842  0.00056127  0.12382304  1
  Fe  Fe149  1  0.25015726  0.66701521  0.12513876  1
  Fe  Fe150  1  0.49988547  0.33381492  -0.00006298  1
  Fe  Fe151  1  0.75018033  0.49990253  0.37522090  1
  Fe  Fe152  1  0.50004249  0.66642191  0.75010834  1
  Fe  Fe153  1  -0.00084802  0.66680969  0.50047122  1
  Fe  Fe154  1  0.49991145  0.66578416  -0.00069933  1
  Fe  Fe155  1  0.25006829  -0.00038433  0.87506695  1
  Fe  Fe156  1  0.74951384  0.16809163  0.62561794  1
  Fe  Fe157  1  0.50066505  0.33353703  0.24924791  1
  Fe  Fe158  1  0.00037744  0.16590516  0.00076073  1
  Fe  Fe159  1  0.49998101  0.83287990  0.75022626  1
  Fe  Fe160  1  0.49949743  0.66679059  0.50094370  1
  Fe  Fe161  1  0.75036424  0.66568482  0.12534373  1
  Fe  Fe162  1  -0.00047783  0.83364060  -0.00006893  1
  Fe  Fe163  1  0.25024496  0.50043674  0.37531124  1
  Fe  Fe164  1  0.74981671  0.16651951  0.37488995  1
  Fe  Fe165  1  0.24962887  0.83342954  0.87536748  1
  Fe  Fe166  1  0.49931803  0.50041710  0.74977060  1
  Fe  Fe167  1  0.75029964  0.33237120  0.12530077  1
  Fe  Fe168  1  -0.00036419  0.50014121  0.50028934  1
  Fe  Fe169  1  0.24979635  0.66663686  0.62564159  1
  Fe  Fe170  1  0.25007305  0.33276518  0.87546020  1
  Fe  Fe171  1  0.25022579  0.16632203  0.12367611  1
  Fe  Fe172  1  0.74982156  0.00029189  0.87514011  1
  Fe  Fe173  1  0.00025841  0.33361338  0.50037778  1
  Fe  Fe174  1  0.75011702  0.83267279  0.37469148  1
  Fe  Fe175  1  0.74965546  0.50108112  0.62528684  1
  Fe  Fe176  1  -0.00018120  0.33292702  0.25060673  1
  Fe  Fe177  1  0.74961284  0.83220306  0.12447287  1
  Fe  Fe178  1  0.49972079  0.33438794  0.49995540  1
  Fe  Fe179  1  0.50049283  0.49946625  0.24994044  1
  Fe  Fe180  1  0.75017383  0.33417586  0.87414525  1
  Fe  Fe181  1  -0.00015182  0.66696400  0.74954637  1
  Fe  Fe182  1  0.74994748  0.66674069  0.87491005  1
  Fe  Fe183  1  0.24985171  -0.00089809  0.62575350  1
  Fe  Fe184  1  0.50007605  0.16701440  -0.00056549  1
  Fe  Fe185  1  -0.00004943  0.83358107  0.49989435  1
  Fe  Fe186  1  0.24987558  0.50006379  0.87520373  1
  Fe  Fe187  1  -0.00006044  -0.00020823  0.00005675  1
  Fe  Fe188  1  0.25009435  0.00039846  0.37427086  1
  Fe  Fe189  1  0.00043849  -0.00035032  0.24926532  1
  Fe  Fe190  1  0.74973509  0.33437035  0.62447772  1
  Fe  Fe191  1  0.74968160  0.66738304  0.62464423  1
  P  P192  1  0.04255139  0.24819794  0.10284436  1
  P  P193  1  0.04225554  0.25131199  0.35295040  1
  P  P194  1  0.04262338  0.25105012  0.60207902  1
  P  P195  1  0.04251367  0.24920219  0.85367960  1
  P  P196  1  0.04316860  0.58292510  0.10375944  1
  P  P197  1  0.04197693  0.58326605  0.35492082  1
  P  P198  1  0.04102644  0.58382521  0.60179364  1
  P  P199  1  0.04219904  0.58534263  0.85231216  1
  P  P200  1  0.04129688  0.91657696  0.10144333  1
  P  P201  1  0.04231738  0.91834173  0.35289962  1
  P  P202  1  0.04120586  0.91666810  0.60127227  1
  P  P203  1  0.04211347  0.91676565  0.85389432  1
  P  P204  1  0.54160869  0.25073173  0.10125480  1
  P  P205  1  0.54242973  0.25215296  0.35233842  1
  P  P206  1  0.54222654  0.25223221  0.60223462  1
  P  P207  1  0.54273564  0.25035915  0.85399195  1
  P  P208  1  0.54246871  0.58376449  0.10226427  1
  P  P209  1  0.54250472  0.58166647  0.35247063  1
  P  P210  1  0.54173106  0.58487077  0.60335211  1
  P  P211  1  0.54153246  0.58296290  0.85146401  1
  P  P212  1  0.54325639  0.91590937  0.10276257  1
  P  P213  1  0.54327604  0.91616307  0.35329111  1
  P  P214  1  0.54265760  0.91646591  0.60475015  1
  P  P215  1  0.54157511  0.91626061  0.85125763  1
  P  P216  1  0.45795116  0.08416885  0.14575466  1
  P  P217  1  0.45731712  0.08377095  0.39672308  1
  P  P218  1  0.45756200  0.08272394  0.64793397  1
  P  P219  1  0.45859848  0.08408775  0.89696334  1
  P  P220  1  0.45865135  0.41652811  0.14785742  1
  P  P221  1  0.45797224  0.41574967  0.39668876  1
  P  P222  1  0.45746280  0.41840127  0.64740480  1
  P  P223  1  0.45767840  0.41598551  0.89740224  1
  P  P224  1  0.45708153  0.74929233  0.14617847  1
  P  P225  1  0.45753953  0.74825487  0.39814457  1
  P  P226  1  0.45829880  0.74972623  0.64879425  1
  P  P227  1  0.45829159  0.74799264  0.89635068  1
  P  P228  1  0.95807158  0.08164231  0.14693537  1
  P  P229  1  0.95795361  0.08182273  0.39680294  1
  P  P230  1  0.95713295  0.08299892  0.64599893  1
  P  P231  1  0.95843220  0.08355945  0.89895850  1
  P  P232  1  0.95750160  0.41481983  0.14811390  1
  P  P233  1  0.95821061  0.41619979  0.39886002  1
  P  P234  1  0.95736130  0.41699977  0.64581603  1
  P  P235  1  0.95690484  0.41716838  0.89693088  1
  P  P236  1  0.95736122  0.75065844  0.14696867  1
  P  P237  1  0.95832956  0.75029764  0.39888048  1
  P  P238  1  0.95766451  0.74869121  0.64667656  1
  P  P239  1  0.95732124  0.75138534  0.89757797  1
  P  P240  1  0.20849165  0.08321067  0.22559434  1
  P  P241  1  0.20775331  0.08169388  0.47731360  1
  P  P242  1  0.20779028  0.08125377  0.72813410  1
  P  P243  1  0.20908583  0.08304297  0.97678188  1
  P  P244  1  0.20724489  0.41714152  0.22847849  1
  P  P245  1  0.20804348  0.41822311  0.47747687  1
  P  P246  1  0.20711896  0.41587929  0.72950747  1
  P  P247  1  0.20840513  0.41682723  0.97653657  1
  P  P248  1  0.20759845  0.74906681  0.22768180  1
  P  P249  1  0.20744881  0.75029587  0.47896810  1
  P  P250  1  0.20758928  0.74895273  0.72800167  1
  P  P251  1  0.20761304  0.75166913  0.97810222  1
  P  P252  1  0.70761224  0.08163036  0.22756197  1
  P  P253  1  0.70769729  0.08549168  0.47775834  1
  P  P254  1  0.70776348  0.08548405  0.72785202  1
  P  P255  1  0.70796025  0.08162130  0.97796424  1
  P  P256  1  0.70816784  0.41482586  0.22750416  1
  P  P257  1  0.70806364  0.41856692  0.47823348  1
  P  P258  1  0.70851413  0.41723733  0.72641330  1
  P  P259  1  0.70795930  0.41515173  0.97736422  1
  P  P260  1  0.70877063  0.74892257  0.22670494  1
  P  P261  1  0.70798311  0.75096340  0.47754588  1
  P  P262  1  0.70822960  0.74915073  0.72787980  1
  P  P263  1  0.70788631  0.74847631  0.97786955  1
  P  P264  1  0.29166511  0.24879264  0.02117649  1
  P  P265  1  0.29275837  0.24935598  0.27061862  1
  P  P266  1  0.29313164  0.24978263  0.52179488  1
  P  P267  1  0.29150734  0.24937831  0.77374578  1
  P  P268  1  0.29219759  0.58478753  0.02229766  1
  P  P269  1  0.29252520  0.58247789  0.27250929  1
  P  P270  1  0.29211586  0.58443171  0.52309575  1
  P  P271  1  0.29182231  0.58237345  0.77289258  1
  P  P272  1  0.29217722  0.91807940  0.02150557  1
  P  P273  1  0.29238450  0.91836634  0.27192886  1
  P  P274  1  0.29233024  0.91824989  0.52258609  1
  P  P275  1  0.29131423  0.91620747  0.77354809  1
  P  P276  1  0.79238150  0.25096533  0.02236294  1
  P  P277  1  0.79233339  0.24804241  0.27261190  1
  P  P278  1  0.79114334  0.25024555  0.52333893  1
  P  P279  1  0.79212335  0.25203579  0.77191062  1
  P  P280  1  0.79222617  0.58454288  0.02208263  1
  P  P281  1  0.79262438  0.58138191  0.27244335  1
  P  P282  1  0.79089429  0.58371902  0.52318205  1
  P  P283  1  0.79161590  0.58490005  0.77167610  1
  P  P284  1  0.79081558  0.91656899  0.02331881  1
  P  P285  1  0.79197205  0.91447004  0.27185206  1
  P  P286  1  0.79264552  0.91691939  0.52136113  1
  P  P287  1  0.79239908  0.91850986  0.77289282  1
  O  O288  1  0.03748123  0.24863738  0.18277519  1
  O  O289  1  0.03710629  0.25146910  0.43288026  1
  O  O290  1  0.03737964  0.25062791  0.68204637  1
  O  O291  1  0.03732180  0.24839831  0.93362644  1
  O  O292  1  0.03808404  0.58270113  0.18372641  1
  O  O293  1  0.03618954  0.58340314  0.43479488  1
  O  O294  1  0.03595456  0.58437401  0.68177665  1
  O  O295  1  0.03735952  0.58494845  0.93229644  1
  O  O296  1  0.03678634  0.91730665  0.18142342  1
  O  O297  1  0.03693189  0.91842144  0.43272109  1
  O  O298  1  0.03648492  0.91626018  0.68125986  1
  O  O299  1  0.03687834  0.91655725  0.93374961  1
  O  O300  1  0.53665717  0.25113455  0.18124937  1
  O  O301  1  0.53713189  0.25231873  0.43225005  1
  O  O302  1  0.53736075  0.25175065  0.68219879  1
  O  O303  1  0.53726754  0.25019519  0.93386457  1
  O  O304  1  0.53739545  0.58288986  0.18215271  1
  O  O305  1  0.53740604  0.58227075  0.43235139  1
  O  O306  1  0.53634495  0.58448822  0.68318989  1
  O  O307  1  0.53663635  0.58317410  0.93143467  1
  O  O308  1  0.53821893  0.91584510  0.18268929  1
  O  O309  1  0.53829599  0.91602149  0.43332653  1
  O  O310  1  0.53698886  0.91658563  0.68463000  1
  O  O311  1  0.53666012  0.91623642  0.93125121  1
  O  O312  1  0.46358409  0.08459180  0.06585254  1
  O  O313  1  0.46254553  0.08378150  0.31675064  1
  O  O314  1  0.46251520  0.08299863  0.56797313  1
  O  O315  1  0.46364514  0.08344460  0.81700745  1
  O  O316  1  0.46375435  0.41626086  0.06789938  1
  O  O317  1  0.46343265  0.41593298  0.31685449  1
  O  O318  1  0.46265564  0.41788174  0.56747934  1
  O  O319  1  0.46267346  0.41692368  0.81751730  1
  O  O320  1  0.46220393  0.74890529  0.06622440  1
  O  O321  1  0.46240149  0.74844366  0.31815845  1
  O  O322  1  0.46336072  0.74924398  0.56882975  1
  O  O323  1  0.46397517  0.74834762  0.81648550  1
  O  O324  1  0.96347638  0.08227176  0.06708496  1
  O  O325  1  0.96331944  0.08169164  0.31689012  1
  O  O326  1  0.96234448  0.08271873  0.56606246  1
  O  O327  1  0.96277253  0.08338260  0.81891668  1
  O  O328  1  0.96251007  0.41518560  0.06815791  1
  O  O329  1  0.96319977  0.41556622  0.31885993  1
  O  O330  1  0.96281488  0.41702185  0.56592034  1
  O  O331  1  0.96197007  0.41739183  0.81695545  1
  O  O332  1  0.96257582  0.75119150  0.06706353  1
  O  O333  1  0.96306098  0.75062408  0.31891168  1
  O  O334  1  0.96288719  0.74871290  0.56682942  1
  O  O335  1  0.96251267  0.75077246  0.81764068  1
  O  O336  1  0.21418989  0.08352064  0.05661069  1
  O  O337  1  0.21342378  0.08269890  0.30556982  1
  O  O338  1  0.21270124  0.08161826  0.55725904  1
  O  O339  1  0.21320714  0.08158788  0.80799406  1
  O  O340  1  0.21342153  0.41684811  0.05651602  1
  O  O341  1  0.21280091  0.41757991  0.30835592  1
  O  O342  1  0.21287319  0.41780282  0.55746194  1
  O  O343  1  0.21255593  0.41573180  0.80938789  1
  O  O344  1  0.21285788  0.75119668  0.05798464  1
  O  O345  1  0.21289637  0.74947256  0.30762865  1
  O  O346  1  0.21260106  0.74997779  0.55889467  1
  O  O347  1  0.21271464  0.74963534  0.80790800  1
  O  O348  1  0.71307104  0.08108380  0.05789311  1
  O  O349  1  0.71285112  0.08250123  0.30743554  1
  O  O350  1  0.71297706  0.08603472  0.55769517  1
  O  O351  1  0.71317453  0.08479682  0.80775793  1
  O  O352  1  0.71326665  0.41500808  0.05726000  1
  O  O353  1  0.71338968  0.41542297  0.30738490  1
  O  O354  1  0.71326316  0.41856804  0.55808633  1
  O  O355  1  0.71322744  0.41718024  0.80636115  1
  O  O356  1  0.71314732  0.74845671  0.05773245  1
  O  O357  1  0.71369941  0.74967094  0.30667375  1
  O  O358  1  0.71321130  0.75041997  0.55746269  1
  O  O359  1  0.71356219  0.74897867  0.80777871  1
  O  O360  1  0.28725580  0.24885521  0.19070389  1
  O  O361  1  0.28809862  0.24990872  0.44182861  1
  O  O362  1  0.28695872  0.24910747  0.69374860  1
  O  O363  1  0.28618842  0.24921466  0.94132781  1
  O  O364  1  0.28725658  0.58333356  0.19261110  1
  O  O365  1  0.28720817  0.58369272  0.44315817  1
  O  O366  1  0.28653359  0.58315349  0.69302324  1
  O  O367  1  0.28682034  0.58406038  0.94241373  1
  O  O368  1  0.28707453  0.91822975  0.19198753  1
  O  O369  1  0.28730685  0.91826571  0.44263233  1
  O  O370  1  0.28634543  0.91631257  0.69359168  1
  O  O371  1  0.28663906  0.91749117  0.94166735  1
  O  O372  1  0.78739472  0.24858603  0.19268842  1
  O  O373  1  0.78632479  0.24980706  0.44340385  1
  O  O374  1  0.78645919  0.25166610  0.69210112  1
  O  O375  1  0.78731250  0.25113023  0.94245411  1
  O  O376  1  0.78759844  0.58182610  0.19250707  1
  O  O377  1  0.78641456  0.58283327  0.44321495  1
  O  O378  1  0.78618003  0.58496756  0.69181957  1
  O  O379  1  0.78664160  0.58474798  0.94218241  1
  O  O380  1  0.78618233  0.91448410  0.19201171  1
  O  O381  1  0.78719049  0.91614317  0.44149756  1
  O  O382  1  0.78754004  0.91852522  0.69294904  1
  O  O383  1  0.78615745  0.91689222  0.94334058  1
  O  O384  1  0.22758047  0.24845263  0.05749440  1
  O  O385  1  0.22857161  0.24985042  0.30637290  1
  O  O386  1  0.22864764  0.24935661  0.55680628  1
  O  O387  1  0.22729048  0.25012734  0.80935795  1
  O  O388  1  0.22791837  0.58536927  0.05811615  1
  O  O389  1  0.22824859  0.58189220  0.30836940  1
  O  O390  1  0.22772288  0.58499993  0.55862761  1
  O  O391  1  0.22757573  0.58199642  0.80866994  1
  O  O392  1  0.22808613  0.91852182  0.05785573  1
  O  O393  1  0.22808911  0.91850208  0.30774616  1
  O  O394  1  0.22796358  0.91798140  0.55819235  1
  O  O395  1  0.22713994  0.91639868  0.80956462  1
  O  O396  1  0.72808945  0.25086030  0.05811986  1
  O  O397  1  0.72796828  0.24839651  0.30821666  1
  O  O398  1  0.72697976  0.25022520  0.55940202  1
  O  O399  1  0.72807363  0.25194691  0.80839188  1
  O  O400  1  0.72808128  0.58424328  0.05820170  1
  O  O401  1  0.72826002  0.58161310  0.30802517  1
  O  O402  1  0.72672186  0.58471160  0.55902449  1
  O  O403  1  0.72751825  0.58476819  0.80800448  1
  O  O404  1  0.72669503  0.91675243  0.05927416  1
  O  O405  1  0.72796061  0.91457736  0.30838954  1
  O  O406  1  0.72847416  0.91740685  0.55714909  1
  O  O407  1  0.72795689  0.91833369  0.80819956  1
  O  O408  1  0.27270954  0.08334034  0.18956873  1
  O  O409  1  0.27211564  0.08162550  0.44166989  1
  O  O410  1  0.27203281  0.08078698  0.69207947  1
  O  O411  1  0.27303873  0.08235551  0.94028986  1
  O  O412  1  0.27147473  0.41675955  0.19282744  1
  O  O413  1  0.27243888  0.41850724  0.44204812  1
  O  O414  1  0.27139242  0.41623710  0.69381306  1
  O  O415  1  0.27260518  0.41701041  0.94064710  1
  O  O416  1  0.27187806  0.74907060  0.19195398  1
  O  O417  1  0.27176534  0.75046928  0.44357273  1
  O  O418  1  0.27193084  0.74861068  0.69238311  1
  O  O419  1  0.27182780  0.75161715  0.94219875  1
  O  O420  1  0.77186226  0.08109521  0.19167932  1
  O  O421  1  0.77195036  0.08494155  0.44190271  1
  O  O422  1  0.77200641  0.08625650  0.69192860  1
  O  O423  1  0.77225801  0.08182883  0.94224947  1
  O  O424  1  0.77242760  0.41453604  0.19163307  1
  O  O425  1  0.77222667  0.41825829  0.44205335  1
  O  O426  1  0.77259430  0.41680638  0.69043594  1
  O  O427  1  0.77217194  0.41571938  0.94143261  1
  O  O428  1  0.77287229  0.74827236  0.19065617  1
  O  O429  1  0.77228802  0.75113412  0.44174778  1
  O  O430  1  0.77240173  0.74872440  0.69188474  1
  O  O431  1  0.77203991  0.74873786  0.94172277  1
  O  O432  1  0.02227483  0.08150116  0.18298191  1
  O  O433  1  0.02218570  0.08197557  0.43258401  1
  O  O434  1  0.02155742  0.08305941  0.68117310  1
  O  O435  1  0.02280398  0.08383077  0.93423931  1
  O  O436  1  0.02189524  0.41459582  0.18351993  1
  O  O437  1  0.02243205  0.41657139  0.43468210  1
  O  O438  1  0.02149425  0.41722670  0.68171109  1
  O  O439  1  0.02139009  0.41662395  0.93186956  1
  O  O440  1  0.02170573  0.75052915  0.18227559  1
  O  O441  1  0.02250329  0.74960715  0.43454736  1
  O  O442  1  0.02186911  0.74851507  0.68271788  1
  O  O443  1  0.02164367  0.75222638  0.93322318  1
  O  O444  1  0.52212271  0.08413854  0.18149634  1
  O  O445  1  0.52168651  0.08401909  0.43191567  1
  O  O446  1  0.52202707  0.08222866  0.68305966  1
  O  O447  1  0.52281992  0.08464328  0.93260421  1
  O  O448  1  0.52281289  0.41659234  0.18398193  1
  O  O449  1  0.52210294  0.41555256  0.43293665  1
  O  O450  1  0.52182637  0.41895873  0.68293761  1
  O  O451  1  0.52203773  0.41543748  0.93287419  1
  O  O452  1  0.52149580  0.74921946  0.18134673  1
  O  O453  1  0.52202988  0.74785351  0.43329779  1
  O  O454  1  0.52247650  0.75023284  0.68466236  1
  O  O455  1  0.52233496  0.74743613  0.93274926  1
  O  O456  1  0.47744977  0.25073477  0.06521694  1
  O  O457  1  0.47817515  0.25250797  0.31652885  1
  O  O458  1  0.47780568  0.25262454  0.56695885  1
  O  O459  1  0.47851235  0.25043372  0.81831700  1
  O  O460  1  0.47814060  0.58425003  0.06661734  1
  O  O461  1  0.47818810  0.58113408  0.31685139  1
  O  O462  1  0.47760977  0.58481636  0.56717599  1
  O  O463  1  0.47727640  0.58274488  0.81570939  1
  O  O464  1  0.47885960  0.91623641  0.06770662  1
  O  O465  1  0.47874303  0.91650229  0.31843091  1
  O  O466  1  0.47849527  0.91629218  0.56885510  1
  O  O467  1  0.47732555  0.91597632  0.81557987  1
  O  O468  1  0.97817517  0.24773727  0.06732754  1
  O  O469  1  0.97798036  0.25092364  0.31723570  1
  O  O470  1  0.97826043  0.25111595  0.56667081  1
  O  O471  1  0.97813199  0.24958890  0.81840468  1
  O  O472  1  0.97864694  0.58331559  0.06888188  1
  O  O473  1  0.97788309  0.58309053  0.31888430  1
  O  O474  1  0.97685344  0.58352100  0.56584202  1
  O  O475  1  0.97775964  0.58577596  0.81703149  1
  O  O476  1  0.97699959  0.91583500  0.06587545  1
  O  O477  1  0.97810352  0.91885892  0.31680028  1
  O  O478  1  0.97700184  0.91700173  0.56565140  1
  O  O479  1  0.97786473  0.91653964  0.81823345  1
  O  O480  1  0.07347018  0.31176630  0.07459737  1
  O  O481  1  0.07284880  0.31473980  0.32410908  1
  O  O482  1  0.07331225  0.31473063  0.57396764  1
  O  O483  1  0.07342901  0.31297279  0.82606087  1
  O  O484  1  0.07426792  0.64634734  0.07565798  1
  O  O485  1  0.07319405  0.64669069  0.32660723  1
  O  O486  1  0.07195322  0.64726878  0.57336143  1
  O  O487  1  0.07293803  0.64887597  0.82391754  1
  O  O488  1  0.07149505  0.98039713  0.07246759  1
  O  O489  1  0.07356212  0.98123492  0.32348926  1
  O  O490  1  0.07229996  0.98017291  0.57332127  1
  O  O491  1  0.07302016  0.98032099  0.82547972  1
  O  O492  1  0.57261108  0.31421315  0.07292605  1
  O  O493  1  0.57371761  0.31511017  0.32335653  1
  O  O494  1  0.57289406  0.31585133  0.57404144  1
  O  O495  1  0.57393564  0.31373210  0.82554977  1
  O  O496  1  0.57308153  0.64733716  0.07373971  1
  O  O497  1  0.57355588  0.64515275  0.32423376  1
  O  O498  1  0.57230727  0.64850768  0.57466186  1
  O  O499  1  0.57236157  0.64648258  0.82299561  1
  O  O500  1  0.57446066  0.97930297  0.07474574  1
  O  O501  1  0.57434954  0.97964374  0.32526668  1
  O  O502  1  0.57391436  0.97979743  0.57629480  1
  O  O503  1  0.57192308  0.98029588  0.82333233  1
  O  O504  1  0.42703634  0.02041416  0.17349546  1
  O  O505  1  0.42644183  0.02028427  0.42494590  1
  O  O506  1  0.42671650  0.01931902  0.67660811  1
  O  O507  1  0.42755126  0.02052186  0.92496229  1
  O  O508  1  0.42764654  0.35300778  0.17599345  1
  O  O509  1  0.42699668  0.35245161  0.42560690  1
  O  O510  1  0.42650622  0.35488856  0.67568823  1
  O  O511  1  0.42688346  0.35242937  0.92576361  1
  O  O512  1  0.42578595  0.68619772  0.17486805  1
  O  O513  1  0.42681051  0.68472595  0.42663597  1
  O  O514  1  0.42759844  0.68616435  0.67735915  1
  O  O515  1  0.42716851  0.68470465  0.92498026  1
  O  O516  1  0.92721123  0.01807931  0.17527809  1
  O  O517  1  0.92690968  0.01869619  0.42566457  1
  O  O518  1  0.92595710  0.01982339  0.67468974  1
  O  O519  1  0.92824385  0.01956045  0.92746544  1
  O  O520  1  0.92701138  0.35109852  0.17649269  1
  O  O521  1  0.92740930  0.35266504  0.42739543  1
  O  O522  1  0.92628866  0.35359377  0.67423415  1
  O  O523  1  0.92569300  0.35377267  0.92491999  1
  O  O524  1  0.92649943  0.68695201  0.17497213  1
  O  O525  1  0.92681410  0.68694989  0.42667109  1
  O  O526  1  0.92686282  0.68539280  0.67580622  1
  O  O527  1  0.92664308  0.68772864  0.92589443  1
  O  O528  1  0.17763956  0.01974785  0.19696314  1
  O  O529  1  0.17687569  0.01855556  0.44825001  1
  O  O530  1  0.17671365  0.01792235  0.69953163  1
  O  O531  1  0.17754665  0.01971469  0.94881640  1
  O  O532  1  0.17610909  0.35354749  0.20059524  1
  O  O533  1  0.17723630  0.35453058  0.44954945  1
  O  O534  1  0.17617367  0.35254485  0.70067033  1
  O  O535  1  0.17777186  0.35294350  0.94882686  1
  O  O536  1  0.17702601  0.68540393  0.19948795  1
  O  O537  1  0.17614476  0.68714729  0.45059781  1
  O  O538  1  0.17703821  0.68526189  0.69962880  1
  O  O539  1  0.17611310  0.68840535  0.95010387  1
  O  O540  1  0.67678705  0.01794052  0.19965731  1
  O  O541  1  0.67648315  0.02174100  0.45044552  1
  O  O542  1  0.67698239  0.02190416  0.69955238  1
  O  O543  1  0.67704802  0.01849847  0.94875355  1
  O  O544  1  0.67761403  0.35110151  0.19919233  1
  O  O545  1  0.67682303  0.35501812  0.45032299  1
  O  O546  1  0.67701706  0.35414442  0.69798230  1
  O  O547  1  0.67739771  0.35184153  0.94835219  1
  O  O548  1  0.67766498  0.68514525  0.19920033  1
  O  O549  1  0.67695226  0.68746035  0.44931521  1
  O  O550  1  0.67682906  0.68622761  0.69904388  1
  O  O551  1  0.67717963  0.68508794  0.94890912  1
  O  O552  1  0.32270475  0.31241411  0.04928164  1
  O  O553  1  0.32401852  0.31290892  0.29830048  1
  O  O554  1  0.32379758  0.31335529  0.55014633  1
  O  O555  1  0.32291372  0.31264991  0.80186811  1
  O  O556  1  0.32279748  0.64847432  0.05058846  1
  O  O557  1  0.32360463  0.64589254  0.30081686  1
  O  O558  1  0.32262303  0.64817549  0.55151686  1
  O  O559  1  0.32305286  0.64571159  0.80102572  1
  O  O560  1  0.32327528  0.98153527  0.04978234  1
  O  O561  1  0.32334606  0.98169452  0.30036046  1
  O  O562  1  0.32303248  0.98147466  0.55168467  1
  O  O563  1  0.32261310  0.97950995  0.80169258  1
  O  O564  1  0.82323978  0.31415554  0.05131472  1
  O  O565  1  0.82379230  0.31114486  0.30113787  1
  O  O566  1  0.82140538  0.31445107  0.55117099  1
  O  O567  1  0.82283114  0.31566719  0.80033290  1
  O  O568  1  0.82315689  0.64769522  0.05101078  1
  O  O569  1  0.82401211  0.64469345  0.30062194  1
  O  O570  1  0.82206556  0.64740639  0.55074654  1
  O  O571  1  0.82246755  0.64823571  0.80054895  1
  O  O572  1  0.82211709  0.97973655  0.05187870  1
  O  O573  1  0.82325781  0.97806649  0.29953237  1
  O  O574  1  0.82378926  0.98061131  0.54880737  1
  O  O575  1  0.82282853  0.98213905  0.80153298  1
  O  O576  1  0.42643978  0.14740000  0.17396916  1
  O  O577  1  0.42619778  0.14740302  0.42458685  1
  O  O578  1  0.42677665  0.14662034  0.67570531  1
  O  O579  1  0.42770582  0.14773048  0.92529027  1
  O  O580  1  0.42808289  0.48051862  0.17588557  1
  O  O581  1  0.42678141  0.47930906  0.42495536  1
  O  O582  1  0.42661079  0.48201188  0.67577066  1
  O  O583  1  0.42662470  0.47941525  0.92592175  1
  O  O584  1  0.42618962  0.81303810  0.17430964  1
  O  O585  1  0.42671359  0.81201784  0.42617336  1
  O  O586  1  0.42713588  0.81341902  0.67669361  1
  O  O587  1  0.42725215  0.81183306  0.92411898  1
  O  O588  1  0.92674108  0.14500770  0.17543847  1
  O  O589  1  0.92693431  0.14580963  0.42421095  1
  O  O590  1  0.92622778  0.14670961  0.67415647  1
  O  O591  1  0.92726410  0.14697556  0.92720230  1
  O  O592  1  0.92642892  0.47842891  0.17614775  1
  O  O593  1  0.92732761  0.48010352  0.42669418  1
  O  O594  1  0.92594218  0.48042642  0.67400056  1
  O  O595  1  0.92618398  0.48087985  0.92512886  1
  O  O596  1  0.92609330  0.81386144  0.17559995  1
  O  O597  1  0.92833519  0.81447371  0.42732236  1
  O  O598  1  0.92654004  0.81241031  0.67462764  1
  O  O599  1  0.92615615  0.81484974  0.92586796  1
  O  O600  1  0.07336515  0.18461304  0.07434395  1
  O  O601  1  0.07350799  0.18755307  0.32532713  1
  O  O602  1  0.07385807  0.18750617  0.57409790  1
  O  O603  1  0.07367721  0.18601215  0.82477904  1
  O  O604  1  0.07389827  0.51928886  0.07535044  1
  O  O605  1  0.07342732  0.51989113  0.32678194  1
  O  O606  1  0.07195694  0.51990885  0.57409989  1
  O  O607  1  0.07294003  0.52156220  0.82424027  1
  O  O608  1  0.07257074  0.85304054  0.07355230  1
  O  O609  1  0.07305558  0.85429359  0.32509575  1
  O  O610  1  0.07154078  0.85261661  0.57292014  1
  O  O611  1  0.07357830  0.85362430  0.82513165  1
  O  O612  1  0.57222847  0.18669174  0.07336551  1
  O  O613  1  0.57308332  0.18809463  0.32454010  1
  O  O614  1  0.57299713  0.18844695  0.57419194  1
  O  O615  1  0.57409757  0.18707138  0.82542518  1
  O  O616  1  0.57364165  0.52025693  0.07395824  1
  O  O617  1  0.57331307  0.51810371  0.32384644  1
  O  O618  1  0.57321114  0.52155518  0.57506982  1
  O  O619  1  0.57225647  0.51910988  0.82328954  1
  O  O620  1  0.57409232  0.85235214  0.07437767  1
  O  O621  1  0.57395875  0.85243238  0.32504724  1
  O  O622  1  0.57405940  0.85300770  0.57656687  1
  O  O623  1  0.57274790  0.85259257  0.82355277  1
  O  O624  1  0.32281160  0.18534418  0.04958252  1
  O  O625  1  0.32392985  0.18600241  0.29901017  1
  O  O626  1  0.32432310  0.18631223  0.54990990  1
  O  O627  1  0.32160414  0.18513326  0.80196129  1
  O  O628  1  0.32336530  0.52117954  0.05026638  1
  O  O629  1  0.32326599  0.51874193  0.30075937  1
  O  O630  1  0.32325193  0.52100331  0.55144999  1
  O  O631  1  0.32253556  0.51858563  0.80109830  1
  O  O632  1  0.32335981  0.85458926  0.04987621  1
  O  O633  1  0.32328396  0.85448316  0.29980224  1
  O  O634  1  0.32349930  0.85452691  0.55048515  1
  O  O635  1  0.32175712  0.85215396  0.80168560  1
  O  O636  1  0.82326319  0.18698264  0.04998590  1
  O  O637  1  0.82256059  0.18401677  0.30092509  1
  O  O638  1  0.82244716  0.18702592  0.55194907  1
  O  O639  1  0.82365915  0.18868915  0.80024324  1
  O  O640  1  0.82344823  0.52062070  0.04932427  1
  O  O641  1  0.82294127  0.51758431  0.30110905  1
  O  O642  1  0.82122734  0.52000414  0.55229621  1
  O  O643  1  0.82295425  0.52125163  0.79953310  1
  O  O644  1  0.82108574  0.85235258  0.05142321  1
  O  O645  1  0.82292070  0.85101533  0.30063244  1
  O  O646  1  0.82379100  0.85370121  0.55020768  1
  O  O647  1  0.82350908  0.85479528  0.80057343  1
  O  O648  1  0.17776196  0.14713344  0.19767784  1
  O  O649  1  0.17691332  0.14560956  0.44938069  1
  O  O650  1  0.17687541  0.14497384  0.69984869  1
  O  O651  1  0.17862943  0.14685701  0.94783446  1
  O  O652  1  0.17586769  0.48036327  0.20008364  1
  O  O653  1  0.17736276  0.48194662  0.44932002  1
  O  O654  1  0.17565905  0.47926875  0.70123403  1
  O  O655  1  0.17748619  0.48064728  0.94869559  1
  O  O656  1  0.17638036  0.81277612  0.20007416  1
  O  O657  1  0.17647960  0.81398327  0.45086873  1
  O  O658  1  0.17633791  0.81240841  0.69979522  1
  O  O659  1  0.17717210  0.81547369  0.94957265  1
  O  O660  1  0.67650362  0.14510292  0.19909133  1
  O  O661  1  0.67699301  0.14887571  0.44866065  1
  O  O662  1  0.67656587  0.14904424  0.69984747  1
  O  O663  1  0.67702966  0.14563696  0.95065109  1
  O  O664  1  0.67690999  0.47822516  0.19921081  1
  O  O665  1  0.67738330  0.48207158  0.44921553  1
  O  O666  1  0.67830746  0.48149320  0.69823538  1
  O  O667  1  0.67663568  0.47895503  0.94985876  1
  O  O668  1  0.67817966  0.81254378  0.19771969  1
  O  O669  1  0.67718273  0.81456974  0.44918665  1
  O  O670  1  0.67764218  0.81338040  0.70055693  1
  O  O671  1  0.67652201  0.81204642  0.94977240  1
