# generated using pymatgen
data_Na2MnFe(PO4)2
_symmetry_space_group_name_H-M   'P 1'
_cell_length_a   22.34540578
_cell_length_b   20.09852557
_cell_length_c   19.44849807
_cell_angle_alpha   90.01295234
_cell_angle_beta   89.98244035
_cell_angle_gamma   90.00147559
_symmetry_Int_Tables_number   1
_chemical_formula_structural   Na2MnFe(PO4)2
_chemical_formula_sum   'Na96 Mn48 Fe48 P96 O384'
_cell_volume   8734.50868164
_cell_formula_units_Z   48
loop_
 _symmetry_equiv_pos_site_id
 _symmetry_equiv_pos_as_xyz
  1  'x, y, z'
loop_
 _atom_site_type_symbol
 _atom_site_label
 _atom_site_symmetry_multiplicity
 _atom_site_fract_x
 _atom_site_fract_y
 _atom_site_fract_z
 _atom_site_occupancy
  Na  Na0  1  0.13987304  0.25035421  0.24381150  1
  Na  Na1  1  0.14034242  0.25151992  0.49347093  1
  Na  Na2  1  0.14013027  0.25100696  0.74477589  1
  Na  Na3  1  0.14007994  0.24763093  0.99486989  1
  Na  Na4  1  0.14055498  0.58286042  0.24380785  1
  Na  Na5  1  0.14071926  0.58237178  0.49423048  1
  Na  Na6  1  0.14053287  0.58231031  0.74416161  1
  Na  Na7  1  0.14023027  0.58207050  0.99393673  1
  Na  Na8  1  0.14027107  0.91693220  0.24445450  1
  Na  Na9  1  0.13936983  0.91652313  0.49448221  1
  Na  Na10  1  0.13930510  0.91633806  0.74349454  1
  Na  Na11  1  0.14029311  0.91537604  0.99372256  1
  Na  Na12  1  0.64021627  0.25028093  0.24351151  1
  Na  Na13  1  0.64027837  0.25012531  0.49345073  1
  Na  Na14  1  0.64023626  0.24982376  0.74268993  1
  Na  Na15  1  0.64046837  0.24982265  0.99279501  1
  Na  Na16  1  0.64097822  0.58355195  0.24347903  1
  Na  Na17  1  0.64062450  0.58395547  0.49437105  1
  Na  Na18  1  0.64094823  0.58318531  0.74119946  1
  Na  Na19  1  0.64098838  0.58381265  0.99244039  1
  Na  Na20  1  0.64040908  0.91771045  0.24405027  1
  Na  Na21  1  0.64001569  0.91809918  0.49227659  1
  Na  Na22  1  0.64097812  0.91632856  0.74256216  1
  Na  Na23  1  0.64117646  0.91728676  0.99361501  1
  Na  Na24  1  0.35926626  0.08166688  0.00554070  1
  Na  Na25  1  0.35976043  0.08439913  0.25669093  1
  Na  Na26  1  0.36010686  0.08499303  0.50686006  1
  Na  Na27  1  0.35965680  0.08465755  0.75539032  1
  Na  Na28  1  0.36045090  0.41381263  0.00539198  1
  Na  Na29  1  0.36031760  0.41624287  0.25705511  1
  Na  Na30  1  0.35988405  0.41767052  0.50690155  1
  Na  Na31  1  0.36049282  0.41632139  0.75535092  1
  Na  Na32  1  0.36008959  0.74951184  0.00517567  1
  Na  Na33  1  0.35959696  0.74994389  0.25604930  1
  Na  Na34  1  0.35975329  0.74962903  0.50668731  1
  Na  Na35  1  0.35978500  0.74926619  0.75533381  1
  Na  Na36  1  0.85900626  0.08390975  0.00664780  1
  Na  Na37  1  0.85906387  0.08336836  0.25703098  1
  Na  Na38  1  0.85922523  0.08255878  0.50680162  1
  Na  Na39  1  0.85850112  0.08265895  0.75761974  1
  Na  Na40  1  0.85909831  0.41631186  0.00763730  1
  Na  Na41  1  0.86014227  0.41580430  0.25628564  1
  Na  Na42  1  0.85956842  0.41716349  0.50646177  1
  Na  Na43  1  0.85913216  0.41617616  0.75641369  1
  Na  Na44  1  0.85953163  0.75067064  0.00659144  1
  Na  Na45  1  0.85947934  0.75124165  0.25533734  1
  Na  Na46  1  0.85885819  0.75175304  0.50779864  1
  Na  Na47  1  0.85963061  0.75152446  0.75655307  1
  Na  Na48  1  0.10934709  0.08321845  0.11901158  1
  Na  Na49  1  0.10885999  0.08330770  0.36916526  1
  Na  Na50  1  0.10862315  0.08173647  0.61994776  1
  Na  Na51  1  0.10902625  0.08242549  0.86965736  1
  Na  Na52  1  0.10948164  0.41621140  0.11960905  1
  Na  Na53  1  0.10992528  0.41587605  0.36791812  1
  Na  Na54  1  0.11019269  0.41663849  0.61842073  1
  Na  Na55  1  0.10944521  0.41673285  0.86940378  1
  Na  Na56  1  0.10963558  0.74898067  0.11779722  1
  Na  Na57  1  0.10911944  0.74968805  0.36987529  1
  Na  Na58  1  0.10932325  0.75097278  0.61890354  1
  Na  Na59  1  0.10928668  0.75056354  0.86941820  1
  Na  Na60  1  0.60991765  0.08422426  0.11874406  1
  Na  Na61  1  0.60997771  0.08487086  0.36867345  1
  Na  Na62  1  0.60943148  0.08394963  0.61708162  1
  Na  Na63  1  0.61038390  0.08423470  0.86726870  1
  Na  Na64  1  0.61006183  0.41542286  0.11858191  1
  Na  Na65  1  0.61011757  0.41693276  0.37007988  1
  Na  Na66  1  0.61033914  0.41611610  0.61799107  1
  Na  Na67  1  0.61001834  0.41545347  0.86703186  1
  Na  Na68  1  0.61046063  0.75040786  0.11806734  1
  Na  Na69  1  0.61007613  0.75249084  0.36855324  1
  Na  Na70  1  0.61003599  0.74998526  0.61710004  1
  Na  Na71  1  0.61034844  0.74971205  0.86757440  1
  Na  Na72  1  0.39037268  0.24947539  0.13126270  1
  Na  Na73  1  0.39083814  0.25149198  0.38230562  1
  Na  Na74  1  0.39063569  0.25134858  0.63069366  1
  Na  Na75  1  0.39018899  0.25013054  0.88013522  1
  Na  Na76  1  0.39128577  0.58200720  0.13102404  1
  Na  Na77  1  0.39065626  0.58298279  0.38262183  1
  Na  Na78  1  0.39066919  0.58174689  0.63202627  1
  Na  Na79  1  0.39125692  0.58193673  0.87925674  1
  Na  Na80  1  0.39045521  0.91633732  0.13104714  1
  Na  Na81  1  0.39100980  0.91825220  0.38118622  1
  Na  Na82  1  0.39089392  0.91669432  0.63060931  1
  Na  Na83  1  0.39046725  0.91677689  0.88060540  1
  Na  Na84  1  0.88959850  0.25023415  0.13226194  1
  Na  Na85  1  0.88995267  0.24894571  0.38065118  1
  Na  Na86  1  0.88995979  0.24940254  0.63199438  1
  Na  Na87  1  0.88936336  0.25082584  0.88287117  1
  Na  Na88  1  0.89048681  0.58304888  0.13070208  1
  Na  Na89  1  0.89043741  0.58353680  0.38070388  1
  Na  Na90  1  0.88988760  0.58431049  0.63211826  1
  Na  Na91  1  0.89041093  0.58450967  0.88171812  1
  Na  Na92  1  0.88998793  0.91641744  0.13157585  1
  Na  Na93  1  0.88932082  0.91671839  0.38264156  1
  Na  Na94  1  0.88900984  0.91668957  0.63194917  1
  Na  Na95  1  0.88945094  0.91670759  0.88228694  1
  Mn  Mn96  1  0.24978920  0.16612513  0.87478285  1
  Mn  Mn97  1  0.24975101  0.00042138  0.62506770  1
  Mn  Mn98  1  0.50076330  0.66708066  0.25073453  1
  Mn  Mn99  1  0.49949719  0.16741707  -0.00070771  1
  Mn  Mn100  1  0.50036599  0.00095514  0.74881639  1
  Mn  Mn101  1  -0.00012461  0.16573533  0.75077940  1
  Mn  Mn102  1  0.75023866  0.66780231  0.87395278  1
  Mn  Mn103  1  0.50070006  0.66557089  -0.00081137  1
  Mn  Mn104  1  0.25018133  0.66564734  0.87493411  1
  Mn  Mn105  1  0.25026097  0.83312349  0.37534611  1
  Mn  Mn106  1  0.25102652  0.66636275  0.12488484  1
  Mn  Mn107  1  0.24978208  0.33188749  0.12579079  1
  Mn  Mn108  1  0.74995015  0.00044463  0.12505379  1
  Mn  Mn109  1  0.25052400  0.83285368  0.62507584  1
  Mn  Mn110  1  0.50012347  0.83484093  0.24920996  1
  Mn  Mn111  1  0.24950033  0.66566044  0.37522971  1
  Mn  Mn112  1  0.24944037  0.16826204  0.37599599  1
  Mn  Mn113  1  -0.00008761  0.50033861  0.75047764  1
  Mn  Mn114  1  -0.00037959  0.49978515  0.49989288  1
  Mn  Mn115  1  0.00020798  0.16525107  0.50114541  1
  Mn  Mn116  1  0.25096441  0.49819295  0.87439027  1
  Mn  Mn117  1  0.25060564  0.49872037  0.12484783  1
  Mn  Mn118  1  0.50099005  0.49905980  0.25049539  1
  Mn  Mn119  1  0.24876450  0.16821692  0.62595493  1
  Mn  Mn120  1  0.50078290  0.83275097  0.74924257  1
  Mn  Mn121  1  0.50122041  0.49832602  -0.00023642  1
  Mn  Mn122  1  0.24954632  0.83319335  0.87465131  1
  Mn  Mn123  1  0.75067742  0.66803778  0.37484525  1
  Mn  Mn124  1  0.00014746  0.00009966  0.25043495  1
  Mn  Mn125  1  0.50028794  0.66658809  0.49985065  1
  Mn  Mn126  1  -0.00064194  0.33256617  0.49948068  1
  Mn  Mn127  1  0.50047316  0.00053876  -0.00096552  1
  Mn  Mn128  1  -0.00047960  0.33339451  0.75116111  1
  Mn  Mn129  1  -0.00006428  0.83301063  0.25031749  1
  Mn  Mn130  1  -0.00078294  0.66590210  0.24936470  1
  Mn  Mn131  1  0.74959036  0.33274580  0.37520328  1
  Mn  Mn132  1  0.00070526  0.66802844  0.75110759  1
  Mn  Mn133  1  -0.00023872  0.00020972  0.00059614  1
  Mn  Mn134  1  -0.00001107  0.33342069  0.00106325  1
  Mn  Mn135  1  -0.00027534  0.66740997  0.50063524  1
  Mn  Mn136  1  0.25004590  -0.00054932  0.12545506  1
  Mn  Mn137  1  0.74989133  0.16642149  0.62519876  1
  Mn  Mn138  1  0.50049209  0.83303257  -0.00053231  1
  Mn  Mn139  1  0.74987280  0.49988232  0.12431699  1
  Mn  Mn140  1  0.75060081  0.49961115  0.87442361  1
  Mn  Mn141  1  0.24994583  0.00083825  0.37458691  1
  Mn  Mn142  1  0.50031990  0.16732398  0.25004394  1
  Mn  Mn143  1  0.75052662  0.50042986  0.37503377  1
  Fe  Fe144  1  0.24994413  0.49938287  0.62490087  1
  Fe  Fe145  1  0.74998720  0.66774954  0.62448291  1
  Fe  Fe146  1  -0.00081288  0.83417523  0.75042800  1
  Fe  Fe147  1  0.50020969  0.33386467  0.50076712  1
  Fe  Fe148  1  -0.00086367  0.83374967  0.50052879  1
  Fe  Fe149  1  0.50020566  0.16771174  0.49929155  1
  Fe  Fe150  1  0.74941164  0.16668291  0.12452489  1
  Fe  Fe151  1  0.49986048  0.83401763  0.49937241  1
  Fe  Fe152  1  0.74957051  -0.00014424  0.87538796  1
  Fe  Fe153  1  0.50075076  0.49979830  0.50082599  1
  Fe  Fe154  1  0.49984462  0.00123038  0.49982485  1
  Fe  Fe155  1  0.50087699  0.49897011  0.74983386  1
  Fe  Fe156  1  0.25005501  0.33442478  0.62457890  1
  Fe  Fe157  1  0.25000108  0.83304195  0.12482424  1
  Fe  Fe158  1  0.49946916  0.16739470  0.74857494  1
  Fe  Fe159  1  0.00024583  0.49985122  0.24989029  1
  Fe  Fe160  1  -0.00091343  0.16634748  0.25020553  1
  Fe  Fe161  1  -0.00085596  0.16677835  0.00076320  1
  Fe  Fe162  1  0.75070889  0.33274462  0.62493110  1
  Fe  Fe163  1  0.24978912  -0.00073787  0.87535753  1
  Fe  Fe164  1  0.74955706  0.33271169  0.12506863  1
  Fe  Fe165  1  0.50033289  0.66580314  0.74882275  1
  Fe  Fe166  1  0.74965957  0.83409458  0.37538754  1
  Fe  Fe167  1  0.75040697  0.16683608  0.37507153  1
  Fe  Fe168  1  0.00003391  0.83371782  0.00005012  1
  Fe  Fe169  1  0.50061607  0.33289293  0.74880855  1
  Fe  Fe170  1  -0.00113828  -0.00073369  0.50050692  1
  Fe  Fe171  1  0.75022721  0.66769585  0.12444730  1
  Fe  Fe172  1  0.25061155  0.49990436  0.37559128  1
  Fe  Fe173  1  -0.00039664  0.33289472  0.24970449  1
  Fe  Fe174  1  0.00018741  0.66666255  0.00004662  1
  Fe  Fe175  1  0.25023232  0.16586759  0.12465603  1
  Fe  Fe176  1  -0.00044899  0.49986673  0.00055033  1
  Fe  Fe177  1  -0.00117065  -0.00067285  0.75064509  1
  Fe  Fe178  1  0.74978205  0.00047496  0.37475288  1
  Fe  Fe179  1  0.74969131  0.33294441  0.87498228  1
  Fe  Fe180  1  0.74947030  0.83356020  0.87480767  1
  Fe  Fe181  1  0.74944577  0.83461481  0.62528530  1
  Fe  Fe182  1  0.74912934  0.00011259  0.62529522  1
  Fe  Fe183  1  0.75033325  0.50008783  0.62511196  1
  Fe  Fe184  1  0.50011937  0.33367968  0.25110996  1
  Fe  Fe185  1  0.50024960  0.00107582  0.25035728  1
  Fe  Fe186  1  0.25053308  0.33416364  0.37504684  1
  Fe  Fe187  1  0.75010278  0.83416697  0.12496957  1
  Fe  Fe188  1  0.50042492  0.33272270  -0.00087224  1
  Fe  Fe189  1  0.74971130  0.16684838  0.87488469  1
  Fe  Fe190  1  0.24965352  0.66582383  0.62507127  1
  Fe  Fe191  1  0.24970424  0.33272542  0.87475263  1
  P  P192  1  0.04135768  0.24838871  0.10384934  1
  P  P193  1  0.04091141  0.24925289  0.35148728  1
  P  P194  1  0.04277556  0.24952903  0.60358320  1
  P  P195  1  0.04221821  0.24956221  0.85450061  1
  P  P196  1  0.04139968  0.58257803  0.10185001  1
  P  P197  1  0.04220845  0.58223868  0.35230724  1
  P  P198  1  0.04266258  0.58370035  0.60334708  1
  P  P199  1  0.04267790  0.58371678  0.85454595  1
  P  P200  1  0.04229969  0.91567281  0.10258951  1
  P  P201  1  0.04211670  0.91645444  0.35446439  1
  P  P202  1  0.04042927  0.91661233  0.60274228  1
  P  P203  1  0.04088057  0.91654128  0.85238807  1
  P  P204  1  0.54238860  0.25127246  0.10230101  1
  P  P205  1  0.54230034  0.25161515  0.35344237  1
  P  P206  1  0.54144917  0.25007347  0.60170551  1
  P  P207  1  0.54144920  0.25000537  0.85064647  1
  P  P208  1  0.54388061  0.58232240  0.10288248  1
  P  P209  1  0.54341095  0.58306205  0.35398908  1
  P  P210  1  0.54229831  0.58196591  0.60324213  1
  P  P211  1  0.54256413  0.58257293  0.85047456  1
  P  P212  1  0.54317897  0.91753285  0.10294722  1
  P  P213  1  0.54197989  0.91906555  0.35316342  1
  P  P214  1  0.54135131  0.91709052  0.60070612  1
  P  P215  1  0.54331243  0.91702636  0.85202871  1
  P  P216  1  0.45783801  0.08268084  0.14763116  1
  P  P217  1  0.45879414  0.08432318  0.39804981  1
  P  P218  1  0.45780784  0.08537667  0.64575604  1
  P  P219  1  0.45728964  0.08424186  0.89544688  1
  P  P220  1  0.45833433  0.41443760  0.14754411  1
  P  P221  1  0.45919869  0.41687203  0.39902976  1
  P  P222  1  0.45971581  0.41638936  0.64753192  1
  P  P223  1  0.45865302  0.41473979  0.89616029  1
  P  P224  1  0.45761924  0.74965402  0.14672863  1
  P  P225  1  0.45800352  0.75172596  0.39752746  1
  P  P226  1  0.45837885  0.74865545  0.64652930  1
  P  P227  1  0.45797851  0.74890765  0.89553748  1
  P  P228  1  0.95718754  0.08448492  0.14768037  1
  P  P229  1  0.95735688  0.08211489  0.39789449  1
  P  P230  1  0.95683446  0.08105989  0.64812271  1
  P  P231  1  0.95719243  0.08425517  0.89804250  1
  P  P232  1  0.95869633  0.41708252  0.14820594  1
  P  P233  1  0.95715368  0.41634182  0.39561909  1
  P  P234  1  0.95691449  0.41648290  0.64717236  1
  P  P235  1  0.95706447  0.41791310  0.89853460  1
  P  P236  1  0.95768367  0.74978338  0.14564727  1
  P  P237  1  0.95680579  0.75111909  0.39810057  1
  P  P238  1  0.95771972  0.75209514  0.64793580  1
  P  P239  1  0.95852392  0.75073038  0.89867549  1
  P  P240  1  0.20752267  0.08499025  0.22755965  1
  P  P241  1  0.20674493  0.08406043  0.47845734  1
  P  P242  1  0.20665812  0.08326684  0.72910598  1
  P  P243  1  0.20760644  0.08141174  0.97786490  1
  P  P244  1  0.20761885  0.41642304  0.22921175  1
  P  P245  1  0.20858272  0.41702394  0.47714327  1
  P  P246  1  0.20845238  0.41629237  0.72682127  1
  P  P247  1  0.20774080  0.41408308  0.97746800  1
  P  P248  1  0.20761833  0.75077483  0.22729696  1
  P  P249  1  0.20724189  0.74901846  0.47888349  1
  P  P250  1  0.20762406  0.74846729  0.72730347  1
  P  P251  1  0.20736994  0.74955032  0.97849942  1
  P  P252  1  0.70801104  0.08492442  0.22793080  1
  P  P253  1  0.70889312  0.08364613  0.47664582  1
  P  P254  1  0.70734652  0.08217639  0.72794430  1
  P  P255  1  0.70858484  0.08391332  0.97654277  1
  P  P256  1  0.70818363  0.41545492  0.22714983  1
  P  P257  1  0.70809621  0.41694241  0.47914243  1
  P  P258  1  0.70924288  0.41573401  0.72647160  1
  P  P259  1  0.70797507  0.41523125  0.97724195  1
  P  P260  1  0.70873547  0.75124777  0.22656746  1
  P  P261  1  0.70794714  0.75197107  0.47820791  1
  P  P262  1  0.70880129  0.75090072  0.72628704  1
  P  P263  1  0.70801133  0.75167193  0.97772334  1
  P  P264  1  0.29225354  0.24790687  0.02224612  1
  P  P265  1  0.29258735  0.25120048  0.27290691  1
  P  P266  1  0.29193414  0.25238493  0.52255566  1
  P  P267  1  0.29194619  0.25164133  0.77199267  1
  P  P268  1  0.29363963  0.58195363  0.02160740  1
  P  P269  1  0.29305341  0.58183610  0.27294159  1
  P  P270  1  0.29169282  0.58245452  0.52350894  1
  P  P271  1  0.29271184  0.58245996  0.77053996  1
  P  P272  1  0.29231252  0.91524693  0.02220252  1
  P  P273  1  0.29297484  0.91657399  0.27151315  1
  P  P274  1  0.29294245  0.91691585  0.52191714  1
  P  P275  1  0.29224261  0.91781932  0.77243052  1
  P  P276  1  0.79095853  0.24987198  0.02283780  1
  P  P277  1  0.79157518  0.24858120  0.27179603  1
  P  P278  1  0.79234785  0.25030686  0.52246963  1
  P  P279  1  0.79110755  0.25005938  0.77325160  1
  P  P280  1  0.79194955  0.58486624  0.02225490  1
  P  P281  1  0.79260890  0.58422093  0.27107451  1
  P  P282  1  0.79145801  0.58397931  0.52362701  1
  P  P283  1  0.79258301  0.58363892  0.77069835  1
  P  P284  1  0.79209405  0.91603530  0.02211641  1
  P  P285  1  0.79117243  0.91671365  0.27349647  1
  P  P286  1  0.79035938  0.91755212  0.52309490  1
  P  P287  1  0.79064980  0.91681122  0.77326123  1
  O  O288  1  0.03572379  0.24847362  0.18372652  1
  O  O289  1  0.03641976  0.24936751  0.43151923  1
  O  O290  1  0.03773272  0.24967137  0.68356473  1
  O  O291  1  0.03687064  0.24929342  0.93446467  1
  O  O292  1  0.03617838  0.58225550  0.18184166  1
  O  O293  1  0.03704871  0.58276398  0.43224878  1
  O  O294  1  0.03783703  0.58381119  0.68334364  1
  O  O295  1  0.03718938  0.58361052  0.93444761  1
  O  O296  1  0.03749605  0.91601558  0.18257019  1
  O  O297  1  0.03650421  0.91656870  0.43437638  1
  O  O298  1  0.03533777  0.91649504  0.68269864  1
  O  O299  1  0.03605360  0.91628169  0.93236773  1
  O  O300  1  0.53741187  0.25126296  0.18226108  1
  O  O301  1  0.53686772  0.25101402  0.43328334  1
  O  O302  1  0.53642821  0.24987854  0.68158604  1
  O  O303  1  0.53667864  0.25040033  0.93062867  1
  O  O304  1  0.53896610  0.58254375  0.18288929  1
  O  O305  1  0.53805773  0.58264311  0.43396157  1
  O  O306  1  0.53677599  0.58229119  0.68310635  1
  O  O307  1  0.53801139  0.58230773  0.93053715  1
  O  O308  1  0.53805977  0.91824131  0.18295566  1
  O  O309  1  0.53631513  0.91843225  0.43302025  1
  O  O310  1  0.53676510  0.91709727  0.68069581  1
  O  O311  1  0.53824092  0.91683905  0.93198471  1
  O  O312  1  0.46273172  0.08299434  0.06763764  1
  O  O313  1  0.46375469  0.08365200  0.31808264  1
  O  O314  1  0.46324440  0.08539364  0.56585608  1
  O  O315  1  0.46228017  0.08487467  0.81547006  1
  O  O316  1  0.46363728  0.41418895  0.06759107  1
  O  O317  1  0.46406185  0.41610777  0.31906668  1
  O  O318  1  0.46442478  0.41704205  0.56765267  1
  O  O319  1  0.46398589  0.41520813  0.81628763  1
  O  O320  1  0.46264407  0.74935547  0.06670822  1
  O  O321  1  0.46331386  0.75161298  0.31759403  1
  O  O322  1  0.46346153  0.74956732  0.56657568  1
  O  O323  1  0.46340589  0.74836219  0.81556059  1
  O  O324  1  0.96232490  0.08455831  0.06772849  1
  O  O325  1  0.96245724  0.08288864  0.31794749  1
  O  O326  1  0.96206924  0.08074634  0.56816840  1
  O  O327  1  0.96236318  0.08331450  0.81812570  1
  O  O328  1  0.96364212  0.41727381  0.06821480  1
  O  O329  1  0.96247320  0.41651044  0.31567830  1
  O  O330  1  0.96177517  0.41622945  0.56713315  1
  O  O331  1  0.96201706  0.41746140  0.81855056  1
  O  O332  1  0.96344087  0.74997852  0.06579386  1
  O  O333  1  0.96170248  0.75055539  0.31809868  1
  O  O334  1  0.96274842  0.75229445  0.56797741  1
  O  O335  1  0.96355762  0.75137212  0.81866175  1
  O  O336  1  0.21309813  0.08197370  0.05778886  1
  O  O337  1  0.21243799  0.08503224  0.30752798  1
  O  O338  1  0.21154078  0.08422070  0.55844401  1
  O  O339  1  0.21210905  0.08234730  0.80904612  1
  O  O340  1  0.21265502  0.41434274  0.05742792  1
  O  O341  1  0.21284728  0.41679293  0.30912979  1
  O  O342  1  0.21360806  0.41695727  0.55711138  1
  O  O343  1  0.21353221  0.41560022  0.80675940  1
  O  O344  1  0.21267418  0.75015271  0.05844758  1
  O  O345  1  0.21280974  0.75032552  0.30730473  1
  O  O346  1  0.21258944  0.74840186  0.55882399  1
  O  O347  1  0.21257769  0.74886672  0.80729524  1
  O  O348  1  0.71319226  0.08435276  0.05650641  1
  O  O349  1  0.71353393  0.08481764  0.30776371  1
  O  O350  1  0.71344603  0.08284819  0.55662091  1
  O  O351  1  0.71251585  0.08257075  0.80777168  1
  O  O352  1  0.71311840  0.41519199  0.05719504  1
  O  O353  1  0.71320090  0.41574584  0.30710255  1
  O  O354  1  0.71377605  0.41682724  0.55899918  1
  O  O355  1  0.71420834  0.41540661  0.80647787  1
  O  O356  1  0.71356821  0.75126857  0.05756711  1
  O  O357  1  0.71374498  0.75144837  0.30655881  1
  O  O358  1  0.71321296  0.75167460  0.55807576  1
  O  O359  1  0.71319596  0.75124951  0.80627955  1
  O  O360  1  0.28783682  0.25014301  0.19297242  1
  O  O361  1  0.28688657  0.25266664  0.44260469  1
  O  O362  1  0.28649856  0.25220893  0.69208975  1
  O  O363  1  0.28698296  0.24842884  0.94235893  1
  O  O364  1  0.28836763  0.58218753  0.19294234  1
  O  O365  1  0.28671513  0.58193340  0.44350168  1
  O  O366  1  0.28701967  0.58270022  0.69065282  1
  O  O367  1  0.28844352  0.58179805  0.94161826  1
  O  O368  1  0.28771042  0.91601761  0.19153142  1
  O  O369  1  0.28795525  0.91688094  0.44195241  1
  O  O370  1  0.28726668  0.91743587  0.69245405  1
  O  O371  1  0.28684776  0.91617446  0.94224209  1
  O  O372  1  0.78610342  0.24860530  0.19194512  1
  O  O373  1  0.78708784  0.24950788  0.44256340  1
  O  O374  1  0.78652555  0.25024167  0.69325270  1
  O  O375  1  0.78578086  0.25046891  0.94292752  1
  O  O376  1  0.78707379  0.58457267  0.19116594  1
  O  O377  1  0.78672670  0.58416619  0.44357998  1
  O  O378  1  0.78724671  0.58355756  0.69080661  1
  O  O379  1  0.78721077  0.58469722  0.94224510  1
  O  O380  1  0.78636280  0.91679024  0.19355680  1
  O  O381  1  0.78556165  0.91712662  0.44322284  1
  O  O382  1  0.78544787  0.91738069  0.69340744  1
  O  O383  1  0.78668286  0.91612123  0.94230647  1
  O  O384  1  0.22798318  0.24754502  0.05810063  1
  O  O385  1  0.22811975  0.25219664  0.30814342  1
  O  O386  1  0.22758718  0.25255247  0.55808606  1
  O  O387  1  0.22777969  0.25113843  0.80799683  1
  O  O388  1  0.22920830  0.58242273  0.05667545  1
  O  O389  1  0.22852079  0.58106497  0.30802962  1
  O  O390  1  0.22749659  0.58223014  0.55944668  1
  O  O391  1  0.22862337  0.58190480  0.80660892  1
  O  O392  1  0.22810881  0.91471885  0.05819598  1
  O  O393  1  0.22855924  0.91670148  0.30671577  1
  O  O394  1  0.22844617  0.91643802  0.55678792  1
  O  O395  1  0.22779723  0.91809765  0.80772864  1
  O  O396  1  0.72688593  0.24971989  0.05917701  1
  O  O397  1  0.72751084  0.24820038  0.30813116  1
  O  O398  1  0.72807450  0.25111359  0.55820131  1
  O  O399  1  0.72686293  0.25045210  0.80895553  1
  O  O400  1  0.72771064  0.58454175  0.05769861  1
  O  O401  1  0.72847827  0.58429318  0.30695243  1
  O  O402  1  0.72733108  0.58375279  0.55943697  1
  O  O403  1  0.72838976  0.58366278  0.80649409  1
  O  O404  1  0.72800252  0.91577272  0.05842250  1
  O  O405  1  0.72704577  0.91637248  0.30953645  1
  O  O406  1  0.72625480  0.91816986  0.55932836  1
  O  O407  1  0.72664569  0.91612327  0.80967792  1
  O  O408  1  0.27194850  0.08448879  0.19229387  1
  O  O409  1  0.27129535  0.08431762  0.44369899  1
  O  O410  1  0.27093457  0.08416819  0.69360175  1
  O  O411  1  0.27174764  0.08113290  0.94176028  1
  O  O412  1  0.27195168  0.41577034  0.19373049  1
  O  O413  1  0.27282032  0.41706708  0.44105869  1
  O  O414  1  0.27266972  0.41683264  0.69080034  1
  O  O415  1  0.27220773  0.41373042  0.94221388  1
  O  O416  1  0.27201232  0.75146784  0.19180384  1
  O  O417  1  0.27157178  0.74900785  0.44351541  1
  O  O418  1  0.27200582  0.74819055  0.69200215  1
  O  O419  1  0.27163694  0.74968970  0.94299497  1
  O  O420  1  0.77202074  0.08524731  0.19145305  1
  O  O421  1  0.77302579  0.08411187  0.44075996  1
  O  O422  1  0.77155668  0.08168456  0.69194643  1
  O  O423  1  0.77266674  0.08371765  0.94064023  1
  O  O424  1  0.77239333  0.41553380  0.19147351  1
  O  O425  1  0.77214436  0.41649324  0.44298788  1
  O  O426  1  0.77331220  0.41568307  0.69036093  1
  O  O427  1  0.77229412  0.41495316  0.94164487  1
  O  O428  1  0.77281191  0.75165143  0.19033001  1
  O  O429  1  0.77212538  0.75268396  0.44209865  1
  O  O430  1  0.77300108  0.75103805  0.69074875  1
  O  O431  1  0.77212874  0.75217746  0.94140893  1
  O  O432  1  0.02151930  0.08468198  0.18322190  1
  O  O433  1  0.02160416  0.08107146  0.43360343  1
  O  O434  1  0.02111777  0.08087220  0.68376012  1
  O  O435  1  0.02141962  0.08478250  0.93385255  1
  O  O436  1  0.02271556  0.41704166  0.18433805  1
  O  O437  1  0.02142359  0.41629015  0.43127477  1
  O  O438  1  0.02142931  0.41642051  0.68199162  1
  O  O439  1  0.02151005  0.41803701  0.93370349  1
  O  O440  1  0.02172377  0.74943165  0.18182439  1
  O  O441  1  0.02120568  0.75169522  0.43337858  1
  O  O442  1  0.02199880  0.75256931  0.68356698  1
  O  O443  1  0.02262351  0.75021830  0.93466129  1
  O  O444  1  0.52219822  0.08257754  0.18307202  1
  O  O445  1  0.52292350  0.08498954  0.43400529  1
  O  O446  1  0.52195045  0.08571224  0.68186314  1
  O  O447  1  0.52168368  0.08440369  0.93062413  1
  O  O448  1  0.52261424  0.41437956  0.18335510  1
  O  O449  1  0.52335585  0.41745725  0.43487068  1
  O  O450  1  0.52378499  0.41582937  0.68358681  1
  O  O451  1  0.52283979  0.41412105  0.93228765  1
  O  O452  1  0.52210949  0.75025664  0.18163738  1
  O  O453  1  0.52227378  0.75171402  0.43310299  1
  O  O454  1  0.52269100  0.74842363  0.68206295  1
  O  O455  1  0.52229455  0.74932979  0.93096808  1
  O  O456  1  0.47805066  0.25175722  0.06666188  1
  O  O457  1  0.47819162  0.25184355  0.31721334  1
  O  O458  1  0.47741037  0.24959256  0.56550032  1
  O  O459  1  0.47725021  0.25000260  0.81476604  1
  O  O460  1  0.47942751  0.58192078  0.06791148  1
  O  O461  1  0.47910762  0.58288004  0.31861707  1
  O  O462  1  0.47825369  0.58176404  0.56691045  1
  O  O463  1  0.47827017  0.58278894  0.81506734  1
  O  O464  1  0.47881691  0.91712921  0.06768576  1
  O  O465  1  0.47799728  0.91937856  0.31663612  1
  O  O466  1  0.47712219  0.91669371  0.56523621  1
  O  O467  1  0.47891046  0.91684288  0.81697821  1
  O  O468  1  0.97727723  0.24869168  0.06755000  1
  O  O469  1  0.97669758  0.24919433  0.31586621  1
  O  O470  1  0.97828410  0.24920457  0.56869136  1
  O  O471  1  0.97788460  0.24950812  0.81914864  1
  O  O472  1  0.97731010  0.58284189  0.06566301  1
  O  O473  1  0.97787144  0.58157662  0.31678579  1
  O  O474  1  0.97813599  0.58361093  0.56856489  1
  O  O475  1  0.97848572  0.58408584  0.81875608  1
  O  O476  1  0.97787673  0.91581623  0.06746816  1
  O  O477  1  0.97794257  0.91671187  0.31862425  1
  O  O478  1  0.97631897  0.91655429  0.56647072  1
  O  O479  1  0.97658923  0.91661974  0.81658620  1
  O  O480  1  0.07290486  0.31192728  0.07625218  1
  O  O481  1  0.07127678  0.31312981  0.32301258  1
  O  O482  1  0.07363185  0.31285905  0.57491154  1
  O  O483  1  0.07304761  0.31336229  0.82662491  1
  O  O484  1  0.07214336  0.64641237  0.07384360  1
  O  O485  1  0.07277929  0.64611758  0.32428657  1
  O  O486  1  0.07341325  0.64729196  0.57513997  1
  O  O487  1  0.07409266  0.64701168  0.82620579  1
  O  O488  1  0.07334490  0.97932655  0.07476221  1
  O  O489  1  0.07358204  0.97965588  0.32594639  1
  O  O490  1  0.07133687  0.98020862  0.57432085  1
  O  O491  1  0.07127358  0.98045482  0.82410729  1
  O  O492  1  0.57369675  0.31414359  0.07324603  1
  O  O493  1  0.57328785  0.31509097  0.32510974  1
  O  O494  1  0.57173419  0.31415959  0.57341501  1
  O  O495  1  0.57249930  0.31335260  0.82193285  1
  O  O496  1  0.57465944  0.64578947  0.07438029  1
  O  O497  1  0.57416472  0.64698663  0.32626946  1
  O  O498  1  0.57351569  0.64545719  0.57511087  1
  O  O499  1  0.57343186  0.64616567  0.82224721  1
  O  O500  1  0.57435029  0.98078083  0.07432499  1
  O  O501  1  0.57289696  0.98263951  0.32488122  1
  O  O502  1  0.57154867  0.98121955  0.57257569  1
  O  O503  1  0.57405735  0.98066325  0.82394747  1
  O  O504  1  0.42711423  0.01924187  0.17615125  1
  O  O505  1  0.42827468  0.02070695  0.42693938  1
  O  O506  1  0.42687551  0.02156701  0.67359788  1
  O  O507  1  0.42662853  0.02040445  0.92336518  1
  O  O508  1  0.42723052  0.35140612  0.17665035  1
  O  O509  1  0.42871660  0.35321992  0.42792428  1
  O  O510  1  0.42844985  0.35280562  0.67543544  1
  O  O511  1  0.42746271  0.35149140  0.92480652  1
  O  O512  1  0.42698507  0.68608795  0.17526725  1
  O  O513  1  0.42683390  0.68806049  0.42510760  1
  O  O514  1  0.42789013  0.68480667  0.67469621  1
  O  O515  1  0.42687327  0.68559507  0.92401881  1
  O  O516  1  0.92648678  0.02049218  0.17537965  1
  O  O517  1  0.92611348  0.01873599  0.42605834  1
  O  O518  1  0.92572816  0.01802650  0.67725150  1
  O  O519  1  0.92621152  0.02075007  0.92633263  1
  O  O520  1  0.92830869  0.35290222  0.17608147  1
  O  O521  1  0.92602070  0.35283107  0.42387021  1
  O  O522  1  0.92588275  0.35311643  0.67562875  1
  O  O523  1  0.92612469  0.35435455  0.92673718  1
  O  O524  1  0.92624682  0.68640007  0.17367790  1
  O  O525  1  0.92613789  0.68731048  0.42615355  1
  O  O526  1  0.92722327  0.68810272  0.67576365  1
  O  O527  1  0.92750971  0.68694676  0.92636725  1
  O  O528  1  0.17602175  0.02151977  0.20002372  1
  O  O529  1  0.17606352  0.02047657  0.45013849  1
  O  O530  1  0.17568201  0.02003096  0.70027128  1
  O  O531  1  0.17680822  0.01770827  0.94978535  1
  O  O532  1  0.17610395  0.35318221  0.20095470  1
  O  O533  1  0.17769814  0.35348304  0.44850986  1
  O  O534  1  0.17761136  0.35284363  0.69814279  1
  O  O535  1  0.17695240  0.35052802  0.94911875  1
  O  O536  1  0.17713826  0.68671318  0.19957349  1
  O  O537  1  0.17588754  0.68585682  0.45024355  1
  O  O538  1  0.17681835  0.68495594  0.69897382  1
  O  O539  1  0.17661678  0.68572539  0.95075026  1
  O  O540  1  0.67719667  0.02108966  0.19989948  1
  O  O541  1  0.67835690  0.02011627  0.44750626  1
  O  O542  1  0.67614115  0.01902068  0.69906373  1
  O  O543  1  0.67796413  0.01997857  0.94853372  1
  O  O544  1  0.67761674  0.35172514  0.19884370  1
  O  O545  1  0.67648070  0.35374534  0.45086242  1
  O  O546  1  0.67800138  0.35241852  0.69806179  1
  O  O547  1  0.67678543  0.35214264  0.94836698  1
  O  O548  1  0.67867890  0.68702672  0.19832491  1
  O  O549  1  0.67725392  0.68818888  0.44995910  1
  O  O550  1  0.67838536  0.68695453  0.69800297  1
  O  O551  1  0.67709346  0.68803398  0.94930112  1
  O  O552  1  0.32345696  0.31123634  0.05052098  1
  O  O553  1  0.32353484  0.31469987  0.30133351  1
  O  O554  1  0.32305600  0.31559969  0.55129350  1
  O  O555  1  0.32262900  0.31497738  0.80102358  1
  O  O556  1  0.32491494  0.64532698  0.04961661  1
  O  O557  1  0.32343321  0.64580076  0.30102432  1
  O  O558  1  0.32208393  0.64657694  0.55125682  1
  O  O559  1  0.32374957  0.64587908  0.79898503  1
  O  O560  1  0.32348201  0.97869660  0.05041292  1
  O  O561  1  0.32367721  0.98050668  0.29932164  1
  O  O562  1  0.32367637  0.98056891  0.54995016  1
  O  O563  1  0.32301440  0.98134369  0.80073855  1
  O  O564  1  0.82174601  0.31338842  0.05188546  1
  O  O565  1  0.82257890  0.31231324  0.29964848  1
  O  O566  1  0.82354898  0.31372130  0.55055767  1
  O  O567  1  0.82262173  0.31307594  0.80190458  1
  O  O568  1  0.82218850  0.64866377  0.05077246  1
  O  O569  1  0.82404697  0.64739253  0.29952361  1
  O  O570  1  0.82201363  0.64794864  0.55158424  1
  O  O571  1  0.82383924  0.64705460  0.79900818  1
  O  O572  1  0.82290199  0.97982552  0.05032734  1
  O  O573  1  0.82130247  0.98088075  0.30184880  1
  O  O574  1  0.82172612  0.98084045  0.55149522  1
  O  O575  1  0.82096048  0.98057356  0.80234666  1
  O  O576  1  0.42701700  0.14643076  0.17562403  1
  O  O577  1  0.42756777  0.14801312  0.42562654  1
  O  O578  1  0.42664734  0.14861046  0.67454338  1
  O  O579  1  0.42590638  0.14724470  0.92433488  1
  O  O580  1  0.42757017  0.47841023  0.17524145  1
  O  O581  1  0.42810982  0.48050221  0.42691601  1
  O  O582  1  0.42920382  0.47993251  0.67676629  1
  O  O583  1  0.42786810  0.47843109  0.92457201  1
  O  O584  1  0.42634507  0.81307760  0.17459806  1
  O  O585  1  0.42723997  0.81528599  0.42585938  1
  O  O586  1  0.42701858  0.81197854  0.67478726  1
  O  O587  1  0.42690140  0.81259427  0.92333988  1
  O  O588  1  0.92606803  0.14758101  0.17659372  1
  O  O589  1  0.92677046  0.14578056  0.42642177  1
  O  O590  1  0.92607854  0.14507290  0.67564897  1
  O  O591  1  0.92636026  0.14790818  0.92613951  1
  O  O592  1  0.92742030  0.48037390  0.17648662  1
  O  O593  1  0.92589774  0.47963375  0.42427856  1
  O  O594  1  0.92612815  0.48014453  0.67513446  1
  O  O595  1  0.92632845  0.48151193  0.92672905  1
  O  O596  1  0.92651634  0.81310867  0.17424430  1
  O  O597  1  0.92584681  0.81449585  0.42659119  1
  O  O598  1  0.92634998  0.81510677  0.67681970  1
  O  O599  1  0.92778433  0.81436397  0.92718534  1
  O  O600  1  0.07204459  0.18496560  0.07487257  1
  O  O601  1  0.07186037  0.18558214  0.32357835  1
  O  O602  1  0.07374806  0.18587547  0.57571168  1
  O  O603  1  0.07362075  0.18646220  0.82605964  1
  O  O604  1  0.07244083  0.51904051  0.07362808  1
  O  O605  1  0.07331155  0.51889488  0.32403776  1
  O  O606  1  0.07364487  0.52024786  0.57509050  1
  O  O607  1  0.07370944  0.52024764  0.82602898  1
  O  O608  1  0.07281998  0.85215077  0.07387776  1
  O  O609  1  0.07326820  0.85299008  0.32620483  1
  O  O610  1  0.07148505  0.85314024  0.57415698  1
  O  O611  1  0.07197086  0.85318716  0.82388777  1
  O  O612  1  0.57275822  0.18716555  0.07428544  1
  O  O613  1  0.57336414  0.18815691  0.32489389  1
  O  O614  1  0.57304072  0.18705455  0.57295922  1
  O  O615  1  0.57207611  0.18620067  0.82247346  1
  O  O616  1  0.57492167  0.51882143  0.07471780  1
  O  O617  1  0.57496260  0.52004117  0.32546784  1
  O  O618  1  0.57331598  0.51849176  0.57488950  1
  O  O619  1  0.57309522  0.51862955  0.82233842  1
  O  O620  1  0.57414032  0.85384784  0.07503662  1
  O  O621  1  0.57325447  0.85562341  0.32490757  1
  O  O622  1  0.57245641  0.85360831  0.57257772  1
  O  O623  1  0.57452575  0.85368755  0.82379540  1
  O  O624  1  0.32278889  0.18411951  0.05062530  1
  O  O625  1  0.32336468  0.18771994  0.30156259  1
  O  O626  1  0.32258717  0.18849665  0.55034007  1
  O  O627  1  0.32321708  0.18791727  0.79922336  1
  O  O628  1  0.32436793  0.51824326  0.04960328  1
  O  O629  1  0.32415075  0.51864371  0.30160005  1
  O  O630  1  0.32297895  0.51921372  0.55208410  1
  O  O631  1  0.32427715  0.51913048  0.79853931  1
  O  O632  1  0.32318924  0.85160998  0.05017774  1
  O  O633  1  0.32433004  0.85352316  0.30011605  1
  O  O634  1  0.32417425  0.85357241  0.55012402  1
  O  O635  1  0.32314766  0.85400575  0.80005326  1
  O  O636  1  0.82197033  0.18620886  0.05079788  1
  O  O637  1  0.82280381  0.18547047  0.30080441  1
  O  O638  1  0.82302986  0.18671019  0.55103110  1
  O  O639  1  0.82107566  0.18580640  0.80151461  1
  O  O640  1  0.82334972  0.52133913  0.04978198  1
  O  O641  1  0.82349007  0.52048840  0.29898006  1
  O  O642  1  0.82239570  0.52031962  0.55153065  1
  O  O643  1  0.82371535  0.52029260  0.79932781  1
  O  O644  1  0.82328651  0.85293863  0.05101687  1
  O  O645  1  0.82258282  0.85355090  0.30184632  1
  O  O646  1  0.82072352  0.85383978  0.55228241  1
  O  O647  1  0.82214537  0.85345566  0.80130252  1
  O  O648  1  0.17742184  0.14871404  0.19870060  1
  O  O649  1  0.17561687  0.14751677  0.45037927  1
  O  O650  1  0.17534920  0.14695249  0.70179347  1
  O  O651  1  0.17633600  0.14482975  0.94992307  1
  O  O652  1  0.17683023  0.47980166  0.20023998  1
  O  O653  1  0.17776612  0.48064560  0.44877633  1
  O  O654  1  0.17747955  0.47999327  0.69891533  1
  O  O655  1  0.17703478  0.47780094  0.94943361  1
  O  O656  1  0.17651580  0.81410677  0.19906666  1
  O  O657  1  0.17630470  0.81269393  0.45108917  1
  O  O658  1  0.17676525  0.81231151  0.69967198  1
  O  O659  1  0.17586747  0.81258759  0.94984133  1
  O  O660  1  0.67661997  0.14796296  0.19909577  1
  O  O661  1  0.67790826  0.14744060  0.44907245  1
  O  O662  1  0.67665330  0.14589208  0.69943477  1
  O  O663  1  0.67770167  0.14735327  0.94774622  1
  O  O664  1  0.67684259  0.47890203  0.19939715  1
  O  O665  1  0.67717678  0.48048531  0.45076369  1
  O  O666  1  0.67887402  0.47985547  0.69854960  1
  O  O667  1  0.67734280  0.47918377  0.94934763  1
  O  O668  1  0.67727269  0.81450988  0.19842671  1
  O  O669  1  0.67670697  0.81513754  0.44940670  1
  O  O670  1  0.67768669  0.81423343  0.69758519  1
  O  O671  1  0.67676446  0.81488221  0.94909224  1
