# generated using pymatgen
data_Na2MnFe(PO4)2
_symmetry_space_group_name_H-M   'P 1'
_cell_length_a   22.34602557
_cell_length_b   20.09781332
_cell_length_c   19.44790285
_cell_angle_alpha   90.00264122
_cell_angle_beta   89.98206981
_cell_angle_gamma   90.04206894
_symmetry_Int_Tables_number   1
_chemical_formula_structural   Na2MnFe(PO4)2
_chemical_formula_sum   'Na96 Mn48 Fe48 P96 O384'
_cell_volume   8734.17193328
_cell_formula_units_Z   48
loop_
 _symmetry_equiv_pos_site_id
 _symmetry_equiv_pos_as_xyz
  1  'x, y, z'
loop_
 _atom_site_type_symbol
 _atom_site_label
 _atom_site_symmetry_multiplicity
 _atom_site_fract_x
 _atom_site_fract_y
 _atom_site_fract_z
 _atom_site_occupancy
  Na  Na0  1  0.14053526  0.24957804  0.24275276  1
  Na  Na1  1  0.14055488  0.25050012  0.49449656  1
  Na  Na2  1  0.14088442  0.24965476  0.74345781  1
  Na  Na3  1  0.13980411  0.25004012  0.99236286  1
  Na  Na4  1  0.14039023  0.58330853  0.24333569  1
  Na  Na5  1  0.14034568  0.58299282  0.49301029  1
  Na  Na6  1  0.14006703  0.58275208  0.74324236  1
  Na  Na7  1  0.14063715  0.58325041  0.99382409  1
  Na  Na8  1  0.14035703  0.91500634  0.24269087  1
  Na  Na9  1  0.14015813  0.91628783  0.49345046  1
  Na  Na10  1  0.14044876  0.91702286  0.74370957  1
  Na  Na11  1  0.14083436  0.91710704  0.99385356  1
  Na  Na12  1  0.64026762  0.24907797  0.24312588  1
  Na  Na13  1  0.64001838  0.24990270  0.49315179  1
  Na  Na14  1  0.64028561  0.24974652  0.74455448  1
  Na  Na15  1  0.64031332  0.25001379  0.99347659  1
  Na  Na16  1  0.64018935  0.58232697  0.24426276  1
  Na  Na17  1  0.64066554  0.58336274  0.49303724  1
  Na  Na18  1  0.64054015  0.58320173  0.74478980  1
  Na  Na19  1  0.64050789  0.58429894  0.99484611  1
  Na  Na20  1  0.64040628  0.91664716  0.24420737  1
  Na  Na21  1  0.63980896  0.91694725  0.49415066  1
  Na  Na22  1  0.63984417  0.91791865  0.74372099  1
  Na  Na23  1  0.64105753  0.91862078  0.99361571  1
  Na  Na24  1  0.35972643  0.08423752  0.00577812  1
  Na  Na25  1  0.35988330  0.08245876  0.25658509  1
  Na  Na26  1  0.35955482  0.08352989  0.50788373  1
  Na  Na27  1  0.35974527  0.08314394  0.75593688  1
  Na  Na28  1  0.35904769  0.41700487  0.00607584  1
  Na  Na29  1  0.35921703  0.41747196  0.25633932  1
  Na  Na30  1  0.35932878  0.41620238  0.50695937  1
  Na  Na31  1  0.35924376  0.41643675  0.75603783  1
  Na  Na32  1  0.35903010  0.75002415  0.00641395  1
  Na  Na33  1  0.35971648  0.74875028  0.25798406  1
  Na  Na34  1  0.35932516  0.75050780  0.50565088  1
  Na  Na35  1  0.35929567  0.75038836  0.75645796  1
  Na  Na36  1  0.85972926  0.08504914  0.00657817  1
  Na  Na37  1  0.86021011  0.08377140  0.25584157  1
  Na  Na38  1  0.86002988  0.08330320  0.50569723  1
  Na  Na39  1  0.85974741  0.08324855  0.75753160  1
  Na  Na40  1  0.85964472  0.41627146  0.00605462  1
  Na  Na41  1  0.85969550  0.41618225  0.25616470  1
  Na  Na42  1  0.85979039  0.41609824  0.50535460  1
  Na  Na43  1  0.85958251  0.41600559  0.75616749  1
  Na  Na44  1  0.85971188  0.75149461  0.00554026  1
  Na  Na45  1  0.86020685  0.74957253  0.25704660  1
  Na  Na46  1  0.85994204  0.74998192  0.50493804  1
  Na  Na47  1  0.85962089  0.74959645  0.75737045  1
  Na  Na48  1  0.10982846  0.08386535  0.11863334  1
  Na  Na49  1  0.10967479  0.08248003  0.36842414  1
  Na  Na50  1  0.11015613  0.08293224  0.61930657  1
  Na  Na51  1  0.10997919  0.08408503  0.86810803  1
  Na  Na52  1  0.10982600  0.41695092  0.11847046  1
  Na  Na53  1  0.11005876  0.41772652  0.36834258  1
  Na  Na54  1  0.11027731  0.41692102  0.61864864  1
  Na  Na55  1  0.10963432  0.41566941  0.86764708  1
  Na  Na56  1  0.11017397  0.74980764  0.11919395  1
  Na  Na57  1  0.10968121  0.74973778  0.36613769  1
  Na  Na58  1  0.10934927  0.74851335  0.61895368  1
  Na  Na59  1  0.11009535  0.74964195  0.86775444  1
  Na  Na60  1  0.61025499  0.08456834  0.11833003  1
  Na  Na61  1  0.60899370  0.08250920  0.36939871  1
  Na  Na62  1  0.60926804  0.08291391  0.61862190  1
  Na  Na63  1  0.61029365  0.08354017  0.86839171  1
  Na  Na64  1  0.60963003  0.41582194  0.11906176  1
  Na  Na65  1  0.60974521  0.41537429  0.36816887  1
  Na  Na66  1  0.60939055  0.41586031  0.61803548  1
  Na  Na67  1  0.60940739  0.41662091  0.86963533  1
  Na  Na68  1  0.60961606  0.75052304  0.12057461  1
  Na  Na69  1  0.60925085  0.75070898  0.36881137  1
  Na  Na70  1  0.60959645  0.75167847  0.61961256  1
  Na  Na71  1  0.60954243  0.75177473  0.86868302  1
  Na  Na72  1  0.39031921  0.25006544  0.12952570  1
  Na  Na73  1  0.39075963  0.24859080  0.38221535  1
  Na  Na74  1  0.38971771  0.24911040  0.63166952  1
  Na  Na75  1  0.38974864  0.24990918  0.88144821  1
  Na  Na76  1  0.38978927  0.58413505  0.13275002  1
  Na  Na77  1  0.38975334  0.58371389  0.38200964  1
  Na  Na78  1  0.39018763  0.58377580  0.63114578  1
  Na  Na79  1  0.39001293  0.58349121  0.88206736  1
  Na  Na80  1  0.39029040  0.91718288  0.13210523  1
  Na  Na81  1  0.39036751  0.91666688  0.38177252  1
  Na  Na82  1  0.38998058  0.91689879  0.63093355  1
  Na  Na83  1  0.39016372  0.91736708  0.88084861  1
  Na  Na84  1  0.89016268  0.25003200  0.13155226  1
  Na  Na85  1  0.89038257  0.25039714  0.38045232  1
  Na  Na86  1  0.89023547  0.24935904  0.63178766  1
  Na  Na87  1  0.89041336  0.24926781  0.88184736  1
  Na  Na88  1  0.89080550  0.58377850  0.13180534  1
  Na  Na89  1  0.89056526  0.58286829  0.38033896  1
  Na  Na90  1  0.89046921  0.58233269  0.63054618  1
  Na  Na91  1  0.89039716  0.58213368  0.88037070  1
  Na  Na92  1  0.89067294  0.91739181  0.13211845  1
  Na  Na93  1  0.89068561  0.91616198  0.37999716  1
  Na  Na94  1  0.89068891  0.91634856  0.63227506  1
  Na  Na95  1  0.89010754  0.91823861  0.88185941  1
  Mn  Mn96  1  0.49902054  0.50005028  0.25031638  1
  Mn  Mn97  1  -0.00021881  0.16633542  0.50002600  1
  Mn  Mn98  1  0.50051354  0.00117894  0.00094796  1
  Mn  Mn99  1  0.50042541  0.49979165  0.50008788  1
  Mn  Mn100  1  0.49989392  0.83406872  0.00050742  1
  Mn  Mn101  1  0.00025259  0.83357226  -0.00046808  1
  Mn  Mn102  1  0.75038663  0.66698010  0.12505680  1
  Mn  Mn103  1  -0.00017541  0.66544222  0.49871899  1
  Mn  Mn104  1  0.50047543  0.16581887  0.74977160  1
  Mn  Mn105  1  -0.00010435  0.33307061  0.74985004  1
  Mn  Mn106  1  0.74989651  0.33318777  0.87510367  1
  Mn  Mn107  1  0.24998590  0.00047139  0.87451096  1
  Mn  Mn108  1  0.00020130  0.83268043  0.49987804  1
  Mn  Mn109  1  0.24867960  0.83323028  0.62502600  1
  Mn  Mn110  1  0.75007903  0.66678344  0.62508181  1
  Mn  Mn111  1  -0.00000691  0.66640414  -0.00019170  1
  Mn  Mn112  1  0.25015041  0.33402661  0.12457096  1
  Mn  Mn113  1  0.74970580  0.16703459  0.37453971  1
  Mn  Mn114  1  0.25057481  0.16612170  0.12444781  1
  Mn  Mn115  1  0.00074508  0.33402467  0.50038422  1
  Mn  Mn116  1  0.00076764  0.49934580  -0.00023644  1
  Mn  Mn117  1  0.24971221  0.16639539  0.37533944  1
  Mn  Mn118  1  -0.00031216  -0.00027357  0.49960818  1
  Mn  Mn119  1  0.00063232  0.00128096  0.00100456  1
  Mn  Mn120  1  0.24977454  0.50028831  0.87497465  1
  Mn  Mn121  1  0.75057890  0.49920431  0.12486232  1
  Mn  Mn122  1  0.50054963  0.49968544  0.00110348  1
  Mn  Mn123  1  0.49948179  0.66739116  0.00058471  1
  Mn  Mn124  1  0.24925220  0.66617664  0.62483591  1
  Mn  Mn125  1  0.75010537  0.83459564  0.12502177  1
  Mn  Mn126  1  0.00063408  0.33354519  0.24985904  1
  Mn  Mn127  1  0.49976312  0.33270017  0.74989499  1
  Mn  Mn128  1  0.25054039  0.83253119  0.12473208  1
  Mn  Mn129  1  0.50038370  0.66815160  0.50121572  1
  Mn  Mn130  1  0.49964234  0.33191695  0.24953481  1
  Mn  Mn131  1  0.75096539  0.00091829  0.62512045  1
  Mn  Mn132  1  0.75011646  0.66691699  0.87547514  1
  Mn  Mn133  1  0.74984120  -0.00018904  0.37512016  1
  Mn  Mn134  1  0.50011893  0.00053678  0.25029732  1
  Mn  Mn135  1  -0.00020758  0.83335511  0.74972471  1
  Mn  Mn136  1  0.74974970  0.66652392  0.37490930  1
  Mn  Mn137  1  0.75019707  0.83398840  0.62552884  1
  Mn  Mn138  1  0.50022727  0.66783752  0.75047337  1
  Mn  Mn139  1  0.49960560  0.49978564  0.75030552  1
  Mn  Mn140  1  0.74964393  0.49918633  0.62441009  1
  Mn  Mn141  1  0.25052911  0.33417141  0.37491051  1
  Mn  Mn142  1  0.74934412  0.33204333  0.62559282  1
  Mn  Mn143  1  0.24943913  -0.00103057  0.37556286  1
  Fe  Fe144  1  0.75010027  0.49902002  0.37440670  1
  Fe  Fe145  1  0.25017231  0.83282059  0.37469159  1
  Fe  Fe146  1  0.74990650  0.16663416  0.62502679  1
  Fe  Fe147  1  0.49990149  0.16647122  0.25050869  1
  Fe  Fe148  1  0.24986782  0.33335131  0.62531498  1
  Fe  Fe149  1  0.75084886  0.00063245  0.12436465  1
  Fe  Fe150  1  0.00042491  0.16654782  0.75052832  1
  Fe  Fe151  1  0.00001697  0.16689847  0.00011226  1
  Fe  Fe152  1  0.00076348  0.16733162  0.24977907  1
  Fe  Fe153  1  0.49958552  0.16584869  0.50017220  1
  Fe  Fe154  1  0.74969353  0.49988674  0.87526367  1
  Fe  Fe155  1  0.49947826  0.83412429  0.50013729  1
  Fe  Fe156  1  0.49942298  -0.00003541  0.74937715  1
  Fe  Fe157  1  0.50015705  0.83384949  0.25093760  1
  Fe  Fe158  1  0.75051335  0.33270447  0.37449669  1
  Fe  Fe159  1  0.25027966  -0.00049662  0.12467548  1
  Fe  Fe160  1  0.24973161  0.66590799  0.37509207  1
  Fe  Fe161  1  0.25011446  0.66644474  0.87508365  1
  Fe  Fe162  1  -0.00042758  0.66566328  0.74912491  1
  Fe  Fe163  1  0.24966713  0.50011761  0.37520940  1
  Fe  Fe164  1  0.24982437  0.16682197  0.87460211  1
  Fe  Fe165  1  0.00038372  0.00040212  0.75070520  1
  Fe  Fe166  1  0.24990635  0.16688891  0.62554968  1
  Fe  Fe167  1  0.74936873  0.33325723  0.12493527  1
  Fe  Fe168  1  -0.00007091  0.83342032  0.24951801  1
  Fe  Fe169  1  0.24995649  0.83352235  0.87531574  1
  Fe  Fe170  1  0.49944520  0.33285027  0.00005998  1
  Fe  Fe171  1  0.00038660  0.00039806  0.24970449  1
  Fe  Fe172  1  0.74976653  0.83444901  0.87570534  1
  Fe  Fe173  1  0.75003900  0.16675264  0.12469352  1
  Fe  Fe174  1  0.25032219  -0.00012417  0.62514967  1
  Fe  Fe175  1  0.75032843  0.16682453  0.87545786  1
  Fe  Fe176  1  -0.00019247  0.50004988  0.24919774  1
  Fe  Fe177  1  0.24980066  0.33356967  0.87439609  1
  Fe  Fe178  1  0.00032927  0.66655040  0.24952188  1
  Fe  Fe179  1  -0.00029936  0.33300250  -0.00030095  1
  Fe  Fe180  1  0.49919368  0.83461052  0.74953827  1
  Fe  Fe181  1  0.00032712  0.50011457  0.49948046  1
  Fe  Fe182  1  0.49959698  -0.00049158  0.50000214  1
  Fe  Fe183  1  0.24982338  0.50079092  0.12525430  1
  Fe  Fe184  1  0.25035894  0.49998060  0.62498808  1
  Fe  Fe185  1  0.75031951  0.83360522  0.37490421  1
  Fe  Fe186  1  0.50025671  0.66737940  0.25118169  1
  Fe  Fe187  1  0.25014929  0.66632416  0.12538789  1
  Fe  Fe188  1  0.50001569  0.16688678  -0.00057612  1
  Fe  Fe189  1  0.74988245  0.00109090  0.87511945  1
  Fe  Fe190  1  0.49952408  0.33242983  0.49948966  1
  Fe  Fe191  1  -0.00026507  0.49926456  0.74976576  1
  P  P192  1  0.04147153  0.25006717  0.10162055  1
  P  P193  1  0.04309316  0.24918595  0.35231500  1
  P  P194  1  0.04256927  0.24945310  0.60382121  1
  P  P195  1  0.04214083  0.24887018  0.85302266  1
  P  P196  1  0.04267616  0.58331101  0.10366119  1
  P  P197  1  0.04128717  0.58267798  0.35108605  1
  P  P198  1  0.04208501  0.58172567  0.60265247  1
  P  P199  1  0.04153543  0.58255351  0.85094665  1
  P  P200  1  0.04278734  0.91670579  0.10399791  1
  P  P201  1  0.04166073  0.91651541  0.35092784  1
  P  P202  1  0.04263559  0.91670805  0.60349704  1
  P  P203  1  0.04250804  0.91807850  0.85252224  1
  P  P204  1  0.54149149  0.24948409  0.10156075  1
  P  P205  1  0.54197451  0.24806980  0.35319201  1
  P  P206  1  0.54112647  0.24945217  0.60112719  1
  P  P207  1  0.54230446  0.24956522  0.85383472  1
  P  P208  1  0.54239673  0.58431004  0.10452902  1
  P  P209  1  0.54181643  0.58434014  0.35284741  1
  P  P210  1  0.54327195  0.58380605  0.60348260  1
  P  P211  1  0.54269707  0.58361602  0.85361765  1
  P  P212  1  0.54313489  0.91696749  0.10407019  1
  P  P213  1  0.54186455  0.91610054  0.35347661  1
  P  P214  1  0.54106661  0.91687407  0.60228063  1
  P  P215  1  0.54109170  0.91767310  0.85145000  1
  P  P216  1  0.45798721  0.08545234  0.14746099  1
  P  P217  1  0.45817190  0.08277744  0.39862577  1
  P  P218  1  0.45781562  0.08177960  0.64649575  1
  P  P219  1  0.45796163  0.08404179  0.89717413  1
  P  P220  1  0.45692815  0.41588056  0.14657652  1
  P  P221  1  0.45761497  0.41502497  0.39764686  1
  P  P222  1  0.45715836  0.41591164  0.64625900  1
  P  P223  1  0.45742756  0.41555092  0.89807244  1
  P  P224  1  0.45833706  0.75058831  0.14963230  1
  P  P225  1  0.45796430  0.75166495  0.39737542  1
  P  P226  1  0.45741190  0.75221207  0.64748643  1
  P  P227  1  0.45703518  0.75134351  0.89669686  1
  P  P228  1  0.95921070  0.08450992  0.14832752  1
  P  P229  1  0.95744222  0.08334083  0.39563599  1
  P  P230  1  0.95851335  0.08310522  0.64905010  1
  P  P231  1  0.95842458  0.08472740  0.89735185  1
  P  P232  1  0.95793093  0.41715443  0.14703161  1
  P  P233  1  0.95836026  0.41805789  0.39688919  1
  P  P234  1  0.95775081  0.41783699  0.64703462  1
  P  P235  1  0.95791170  0.41522387  0.89711130  1
  P  P236  1  0.95854245  0.75013643  0.14829979  1
  P  P237  1  0.95790727  0.74986267  0.39530851  1
  P  P238  1  0.95743437  0.74817747  0.64732528  1
  P  P239  1  0.95758257  0.74942045  0.89592426  1
  P  P240  1  0.20800203  0.08142529  0.22715644  1
  P  P241  1  0.20726476  0.08309341  0.47924776  1
  P  P242  1  0.20908902  0.08336958  0.72687834  1
  P  P243  1  0.20779129  0.08434025  0.97727047  1
  P  P244  1  0.20785127  0.41855804  0.22749615  1
  P  P245  1  0.20799314  0.41795726  0.47820525  1
  P  P246  1  0.20880439  0.41660322  0.72681481  1
  P  P247  1  0.20750481  0.41591228  0.97712315  1
  P  P248  1  0.20840186  0.74817485  0.22803416  1
  P  P249  1  0.20802909  0.74972912  0.47599377  1
  P  P250  1  0.20693914  0.74960134  0.72895426  1
  P  P251  1  0.20861629  0.74953957  0.97679137  1
  P  P252  1  0.70899910  0.08309452  0.22616284  1
  P  P253  1  0.70725453  0.08384345  0.47834493  1
  P  P254  1  0.70797973  0.08501165  0.72823327  1
  P  P255  1  0.70894293  0.08415508  0.97735295  1
  P  P256  1  0.70776536  0.41494762  0.22809291  1
  P  P257  1  0.70850352  0.41557065  0.47598822  1
  P  P258  1  0.70673600  0.41644887  0.72860639  1
  P  P259  1  0.70768735  0.41751358  0.97791805  1
  P  P260  1  0.70780022  0.75052905  0.22878958  1
  P  P261  1  0.70768707  0.75150321  0.47735488  1
  P  P262  1  0.70749325  0.75066291  0.72914869  1
  P  P263  1  0.70754629  0.75214355  0.97774063  1
  P  P264  1  0.29203150  0.25034070  0.02053748  1
  P  P265  1  0.29294944  0.24997913  0.27204378  1
  P  P266  1  0.29101740  0.25026650  0.52392174  1
  P  P267  1  0.29112613  0.24984353  0.77256621  1
  P  P268  1  0.29145911  0.58378020  0.02337963  1
  P  P269  1  0.29124381  0.58287189  0.27315922  1
  P  P270  1  0.29194065  0.58207409  0.52186132  1
  P  P271  1  0.29223797  0.58422536  0.77236031  1
  P  P272  1  0.29250106  0.91747560  0.02214850  1
  P  P273  1  0.29223900  0.91507818  0.27230524  1
  P  P274  1  0.29162818  0.91705043  0.52247822  1
  P  P275  1  0.29170280  0.91581030  0.77229396  1
  P  P276  1  0.79108168  0.25024986  0.02329195  1
  P  P277  1  0.79218654  0.25100642  0.27132254  1
  P  P278  1  0.79238726  0.24875817  0.52232418  1
  P  P279  1  0.79242313  0.24830585  0.77269983  1
  P  P280  1  0.79319540  0.58329319  0.02150830  1
  P  P281  1  0.79209938  0.58168059  0.27255847  1
  P  P282  1  0.79245805  0.58281270  0.52099865  1
  P  P283  1  0.79218586  0.58185249  0.77267249  1
  P  P284  1  0.79269926  0.91897468  0.02162073  1
  P  P285  1  0.79223871  0.91616462  0.27210379  1
  P  P286  1  0.79326397  0.91663538  0.52163372  1
  P  P287  1  0.79127504  0.91732457  0.77405161  1
  O  O288  1  0.03681221  0.24986114  0.18165610  1
  O  O289  1  0.03795056  0.24952959  0.43227988  1
  O  O290  1  0.03724306  0.24910212  0.68376438  1
  O  O291  1  0.03674375  0.24927374  0.93293017  1
  O  O292  1  0.03726938  0.58321262  0.18354148  1
  O  O293  1  0.03656469  0.58253491  0.43109335  1
  O  O294  1  0.03655346  0.58210310  0.68250403  1
  O  O295  1  0.03667644  0.58284939  0.93095430  1
  O  O296  1  0.03745451  0.91641096  0.18389716  1
  O  O297  1  0.03681448  0.91644797  0.43097413  1
  O  O298  1  0.03738998  0.91726255  0.68346654  1
  O  O299  1  0.03753586  0.91800627  0.93252443  1
  O  O300  1  0.53666624  0.24906058  0.18155731  1
  O  O301  1  0.53651126  0.24847112  0.43304212  1
  O  O302  1  0.53667291  0.24917472  0.68114952  1
  O  O303  1  0.53694083  0.24974876  0.93373575  1
  O  O304  1  0.53689827  0.58462842  0.18448688  1
  O  O305  1  0.53720790  0.58436157  0.43286455  1
  O  O306  1  0.53803887  0.58368725  0.68343860  1
  O  O307  1  0.53753224  0.58357045  0.93363749  1
  O  O308  1  0.53809606  0.91659751  0.18402257  1
  O  O309  1  0.53628338  0.91647141  0.43333394  1
  O  O310  1  0.53555270  0.91700577  0.68219085  1
  O  O311  1  0.53646111  0.91780415  0.93148024  1
  O  O312  1  0.46332421  0.08557232  0.06751946  1
  O  O313  1  0.46303312  0.08353359  0.31865398  1
  O  O314  1  0.46301477  0.08183227  0.56662733  1
  O  O315  1  0.46295655  0.08301136  0.81720331  1
  O  O316  1  0.46236708  0.41554800  0.06665071  1
  O  O317  1  0.46259998  0.41529775  0.31763089  1
  O  O318  1  0.46258880  0.41536180  0.56630997  1
  O  O319  1  0.46241699  0.41583643  0.81804630  1
  O  O320  1  0.46295834  0.75045916  0.06957516  1
  O  O321  1  0.46361614  0.75121809  0.31750913  1
  O  O322  1  0.46257689  0.75251132  0.56752396  1
  O  O323  1  0.46214384  0.75193731  0.81673712  1
  O  O324  1  0.96411082  0.08475004  0.06834390  1
  O  O325  1  0.96282662  0.08361240  0.31576802  1
  O  O326  1  0.96307299  0.08290701  0.56900451  1
  O  O327  1  0.96364939  0.08434992  0.81747001  1
  O  O328  1  0.96325702  0.41622780  0.06710493  1
  O  O329  1  0.96368961  0.41791832  0.31694396  1
  O  O330  1  0.96320167  0.41793259  0.56709942  1
  O  O331  1  0.96297346  0.41570630  0.81715068  1
  O  O332  1  0.96312826  0.75000444  0.06824952  1
  O  O333  1  0.96323368  0.75024896  0.31540170  1
  O  O334  1  0.96247907  0.74837153  0.56728325  1
  O  O335  1  0.96276032  0.74876611  0.81596354  1
  O  O336  1  0.21309496  0.08344593  0.05715707  1
  O  O337  1  0.21278220  0.08167806  0.30715936  1
  O  O338  1  0.21267883  0.08301240  0.55915428  1
  O  O339  1  0.21390165  0.08409135  0.80685398  1
  O  O340  1  0.21238815  0.41655166  0.05702759  1
  O  O341  1  0.21313497  0.41855246  0.30743388  1
  O  O342  1  0.21320292  0.41776952  0.55808348  1
  O  O343  1  0.21380130  0.41607543  0.80678367  1
  O  O344  1  0.21409160  0.74923207  0.05675564  1
  O  O345  1  0.21340413  0.74860785  0.30789019  1
  O  O346  1  0.21235892  0.74941265  0.55604297  1
  O  O347  1  0.21224492  0.74970778  0.80882943  1
  O  O348  1  0.71396337  0.08364367  0.05723988  1
  O  O349  1  0.71361169  0.08334213  0.30612841  1
  O  O350  1  0.71241039  0.08419351  0.55827818  1
  O  O351  1  0.71327105  0.08493084  0.80814116  1
  O  O352  1  0.71312441  0.41659716  0.05783801  1
  O  O353  1  0.71328173  0.41519643  0.30797164  1
  O  O354  1  0.71297898  0.41553487  0.55603262  1
  O  O355  1  0.71194843  0.41693667  0.80855555  1
  O  O356  1  0.71286489  0.75192773  0.05772438  1
  O  O357  1  0.71312716  0.75095600  0.30873884  1
  O  O358  1  0.71258747  0.75110126  0.55739351  1
  O  O359  1  0.71275092  0.75126196  0.80911667  1
  O  O360  1  0.28787665  0.24994995  0.19208693  1
  O  O361  1  0.28674806  0.25008884  0.44391704  1
  O  O362  1  0.28597262  0.24995554  0.69263440  1
  O  O363  1  0.28643058  0.25036510  0.94065643  1
  O  O364  1  0.28650816  0.58325308  0.19322353  1
  O  O365  1  0.28649969  0.58217283  0.44198459  1
  O  O366  1  0.28707736  0.58345790  0.69243679  1
  O  O367  1  0.28643417  0.58421025  0.94342663  1
  O  O368  1  0.28741190  0.91560161  0.19232431  1
  O  O369  1  0.28642246  0.91623840  0.44254681  1
  O  O370  1  0.28620954  0.91646496  0.69239753  1
  O  O371  1  0.28712226  0.91690482  0.94222091  1
  O  O372  1  0.78668040  0.25104013  0.19148645  1
  O  O373  1  0.78747600  0.24959013  0.44235499  1
  O  O374  1  0.78721322  0.24815825  0.69276367  1
  O  O375  1  0.78638057  0.24960188  0.94331658  1
  O  O376  1  0.78748953  0.58182178  0.19255239  1
  O  O377  1  0.78701365  0.58228977  0.44104757  1
  O  O378  1  0.78685058  0.58230418  0.69268950  1
  O  O379  1  0.78770505  0.58289736  0.94157829  1
  O  O380  1  0.78731691  0.91698760  0.19214059  1
  O  O381  1  0.78802865  0.91599037  0.44168106  1
  O  O382  1  0.78697456  0.91775011  0.69400727  1
  O  O383  1  0.78709223  0.91851125  0.94175308  1
  O  O384  1  0.22801007  0.25002587  0.05673734  1
  O  O385  1  0.22848006  0.25024713  0.30701096  1
  O  O386  1  0.22681266  0.25044519  0.55944293  1
  O  O387  1  0.22712504  0.24959404  0.80903258  1
  O  O388  1  0.22729271  0.58359306  0.05943011  1
  O  O389  1  0.22708685  0.58243784  0.30918599  1
  O  O390  1  0.22779994  0.58130015  0.55804616  1
  O  O391  1  0.22793596  0.58481997  0.80806676  1
  O  O392  1  0.22831298  0.91746123  0.05809491  1
  O  O393  1  0.22787352  0.91447237  0.30780570  1
  O  O394  1  0.22740112  0.91818191  0.55825419  1
  O  O395  1  0.22760055  0.91563996  0.80838276  1
  O  O396  1  0.72690755  0.25055302  0.05915605  1
  O  O397  1  0.72804920  0.25155597  0.30755341  1
  O  O398  1  0.72794374  0.24787478  0.55783975  1
  O  O399  1  0.72814253  0.24845826  0.80838482  1
  O  O400  1  0.72888700  0.58333620  0.05697378  1
  O  O401  1  0.72774715  0.58194137  0.30773524  1
  O  O402  1  0.72818224  0.58326809  0.55653870  1
  O  O403  1  0.72799599  0.58177688  0.80857643  1
  O  O404  1  0.72853661  0.91942332  0.05777074  1
  O  O405  1  0.72794740  0.91567220  0.30773925  1
  O  O406  1  0.72888392  0.91739888  0.55689503  1
  O  O407  1  0.72696791  0.91679563  0.80945618  1
  O  O408  1  0.27240888  0.08136700  0.19180806  1
  O  O409  1  0.27154583  0.08284605  0.44359668  1
  O  O410  1  0.27314119  0.08272975  0.69078778  1
  O  O411  1  0.27200478  0.08490942  0.94139857  1
  O  O412  1  0.27204718  0.41870433  0.19161287  1
  O  O413  1  0.27220637  0.41842938  0.44218637  1
  O  O414  1  0.27284730  0.41702549  0.69062994  1
  O  O415  1  0.27179192  0.41583254  0.94144998  1
  O  O416  1  0.27259659  0.74806031  0.19204311  1
  O  O417  1  0.27235268  0.75020566  0.44059836  1
  O  O418  1  0.27107856  0.74972172  0.69305195  1
  O  O419  1  0.27262380  0.74941291  0.94040784  1
  O  O420  1  0.77322419  0.08278538  0.19044352  1
  O  O421  1  0.77156261  0.08364447  0.44300815  1
  O  O422  1  0.77223875  0.08569869  0.69221128  1
  O  O423  1  0.77300061  0.08449425  0.94110730  1
  O  O424  1  0.77192944  0.41421372  0.19196627  1
  O  O425  1  0.77280356  0.41536984  0.44042023  1
  O  O426  1  0.77109081  0.41579297  0.69327876  1
  O  O427  1  0.77185095  0.41814890  0.94183290  1
  O  O428  1  0.77207910  0.75060298  0.19323751  1
  O  O429  1  0.77203012  0.75118239  0.44197507  1
  O  O430  1  0.77183277  0.75034528  0.69375406  1
  O  O431  1  0.77184465  0.75220988  0.94216615  1
  O  O432  1  0.02334252  0.08475662  0.18421169  1
  O  O433  1  0.02165268  0.08319170  0.43139641  1
  O  O434  1  0.02286203  0.08280354  0.68454281  1
  O  O435  1  0.02261003  0.08542883  0.93331297  1
  O  O436  1  0.02218638  0.41813667  0.18278852  1
  O  O437  1  0.02256676  0.41841336  0.43284797  1
  O  O438  1  0.02197974  0.41782869  0.68287130  1
  O  O439  1  0.02221302  0.41458263  0.93268228  1
  O  O440  1  0.02280684  0.75071515  0.18383812  1
  O  O441  1  0.02209683  0.74947361  0.43111626  1
  O  O442  1  0.02174516  0.74868075  0.68263222  1
  O  O443  1  0.02191643  0.74975244  0.93128702  1
  O  O444  1  0.52222551  0.08522157  0.18329357  1
  O  O445  1  0.52230980  0.08211957  0.43449017  1
  O  O446  1  0.52197309  0.08127220  0.68255375  1
  O  O447  1  0.52229897  0.08474523  0.93270308  1
  O  O448  1  0.52116174  0.41629990  0.18208959  1
  O  O449  1  0.52199438  0.41430706  0.43293783  1
  O  O450  1  0.52148492  0.41628932  0.68160553  1
  O  O451  1  0.52176864  0.41515634  0.93345855  1
  O  O452  1  0.52261358  0.75079851  0.18515836  1
  O  O453  1  0.52201510  0.75240793  0.43372644  1
  O  O454  1  0.52166832  0.75243941  0.68313473  1
  O  O455  1  0.52142456  0.75083977  0.93190037  1
  O  O456  1  0.47733790  0.24942807  0.06556189  1
  O  O457  1  0.47775774  0.24772908  0.31718380  1
  O  O458  1  0.47681217  0.25030883  0.56574899  1
  O  O459  1  0.47810674  0.24910389  0.81809830  1
  O  O460  1  0.47811468  0.58363521  0.06906204  1
  O  O461  1  0.47741624  0.58445091  0.31777876  1
  O  O462  1  0.47883865  0.58369650  0.56846736  1
  O  O463  1  0.47827499  0.58394048  0.81854667  1
  O  O464  1  0.47867235  0.91755892  0.06906264  1
  O  O465  1  0.47783551  0.91614273  0.31711119  1
  O  O466  1  0.47706848  0.91691250  0.56568302  1
  O  O467  1  0.47682377  0.91789363  0.81580379  1
  O  O468  1  0.97724911  0.25014854  0.06574914  1
  O  O469  1  0.97874519  0.24894709  0.31687912  1
  O  O470  1  0.97835839  0.25021195  0.56824728  1
  O  O471  1  0.97799107  0.24859073  0.81701809  1
  O  O472  1  0.97847439  0.58279732  0.06797983  1
  O  O473  1  0.97717219  0.58249485  0.31516289  1
  O  O474  1  0.97797543  0.58124574  0.56636389  1
  O  O475  1  0.97733183  0.58191593  0.81517669  1
  O  O476  1  0.97856117  0.91686104  0.06832167  1
  O  O477  1  0.97752414  0.91625548  0.31508862  1
  O  O478  1  0.97825893  0.91620338  0.56826397  1
  O  O479  1  0.97815393  0.91835261  0.81713182  1
  O  O480  1  0.07202046  0.31399081  0.07347047  1
  O  O481  1  0.07406600  0.31289522  0.32441471  1
  O  O482  1  0.07392734  0.31300828  0.57607562  1
  O  O483  1  0.07338443  0.31231601  0.82468950  1
  O  O484  1  0.07352017  0.64694290  0.07526731  1
  O  O485  1  0.07152945  0.64686926  0.32291765  1
  O  O486  1  0.07309056  0.64537275  0.57428900  1
  O  O487  1  0.07170305  0.64652934  0.82252566  1
  O  O488  1  0.07399234  0.98024375  0.07591740  1
  O  O489  1  0.07196273  0.98060299  0.32284557  1
  O  O490  1  0.07366024  0.97991748  0.57465459  1
  O  O491  1  0.07339829  0.98162557  0.82424845  1
  O  O492  1  0.57189689  0.31357599  0.07358502  1
  O  O493  1  0.57306123  0.31150861  0.32467176  1
  O  O494  1  0.57257442  0.31274966  0.57303286  1
  O  O495  1  0.57332913  0.31302421  0.82530546  1
  O  O496  1  0.57340454  0.64770038  0.07603447  1
  O  O497  1  0.57246614  0.64797772  0.32435305  1
  O  O498  1  0.57416706  0.64752286  0.57568831  1
  O  O499  1  0.57394844  0.64706120  0.82568218  1
  O  O500  1  0.57425544  0.98052098  0.07592466  1
  O  O501  1  0.57329855  0.97955775  0.32538705  1
  O  O502  1  0.57220311  0.98034831  0.57384142  1
  O  O503  1  0.57201495  0.98125811  0.82319061  1
  O  O504  1  0.42693702  0.02164576  0.17514497  1
  O  O505  1  0.42689824  0.01917446  0.42628427  1
  O  O506  1  0.42657739  0.01866829  0.67542673  1
  O  O507  1  0.42690555  0.02072690  0.92594482  1
  O  O508  1  0.42580717  0.35249703  0.17485498  1
  O  O509  1  0.42644344  0.35165044  0.42588463  1
  O  O510  1  0.42601389  0.35265804  0.67496155  1
  O  O511  1  0.42662138  0.35193905  0.92627348  1
  O  O512  1  0.42786514  0.68671683  0.17803404  1
  O  O513  1  0.42710180  0.68793130  0.42558405  1
  O  O514  1  0.42664928  0.68817239  0.67497079  1
  O  O515  1  0.42588724  0.68778322  0.92475296  1
  O  O516  1  0.92896217  0.02030498  0.17635731  1
  O  O517  1  0.92624475  0.01990388  0.42408406  1
  O  O518  1  0.92753740  0.01956804  0.67745729  1
  O  O519  1  0.92762537  0.02104431  0.92571305  1
  O  O520  1  0.92723627  0.35355699  0.17558512  1
  O  O521  1  0.92772990  0.35403365  0.42469808  1
  O  O522  1  0.92667989  0.35403192  0.67467080  1
  O  O523  1  0.92697257  0.35171006  0.92558137  1
  O  O524  1  0.92843079  0.68604968  0.17672633  1
  O  O525  1  0.92651287  0.68641448  0.42332980  1
  O  O526  1  0.92722907  0.68425088  0.67570910  1
  O  O527  1  0.92636119  0.68624670  0.92461096  1
  O  O528  1  0.17752277  0.01777166  0.19862184  1
  O  O529  1  0.17575767  0.01994205  0.45062093  1
  O  O530  1  0.17796100  0.01967057  0.69923338  1
  O  O531  1  0.17660643  0.02088358  0.94903812  1
  O  O532  1  0.17686237  0.35469056  0.19988692  1
  O  O533  1  0.17717018  0.35416977  0.44997950  1
  O  O534  1  0.17798511  0.35296104  0.69837078  1
  O  O535  1  0.17695059  0.35230476  0.94841165  1
  O  O536  1  0.17749505  0.68475358  0.19925163  1
  O  O537  1  0.17784347  0.68571270  0.44752098  1
  O  O538  1  0.17581484  0.68624915  0.70024294  1
  O  O539  1  0.17725846  0.68621890  0.94853301  1
  O  O540  1  0.67786474  0.01962901  0.19818646  1
  O  O541  1  0.67620689  0.02023667  0.45028735  1
  O  O542  1  0.67740692  0.02104459  0.70017544  1
  O  O543  1  0.67835039  0.02049199  0.94824596  1
  O  O544  1  0.67633179  0.35182965  0.19931175  1
  O  O545  1  0.67762211  0.35196837  0.44782313  1
  O  O546  1  0.67559007  0.35277229  0.70069953  1
  O  O547  1  0.67667706  0.35393895  0.94982743  1
  O  O548  1  0.67706264  0.68662059  0.20101554  1
  O  O549  1  0.67619104  0.68807198  0.44959255  1
  O  O550  1  0.67650769  0.68698932  0.70120664  1
  O  O551  1  0.67635025  0.68849589  0.95024735  1
  O  O552  1  0.32315291  0.31377640  0.04891976  1
  O  O553  1  0.32405752  0.31344759  0.30016309  1
  O  O554  1  0.32192152  0.31388955  0.55202894  1
  O  O555  1  0.32182809  0.31364308  0.80097674  1
  O  O556  1  0.32253184  0.64714860  0.05205516  1
  O  O557  1  0.32157994  0.64666645  0.30224841  1
  O  O558  1  0.32261508  0.64608884  0.54969811  1
  O  O559  1  0.32315214  0.64772827  0.80070166  1
  O  O560  1  0.32294196  0.98134630  0.05046638  1
  O  O561  1  0.32320778  0.97861707  0.30059416  1
  O  O562  1  0.32293737  0.98041677  0.55067979  1
  O  O563  1  0.32320766  0.97919788  0.80016795  1
  O  O564  1  0.82202615  0.31399734  0.05104329  1
  O  O565  1  0.82356969  0.31403475  0.30037695  1
  O  O566  1  0.82304642  0.31238063  0.55092232  1
  O  O567  1  0.82348159  0.31214234  0.80029944  1
  O  O568  1  0.82402707  0.64713325  0.04945047  1
  O  O569  1  0.82348328  0.64513529  0.30023792  1
  O  O570  1  0.82361963  0.64644309  0.54884836  1
  O  O571  1  0.82337206  0.64543444  0.80044211  1
  O  O572  1  0.82382299  0.98235386  0.05022865  1
  O  O573  1  0.82333937  0.97966072  0.30023659  1
  O  O574  1  0.82455165  0.98018356  0.54957755  1
  O  O575  1  0.82141982  0.98138003  0.80252051  1
  O  O576  1  0.42710494  0.14866422  0.17632040  1
  O  O577  1  0.42777430  0.14644096  0.42770275  1
  O  O578  1  0.42709768  0.14559425  0.67457312  1
  O  O579  1  0.42712896  0.14769688  0.92519898  1
  O  O580  1  0.42570701  0.47937016  0.17457071  1
  O  O581  1  0.42716584  0.47900161  0.42540839  1
  O  O582  1  0.42608364  0.47950952  0.67418021  1
  O  O583  1  0.42656170  0.47926802  0.92591436  1
  O  O584  1  0.42750788  0.81428736  0.17758966  1
  O  O585  1  0.42659322  0.81488109  0.42579038  1
  O  O586  1  0.42626514  0.81535434  0.67628450  1
  O  O587  1  0.42618250  0.81464784  0.92554277  1
  O  O588  1  0.92787472  0.14774650  0.17662168  1
  O  O589  1  0.92631556  0.14665620  0.42438126  1
  O  O590  1  0.92824023  0.14710598  0.67709224  1
  O  O591  1  0.92717590  0.14789206  0.92621101  1
  O  O592  1  0.92674264  0.48059702  0.17505650  1
  O  O593  1  0.92717461  0.48119263  0.42542717  1
  O  O594  1  0.92672530  0.48095923  0.67595273  1
  O  O595  1  0.92706754  0.47879455  0.92525779  1
  O  O596  1  0.92719243  0.81351918  0.17617987  1
  O  O597  1  0.92686024  0.81313097  0.42414748  1
  O  O598  1  0.92587850  0.81148810  0.67517665  1
  O  O599  1  0.92675031  0.81321947  0.92376622  1
  O  O600  1  0.07243274  0.18656914  0.07330252  1
  O  O601  1  0.07392731  0.18577121  0.32381625  1
  O  O602  1  0.07342950  0.18604756  0.57542218  1
  O  O603  1  0.07311828  0.18549442  0.82432214  1
  O  O604  1  0.07420398  0.52026010  0.07498438  1
  O  O605  1  0.07254019  0.51946153  0.32272940  1
  O  O606  1  0.07322946  0.51850369  0.57391485  1
  O  O607  1  0.07270634  0.51889920  0.82333878  1
  O  O608  1  0.07396937  0.85349887  0.07511492  1
  O  O609  1  0.07279772  0.85306476  0.32290349  1
  O  O610  1  0.07368581  0.85303974  0.57556079  1
  O  O611  1  0.07333299  0.85436981  0.82475641  1
  O  O612  1  0.57257248  0.18615932  0.07302092  1
  O  O613  1  0.57286158  0.18460735  0.32448970  1
  O  O614  1  0.57096597  0.18522048  0.57282769  1
  O  O615  1  0.57374005  0.18639656  0.82529617  1
  O  O616  1  0.57383883  0.52085407  0.07674395  1
  O  O617  1  0.57279783  0.52064936  0.32513151  1
  O  O618  1  0.57441244  0.52050260  0.57506414  1
  O  O619  1  0.57339197  0.51995465  0.82554008  1
  O  O620  1  0.57396546  0.85367515  0.07526534  1
  O  O621  1  0.57269275  0.85263807  0.32493910  1
  O  O622  1  0.57201190  0.85325850  0.57407538  1
  O  O623  1  0.57155048  0.85386166  0.82322751  1
  O  O624  1  0.32361276  0.18709437  0.04867933  1
  O  O625  1  0.32368530  0.18641998  0.30038611  1
  O  O626  1  0.32143935  0.18646655  0.55252631  1
  O  O627  1  0.32225053  0.18627255  0.80071624  1
  O  O628  1  0.32201266  0.51985563  0.05134447  1
  O  O629  1  0.32255866  0.51957153  0.30153902  1
  O  O630  1  0.32340046  0.51914519  0.55078549  1
  O  O631  1  0.32316030  0.52072228  0.80076674  1
  O  O632  1  0.32397787  0.85423761  0.05030322  1
  O  O633  1  0.32289251  0.85151585  0.30084496  1
  O  O634  1  0.32222165  0.85332734  0.55068055  1
  O  O635  1  0.32220021  0.85212626  0.80072491  1
  O  O636  1  0.82161651  0.18662683  0.05220557  1
  O  O637  1  0.82296422  0.18719646  0.29922903  1
  O  O638  1  0.82333610  0.18530388  0.55064209  1
  O  O639  1  0.82331692  0.18521008  0.80180679  1
  O  O640  1  0.82458518  0.52018027  0.04990143  1
  O  O641  1  0.82234744  0.51785958  0.30103777  1
  O  O642  1  0.82347687  0.51945358  0.54942780  1
  O  O643  1  0.82279520  0.51814375  0.80070331  1
  O  O644  1  0.82376750  0.85544639  0.04986299  1
  O  O645  1  0.82278236  0.85243086  0.30043746  1
  O  O646  1  0.82419117  0.85338496  0.55043949  1
  O  O647  1  0.82251377  0.85387560  0.80190262  1
  O  O648  1  0.17706288  0.14511604  0.19937278  1
  O  O649  1  0.17634782  0.14660418  0.45071849  1
  O  O650  1  0.17864228  0.14713949  0.69827411  1
  O  O651  1  0.17698497  0.14789729  0.94902551  1
  O  O652  1  0.17693093  0.48175711  0.19862368  1
  O  O653  1  0.17685899  0.48106120  0.44917372  1
  O  O654  1  0.17795784  0.48040007  0.69909009  1
  O  O655  1  0.17634531  0.47938312  0.94890891  1
  O  O656  1  0.17727305  0.81153898  0.19947225  1
  O  O657  1  0.17710834  0.81332779  0.44802504  1
  O  O658  1  0.17561027  0.81285948  0.70043394  1
  O  O659  1  0.17820580  0.81374978  0.94917045  1
  O  O660  1  0.67875616  0.14711567  0.19785119  1
  O  O661  1  0.67607954  0.14695079  0.44961031  1
  O  O662  1  0.67661935  0.14801640  0.69929782  1
  O  O663  1  0.67771094  0.14757724  0.94917175  1
  O  O664  1  0.67696837  0.47869067  0.19999634  1
  O  O665  1  0.67812190  0.47952042  0.44779482  1
  O  O666  1  0.67573703  0.47960508  0.69979529  1
  O  O667  1  0.67677229  0.48117063  0.95009697  1
  O  O668  1  0.67631053  0.81355806  0.20036367  1
  O  O669  1  0.67751440  0.81535147  0.44894528  1
  O  O670  1  0.67637158  0.81393569  0.70059286  1
  O  O671  1  0.67688675  0.81580244  0.94953199  1
