# generated using pymatgen
data_Na2MnFe(PO4)2
_symmetry_space_group_name_H-M   'P 1'
_cell_length_a   22.34263335
_cell_length_b   20.09347768
_cell_length_c   19.45083209
_cell_angle_alpha   90.01371567
_cell_angle_beta   90.03092897
_cell_angle_gamma   90.01682470
_symmetry_Int_Tables_number   1
_chemical_formula_structural   Na2MnFe(PO4)2
_chemical_formula_sum   'Na96 Mn48 Fe48 P96 O384'
_cell_volume   8732.27808738
_cell_formula_units_Z   48
loop_
 _symmetry_equiv_pos_site_id
 _symmetry_equiv_pos_as_xyz
  1  'x, y, z'
loop_
 _atom_site_type_symbol
 _atom_site_label
 _atom_site_symmetry_multiplicity
 _atom_site_fract_x
 _atom_site_fract_y
 _atom_site_fract_z
 _atom_site_occupancy
  Na  Na0  1  0.14027353  0.24899675  0.24321331  1
  Na  Na1  1  0.13969825  0.24929604  0.49379901  1
  Na  Na2  1  0.14040483  0.25028870  0.74276257  1
  Na  Na3  1  0.14043211  0.25064014  0.99365886  1
  Na  Na4  1  0.13988135  0.58133570  0.24258043  1
  Na  Na5  1  0.14043677  0.58129985  0.49374963  1
  Na  Na6  1  0.14069464  0.58180683  0.74442858  1
  Na  Na7  1  0.14000786  0.58108060  0.99416262  1
  Na  Na8  1  0.14014548  0.91612298  0.24326635  1
  Na  Na9  1  0.14041358  0.91828634  0.49357256  1
  Na  Na10  1  0.14055928  0.91770319  0.74411223  1
  Na  Na11  1  0.14009775  0.91724502  0.99439377  1
  Na  Na12  1  0.63986291  0.25083284  0.24338432  1
  Na  Na13  1  0.63976105  0.25137240  0.49381963  1
  Na  Na14  1  0.64069311  0.25039497  0.74335671  1
  Na  Na15  1  0.64003926  0.24873708  0.99325188  1
  Na  Na16  1  0.63982945  0.58430987  0.24452456  1
  Na  Na17  1  0.64025367  0.58385133  0.49461761  1
  Na  Na18  1  0.64067397  0.58287848  0.74361091  1
  Na  Na19  1  0.64025238  0.58317059  0.99431466  1
  Na  Na20  1  0.64032274  0.91820539  0.24372973  1
  Na  Na21  1  0.64011315  0.91668554  0.49348467  1
  Na  Na22  1  0.64038290  0.91684366  0.74335358  1
  Na  Na23  1  0.64034347  0.91697862  0.99246495  1
  Na  Na24  1  0.36071813  0.08415218  0.00765449  1
  Na  Na25  1  0.36056731  0.08359566  0.25695786  1
  Na  Na26  1  0.35977688  0.08488087  0.50698358  1
  Na  Na27  1  0.35982618  0.08441153  0.75541643  1
  Na  Na28  1  0.35966947  0.41608747  0.00562927  1
  Na  Na29  1  0.35939905  0.41512328  0.25568155  1
  Na  Na30  1  0.35914829  0.41480681  0.50655583  1
  Na  Na31  1  0.35983606  0.41646091  0.75556723  1
  Na  Na32  1  0.35964282  0.74878500  0.00650273  1
  Na  Na33  1  0.35973975  0.74944947  0.25619653  1
  Na  Na34  1  0.35928922  0.75064652  0.50684365  1
  Na  Na35  1  0.35946374  0.74957915  0.75650041  1
  Na  Na36  1  0.86047245  0.08368930  0.00580168  1
  Na  Na37  1  0.86026174  0.08479256  0.25552061  1
  Na  Na38  1  0.86043678  0.08459196  0.50707072  1
  Na  Na39  1  0.85973800  0.08434239  0.75623155  1
  Na  Na40  1  0.85991715  0.41643173  0.00683346  1
  Na  Na41  1  0.85977177  0.41809257  0.25658350  1
  Na  Na42  1  0.85894986  0.41727058  0.50660629  1
  Na  Na43  1  0.85948212  0.41641883  0.75641562  1
  Na  Na44  1  0.85961789  0.74933829  0.00685686  1
  Na  Na45  1  0.85998929  0.74936087  0.25708416  1
  Na  Na46  1  0.85951995  0.74866191  0.50516587  1
  Na  Na47  1  0.85933303  0.75025231  0.75633507  1
  Na  Na48  1  0.10952228  0.08260706  0.11846941  1
  Na  Na49  1  0.10955343  0.08339434  0.36878242  1
  Na  Na50  1  0.10984463  0.08404850  0.61795303  1
  Na  Na51  1  0.10978078  0.08418218  0.86904078  1
  Na  Na52  1  0.10996548  0.41547306  0.11826906  1
  Na  Na53  1  0.10923728  0.41533481  0.36714598  1
  Na  Na54  1  0.11006914  0.41474394  0.61853739  1
  Na  Na55  1  0.11007413  0.41615163  0.86832850  1
  Na  Na56  1  0.10890971  0.74969636  0.11917039  1
  Na  Na57  1  0.10896190  0.74880709  0.36811013  1
  Na  Na58  1  0.10939647  0.75041482  0.61867431  1
  Na  Na59  1  0.10931403  0.75075187  0.87012393  1
  Na  Na60  1  0.60949161  0.08449939  0.11797834  1
  Na  Na61  1  0.60945214  0.08410988  0.36942560  1
  Na  Na62  1  0.60957959  0.08402571  0.61783309  1
  Na  Na63  1  0.61025483  0.08257017  0.86871330  1
  Na  Na64  1  0.60958853  0.41719476  0.11853350  1
  Na  Na65  1  0.60945394  0.41735121  0.36930621  1
  Na  Na66  1  0.61004116  0.41703854  0.61772779  1
  Na  Na67  1  0.60960781  0.41619067  0.86913626  1
  Na  Na68  1  0.60929767  0.75052974  0.11916717  1
  Na  Na69  1  0.60912774  0.75151492  0.36921023  1
  Na  Na70  1  0.60948502  0.75089902  0.61885188  1
  Na  Na71  1  0.60959503  0.74820253  0.86853985  1
  Na  Na72  1  0.39071461  0.24946621  0.13144445  1
  Na  Na73  1  0.39003429  0.24901716  0.38225271  1
  Na  Na74  1  0.38965835  0.25090802  0.63096679  1
  Na  Na75  1  0.39066861  0.24951014  0.88177494  1
  Na  Na76  1  0.39021912  0.58309270  0.13061049  1
  Na  Na77  1  0.39015641  0.58395010  0.38107660  1
  Na  Na78  1  0.39015236  0.58326789  0.63190464  1
  Na  Na79  1  0.39042739  0.58117051  0.88116499  1
  Na  Na80  1  0.39091065  0.91808562  0.13183960  1
  Na  Na81  1  0.39096627  0.91858962  0.38146243  1
  Na  Na82  1  0.39046260  0.91759256  0.63058855  1
  Na  Na83  1  0.39088441  0.91610003  0.88165840  1
  Na  Na84  1  0.89071221  0.24961519  0.13095272  1
  Na  Na85  1  0.89053400  0.24955112  0.38076065  1
  Na  Na86  1  0.88993712  0.24960537  0.63198325  1
  Na  Na87  1  0.89055875  0.24973222  0.88078283  1
  Na  Na88  1  0.89073798  0.58235783  0.13267764  1
  Na  Na89  1  0.88970612  0.58309307  0.38115156  1
  Na  Na90  1  0.88978314  0.58276985  0.63183577  1
  Na  Na91  1  0.89031371  0.58384924  0.88175247  1
  Na  Na92  1  0.89075752  0.91667546  0.13022975  1
  Na  Na93  1  0.89101231  0.91697370  0.38062484  1
  Na  Na94  1  0.89076536  0.91839903  0.63106104  1
  Na  Na95  1  0.89077205  0.91812818  0.88211089  1
  Mn  Mn96  1  -0.00023218  0.49921058  0.49978926  1
  Mn  Mn97  1  0.50027538  0.49986039  0.00036406  1
  Mn  Mn98  1  -0.00078434  0.83394857  0.49956627  1
  Mn  Mn99  1  0.25018617  0.49767919  0.37457234  1
  Mn  Mn100  1  0.74992768  0.50016818  0.87506549  1
  Mn  Mn101  1  0.50083777  0.33348858  0.75036906  1
  Mn  Mn102  1  0.49988872  0.50026758  0.49967606  1
  Mn  Mn103  1  0.75005656  0.16808418  0.37519698  1
  Mn  Mn104  1  -0.00008961  0.66703238  0.75097912  1
  Mn  Mn105  1  0.25039353  0.16700939  0.12524928  1
  Mn  Mn106  1  0.24945585  0.83387204  0.62556694  1
  Mn  Mn107  1  -0.00009151  -0.00003622  0.24951827  1
  Mn  Mn108  1  0.24992445  0.83349660  0.37541924  1
  Mn  Mn109  1  0.74976616  0.66572968  0.12583026  1
  Mn  Mn110  1  0.49919310  0.50107027  0.24942399  1
  Mn  Mn111  1  0.75040719  0.83297577  0.37466346  1
  Mn  Mn112  1  0.74985424  0.83328975  0.12435275  1
  Mn  Mn113  1  0.74992866  0.83292994  0.87428439  1
  Mn  Mn114  1  0.75034227  0.33518322  0.37466289  1
  Mn  Mn115  1  0.00022616  0.33311634  0.00020560  1
  Mn  Mn116  1  -0.00092955  0.33187985  0.49890653  1
  Mn  Mn117  1  0.49968478  0.66854090  0.50100596  1
  Mn  Mn118  1  0.49975176  0.33258662  0.24975732  1
  Mn  Mn119  1  0.49993919  0.83298597  0.00061422  1
  Mn  Mn120  1  0.24945005  0.66507100  0.62572321  1
  Mn  Mn121  1  0.75034097  0.00083120  0.62461736  1
  Mn  Mn122  1  0.24995208  0.83339668  0.12546196  1
  Mn  Mn123  1  0.24972437  0.66518432  0.37530411  1
  Mn  Mn124  1  0.75023682  0.00102334  0.37452140  1
  Mn  Mn125  1  0.50038349  0.16650323  0.75003920  1
  Mn  Mn126  1  0.74947649  0.33263958  0.87553969  1
  Mn  Mn127  1  0.25067505  0.00102828  0.87489821  1
  Mn  Mn128  1  0.75061259  0.00129207  0.12389069  1
  Mn  Mn129  1  0.00070663  0.00168286  0.75092455  1
  Mn  Mn130  1  0.24986228  0.16791553  0.87526477  1
  Mn  Mn131  1  0.49999645  0.83469541  0.24945218  1
  Mn  Mn132  1  0.49963588  0.66663901  0.74984186  1
  Mn  Mn133  1  0.74976544  0.33367564  0.12506921  1
  Mn  Mn134  1  0.00070910  0.49916898  0.75027790  1
  Mn  Mn135  1  0.24934790  0.66495966  0.12531794  1
  Mn  Mn136  1  0.49971472  -0.00080195  0.74963175  1
  Mn  Mn137  1  0.75055792  0.83273746  0.62467868  1
  Mn  Mn138  1  0.00001742  0.66656079  0.00099339  1
  Mn  Mn139  1  -0.00005791  0.66615081  0.49939457  1
  Mn  Mn140  1  0.00016588  0.83452331  0.74978910  1
  Mn  Mn141  1  0.24962887  0.66493486  0.87565679  1
  Mn  Mn142  1  0.25053653  0.00109485  0.37499408  1
  Mn  Mn143  1  0.25043459  0.83354850  0.87531047  1
  Fe  Fe144  1  0.74910668  0.66618366  0.37559129  1
  Fe  Fe145  1  0.50002157  0.83340375  0.74997862  1
  Fe  Fe146  1  0.74993749  0.50033098  0.12549804  1
  Fe  Fe147  1  0.50011821  0.33280085  -0.00005978  1
  Fe  Fe148  1  0.49936281  0.83466250  0.49939963  1
  Fe  Fe149  1  0.00044623  0.00048547  0.00028557  1
  Fe  Fe150  1  0.24917156  0.33220046  0.37509307  1
  Fe  Fe151  1  0.24970662  0.33301107  0.62471300  1
  Fe  Fe152  1  0.00004305  0.16695898  0.74989214  1
  Fe  Fe153  1  -0.00017808  0.49938182  0.00056128  1
  Fe  Fe154  1  -0.00013229  0.33240625  0.24932007  1
  Fe  Fe155  1  0.00080608  0.16723792  -0.00005781  1
  Fe  Fe156  1  0.24949667  0.16686786  0.37525489  1
  Fe  Fe157  1  0.49949694  0.33344801  0.49964663  1
  Fe  Fe158  1  0.25024768  0.00105664  0.62470988  1
  Fe  Fe159  1  0.25029787  0.33288598  0.12461851  1
  Fe  Fe160  1  0.50040918  0.16612422  0.00052068  1
  Fe  Fe161  1  0.74916451  0.50092005  0.37626616  1
  Fe  Fe162  1  -0.00033903  0.66591259  0.24947351  1
  Fe  Fe163  1  0.50021193  0.49951487  0.75012786  1
  Fe  Fe164  1  -0.00030316  0.16594312  0.24968813  1
  Fe  Fe165  1  0.75061980  0.16656861  0.87418692  1
  Fe  Fe166  1  0.25012218  0.49816591  0.12437254  1
  Fe  Fe167  1  0.25002870  0.16757758  0.62494037  1
  Fe  Fe168  1  0.50069967  0.00127369  0.25069951  1
  Fe  Fe169  1  -0.00019202  0.49904394  0.24969388  1
  Fe  Fe170  1  0.50013253  0.00057374  0.50001306  1
  Fe  Fe171  1  0.75051662  0.66618298  0.87507634  1
  Fe  Fe172  1  0.74997989  0.16686051  0.12413491  1
  Fe  Fe173  1  0.75012639  0.50052506  0.62540569  1
  Fe  Fe174  1  0.25024304  0.49845799  0.87451857  1
  Fe  Fe175  1  -0.00031805  0.33291932  0.75021927  1
  Fe  Fe176  1  0.25048330  0.33368846  0.87431588  1
  Fe  Fe177  1  0.49959873  0.66795662  0.25033245  1
  Fe  Fe178  1  -0.00001931  0.16659519  0.49979023  1
  Fe  Fe179  1  0.74937803  0.16736478  0.62531819  1
  Fe  Fe180  1  0.00004670  0.83335953  0.25000180  1
  Fe  Fe181  1  0.75039317  0.00051738  0.87409660  1
  Fe  Fe182  1  0.49988552  0.16703926  0.49982621  1
  Fe  Fe183  1  0.50052883  0.00011162  0.00060281  1
  Fe  Fe184  1  0.25038066  0.00023835  0.12548821  1
  Fe  Fe185  1  0.74986699  0.33380708  0.62524216  1
  Fe  Fe186  1  0.00025155  0.00050490  0.49957627  1
  Fe  Fe187  1  0.74972649  0.66632835  0.62500339  1
  Fe  Fe188  1  -0.00032895  0.83330637  0.00063247  1
  Fe  Fe189  1  0.50050764  0.16667917  0.25051891  1
  Fe  Fe190  1  0.25014548  0.49850119  0.62469921  1
  Fe  Fe191  1  0.49994571  0.66635312  -0.00051324  1
  P  P192  1  0.04236585  0.24866857  0.10315827  1
  P  P193  1  0.04110107  0.24877457  0.35112044  1
  P  P194  1  0.04148460  0.24861347  0.60278265  1
  P  P195  1  0.04179443  0.24976164  0.85170608  1
  P  P196  1  0.04161836  0.58124937  0.10362082  1
  P  P197  1  0.04111720  0.58234352  0.35091319  1
  P  P198  1  0.04277914  0.58278236  0.60317024  1
  P  P199  1  0.04272444  0.58291532  0.85428315  1
  P  P200  1  0.04119065  0.91631464  0.10205585  1
  P  P201  1  0.04238219  0.91611630  0.35241000  1
  P  P202  1  0.04239546  0.91860825  0.60208473  1
  P  P203  1  0.04284577  0.91740085  0.85438528  1
  P  P204  1  0.54145165  0.24974731  0.10184026  1
  P  P205  1  0.54196940  0.24901773  0.35328466  1
  P  P206  1  0.54101656  0.25054793  0.60132902  1
  P  P207  1  0.54300695  0.24936525  0.85410858  1
  P  P208  1  0.54202944  0.58543250  0.10287829  1
  P  P209  1  0.54148894  0.58535426  0.35244521  1
  P  P210  1  0.54222178  0.58358624  0.60369056  1
  P  P211  1  0.54221134  0.58178278  0.85252939  1
  P  P212  1  0.54271082  0.91844673  0.10285369  1
  P  P213  1  0.54227019  0.91884151  0.35311531  1
  P  P214  1  0.54152420  0.91681509  0.60163618  1
  P  P215  1  0.54245418  0.91512359  0.85263318  1
  P  P216  1  0.45911422  0.08387105  0.14832853  1
  P  P217  1  0.45888489  0.08371324  0.39820847  1
  P  P218  1  0.45775917  0.08347298  0.64601091  1
  P  P219  1  0.45903248  0.08268690  0.89887136  1
  P  P220  1  0.45753513  0.41617469  0.14623640  1
  P  P221  1  0.45722982  0.41556134  0.39739704  1
  P  P222  1  0.45835443  0.41734543  0.64714801  1
  P  P223  1  0.45820995  0.41521582  0.89752896  1
  P  P224  1  0.45765049  0.74912696  0.14715443  1
  P  P225  1  0.45713487  0.75213157  0.39725149  1
  P  P226  1  0.45733972  0.75221239  0.64735190  1
  P  P227  1  0.45756264  0.74860682  0.89737235  1
  P  P228  1  0.95827461  0.08437714  0.14636581  1
  P  P229  1  0.95844613  0.08370788  0.39791798  1
  P  P230  1  0.95805561  0.08499773  0.64705929  1
  P  P231  1  0.95939983  0.08452942  0.89847472  1
  P  P232  1  0.95865681  0.41613119  0.14798499  1
  P  P233  1  0.95700141  0.41607579  0.39560364  1
  P  P234  1  0.95768907  0.41476905  0.64765620  1
  P  P235  1  0.95795913  0.41718500  0.89761539  1
  P  P236  1  0.95852718  0.75025506  0.14834600  1
  P  P237  1  0.95730156  0.74979187  0.39552533  1
  P  P238  1  0.95694440  0.75034419  0.64695796  1
  P  P239  1  0.95746490  0.75134302  0.89827372  1
  P  P240  1  0.20796210  0.08260313  0.22769454  1
  P  P241  1  0.20807665  0.08520624  0.47827716  1
  P  P242  1  0.20880257  0.08414481  0.72630467  1
  P  P243  1  0.20781617  0.08381982  0.97879450  1
  P  P244  1  0.20837671  0.41489895  0.22643187  1
  P  P245  1  0.20708724  0.41405223  0.47771077  1
  P  P246  1  0.20859737  0.41595358  0.72685972  1
  P  P247  1  0.20854607  0.41590635  0.97687255  1
  P  P248  1  0.20685201  0.74918156  0.22825703  1
  P  P249  1  0.20677340  0.74943338  0.47834489  1
  P  P250  1  0.20682803  0.74946120  0.72851097  1
  P  P251  1  0.20731892  0.74944584  0.97850499  1
  P  P252  1  0.70773113  0.08533174  0.22682596  1
  P  P253  1  0.70757849  0.08453012  0.47851752  1
  P  P254  1  0.70784655  0.08481350  0.72785660  1
  P  P255  1  0.70914086  0.08386251  0.97604210  1
  P  P256  1  0.70741604  0.41886755  0.22801588  1
  P  P257  1  0.70770517  0.41849632  0.47869984  1
  P  P258  1  0.70850383  0.41701654  0.72661787  1
  P  P259  1  0.70714547  0.41688880  0.97870292  1
  P  P260  1  0.70720323  0.74986566  0.22858391  1
  P  P261  1  0.70755478  0.74842652  0.47784900  1
  P  P262  1  0.70791870  0.74852852  0.72763046  1
  P  P263  1  0.70786940  0.74828618  0.97720794  1
  P  P264  1  0.29263370  0.25169433  0.02218325  1
  P  P265  1  0.29153992  0.24967675  0.27338068  1
  P  P266  1  0.29080496  0.25018232  0.52261225  1
  P  P267  1  0.29227146  0.25160059  0.77171948  1
  P  P268  1  0.29179713  0.58044794  0.02213882  1
  P  P269  1  0.29243167  0.58135413  0.27129825  1
  P  P270  1  0.29238759  0.58077548  0.52270234  1
  P  P271  1  0.29229807  0.58073069  0.77228595  1
  P  P272  1  0.29273300  0.91810918  0.02308200  1
  P  P273  1  0.29298944  0.91716097  0.27179880  1
  P  P274  1  0.29211018  0.91847399  0.52277769  1
  P  P275  1  0.29303528  0.91759205  0.77145567  1
  P  P276  1  0.79223550  0.24865489  0.02203992  1
  P  P277  1  0.79266863  0.25103579  0.27132531  1
  P  P278  1  0.79107481  0.25073187  0.52373851  1
  P  P279  1  0.79186346  0.24930792  0.77175118  1
  P  P280  1  0.79283928  0.58205465  0.02287165  1
  P  P281  1  0.79100471  0.58300550  0.27389313  1
  P  P282  1  0.79130899  0.58331993  0.52315532  1
  P  P283  1  0.79234126  0.58431372  0.77208048  1
  P  P284  1  0.79255517  0.91712441  0.02059528  1
  P  P285  1  0.79309034  0.91730311  0.27136628  1
  P  P286  1  0.79313074  0.91652820  0.52150852  1
  P  P287  1  0.79258904  0.91805528  0.77233805  1
  O  O288  1  0.03680181  0.24883798  0.18293832  1
  O  O289  1  0.03609559  0.24872580  0.43107223  1
  O  O290  1  0.03632625  0.24906231  0.68261874  1
  O  O291  1  0.03692201  0.24963170  0.93168223  1
  O  O292  1  0.03590568  0.58123801  0.18349509  1
  O  O293  1  0.03655271  0.58258165  0.43094817  1
  O  O294  1  0.03790614  0.58285650  0.68316318  1
  O  O295  1  0.03722767  0.58227934  0.93423296  1
  O  O296  1  0.03624550  0.91609954  0.18202128  1
  O  O297  1  0.03673164  0.91704443  0.43227289  1
  O  O298  1  0.03759066  0.91878766  0.68209176  1
  O  O299  1  0.03747015  0.91718348  0.93425745  1
  O  O300  1  0.53666934  0.24892836  0.18180213  1
  O  O301  1  0.53641625  0.24970132  0.43312888  1
  O  O302  1  0.53675527  0.25031418  0.68134756  1
  O  O303  1  0.53780689  0.24949130  0.93399213  1
  O  O304  1  0.53644270  0.58584469  0.18276769  1
  O  O305  1  0.53635986  0.58505592  0.43237087  1
  O  O306  1  0.53688028  0.58277955  0.68359320  1
  O  O307  1  0.53711910  0.58228208  0.93249175  1
  O  O308  1  0.53750139  0.91889831  0.18278316  1
  O  O309  1  0.53666941  0.91846436  0.43295733  1
  O  O310  1  0.53633163  0.91604337  0.68160016  1
  O  O311  1  0.53749929  0.91564009  0.93254070  1
  O  O312  1  0.46433356  0.08359823  0.06846669  1
  O  O313  1  0.46395305  0.08413410  0.31832368  1
  O  O314  1  0.46293128  0.08342953  0.56615301  1
  O  O315  1  0.46347222  0.08285051  0.81888872  1
  O  O316  1  0.46305529  0.41574718  0.06636526  1
  O  O317  1  0.46225300  0.41571352  0.31743943  1
  O  O318  1  0.46330645  0.41673773  0.56719298  1
  O  O319  1  0.46363862  0.41603067  0.81761598  1
  O  O320  1  0.46305437  0.74868725  0.06723347  1
  O  O321  1  0.46253491  0.75149029  0.31730765  1
  O  O322  1  0.46244250  0.75267399  0.56738553  1
  O  O323  1  0.46269962  0.74938030  0.81746136  1
  O  O324  1  0.96398465  0.08439924  0.06659295  1
  O  O325  1  0.96347377  0.08381578  0.31795349  1
  O  O326  1  0.96309355  0.08457512  0.56718359  1
  O  O327  1  0.96429402  0.08487153  0.81852103  1
  O  O328  1  0.96347809  0.41650006  0.06798696  1
  O  O329  1  0.96235507  0.41615761  0.31572121  1
  O  O330  1  0.96227349  0.41488128  0.56764233  1
  O  O331  1  0.96313577  0.41646322  0.81770315  1
  O  O332  1  0.96358419  0.75034054  0.06836549  1
  O  O333  1  0.96283996  0.74972013  0.31563941  1
  O  O334  1  0.96194181  0.75013610  0.56694938  1
  O  O335  1  0.96273312  0.75112812  0.81834185  1
  O  O336  1  0.21300755  0.08324788  0.05872411  1
  O  O337  1  0.21304565  0.08347435  0.30763139  1
  O  O338  1  0.21340693  0.08481365  0.55813286  1
  O  O339  1  0.21355401  0.08464326  0.80630908  1
  O  O340  1  0.21384533  0.41583614  0.05676196  1
  O  O341  1  0.21305051  0.41442190  0.30639132  1
  O  O342  1  0.21224812  0.41446441  0.55757613  1
  O  O343  1  0.21404580  0.41607676  0.80671903  1
  O  O344  1  0.21245949  0.74936262  0.05847379  1
  O  O345  1  0.21185511  0.74925420  0.30822131  1
  O  O346  1  0.21186264  0.74939244  0.55835316  1
  O  O347  1  0.21219457  0.74942483  0.80847149  1
  O  O348  1  0.71402262  0.08429835  0.05603013  1
  O  O349  1  0.71260756  0.08502689  0.30678586  1
  O  O350  1  0.71257597  0.08484680  0.55847662  1
  O  O351  1  0.71369108  0.08431767  0.80772603  1
  O  O352  1  0.71231964  0.41742152  0.05863458  1
  O  O353  1  0.71269267  0.41906917  0.30800691  1
  O  O354  1  0.71324060  0.41806041  0.55855623  1
  O  O355  1  0.71302169  0.41643626  0.80663286  1
  O  O356  1  0.71291039  0.74864259  0.05719566  1
  O  O357  1  0.71229634  0.74954919  0.30853736  1
  O  O358  1  0.71302610  0.74829085  0.55778593  1
  O  O359  1  0.71333631  0.74854038  0.80756475  1
  O  O360  1  0.28656275  0.24999110  0.19341903  1
  O  O361  1  0.28592632  0.24973698  0.44273145  1
  O  O362  1  0.28694207  0.25125208  0.69184163  1
  O  O363  1  0.28748520  0.25181710  0.94226239  1
  O  O364  1  0.28711757  0.58089207  0.19134853  1
  O  O365  1  0.28723057  0.58102444  0.44269257  1
  O  O366  1  0.28707920  0.58069349  0.69232679  1
  O  O367  1  0.28649999  0.58031668  0.94219403  1
  O  O368  1  0.28783233  0.91763645  0.19184563  1
  O  O369  1  0.28700344  0.91810798  0.44281708  1
  O  O370  1  0.28744734  0.91811982  0.69153619  1
  O  O371  1  0.28775429  0.91782618  0.94306858  1
  O  O372  1  0.78754037  0.25045609  0.19142017  1
  O  O373  1  0.78665628  0.25147921  0.44371843  1
  O  O374  1  0.78618805  0.24973816  0.69191320  1
  O  O375  1  0.78701536  0.24840674  0.94208700  1
  O  O376  1  0.78619210  0.58236351  0.19391753  1
  O  O377  1  0.78562687  0.58338324  0.44328041  1
  O  O378  1  0.78690652  0.58414500  0.69222212  1
  O  O379  1  0.78792862  0.58277732  0.94292732  1
  O  O380  1  0.78800470  0.91734442  0.19135432  1
  O  O381  1  0.78790363  0.91658028  0.44154623  1
  O  O382  1  0.78764459  0.91787922  0.69234809  1
  O  O383  1  0.78721499  0.91750326  0.94064669  1
  O  O384  1  0.22834791  0.25136647  0.05781300  1
  O  O385  1  0.22727053  0.24931669  0.30930920  1
  O  O386  1  0.22679329  0.25073264  0.55886310  1
  O  O387  1  0.22807337  0.25196539  0.80771615  1
  O  O388  1  0.22758839  0.58021544  0.05795167  1
  O  O389  1  0.22809533  0.58131747  0.30662871  1
  O  O390  1  0.22802624  0.58034543  0.55810384  1
  O  O391  1  0.22805706  0.58055817  0.80800498  1
  O  O392  1  0.22832229  0.91859916  0.05839042  1
  O  O393  1  0.22859270  0.91723402  0.30690339  1
  O  O394  1  0.22781632  0.91898156  0.55828627  1
  O  O395  1  0.22873718  0.91743541  0.80690704  1
  O  O396  1  0.72796314  0.24888385  0.05778098  1
  O  O397  1  0.72832849  0.25139132  0.30660086  1
  O  O398  1  0.72677006  0.25012215  0.55911262  1
  O  O399  1  0.72780472  0.24858190  0.80806020  1
  O  O400  1  0.72835354  0.58153257  0.05813978  1
  O  O401  1  0.72678511  0.58343848  0.30983996  1
  O  O402  1  0.72734645  0.58313070  0.55981830  1
  O  O403  1  0.72815713  0.58464864  0.80816881  1
  O  O404  1  0.72829326  0.91743063  0.05608773  1
  O  O405  1  0.72865461  0.91720303  0.30635916  1
  O  O406  1  0.72875262  0.91656904  0.55664952  1
  O  O407  1  0.72820677  0.91810116  0.80757568  1
  O  O408  1  0.27231976  0.08205915  0.19216158  1
  O  O409  1  0.27226204  0.08588987  0.44225545  1
  O  O410  1  0.27298907  0.08350215  0.69064224  1
  O  O411  1  0.27217593  0.08452034  0.94355827  1
  O  O412  1  0.27263574  0.41525281  0.19065971  1
  O  O413  1  0.27142398  0.41343368  0.44202618  1
  O  O414  1  0.27255852  0.41588832  0.69015822  1
  O  O415  1  0.27260865  0.41583323  0.94041180  1
  O  O416  1  0.27130455  0.74906392  0.19332644  1
  O  O417  1  0.27128561  0.74938139  0.44347731  1
  O  O418  1  0.27119341  0.74952038  0.69331999  1
  O  O419  1  0.27170299  0.74905011  0.94338702  1
  O  O420  1  0.77221298  0.08581615  0.19168447  1
  O  O421  1  0.77199111  0.08443852  0.44339758  1
  O  O422  1  0.77194046  0.08557975  0.69161773  1
  O  O423  1  0.77333057  0.08374640  0.94017562  1
  O  O424  1  0.77167037  0.41858531  0.19220909  1
  O  O425  1  0.77181981  0.41921985  0.44251470  1
  O  O426  1  0.77276501  0.41754989  0.69115441  1
  O  O427  1  0.77145750  0.41657278  0.94339133  1
  O  O428  1  0.77158538  0.74983990  0.19339875  1
  O  O429  1  0.77170920  0.74791054  0.44188566  1
  O  O430  1  0.77212801  0.74824239  0.69179601  1
  O  O431  1  0.77218576  0.74853655  0.94175449  1
  O  O432  1  0.02227454  0.08451624  0.18292348  1
  O  O433  1  0.02258797  0.08390509  0.43410861  1
  O  O434  1  0.02236265  0.08562025  0.68292013  1
  O  O435  1  0.02347551  0.08464266  0.93457819  1
  O  O436  1  0.02279571  0.41651039  0.18392096  1
  O  O437  1  0.02126692  0.41570730  0.43128922  1
  O  O438  1  0.02213036  0.41438124  0.68288100  1
  O  O439  1  0.02222977  0.41753627  0.93338825  1
  O  O440  1  0.02259291  0.75047130  0.18444978  1
  O  O441  1  0.02143463  0.75009021  0.43151477  1
  O  O442  1  0.02144118  0.75043159  0.68194537  1
  O  O443  1  0.02172773  0.75146227  0.93404451  1
  O  O444  1  0.52316542  0.08427314  0.18485885  1
  O  O445  1  0.52288078  0.08322222  0.43457513  1
  O  O446  1  0.52197716  0.08312933  0.68180198  1
  O  O447  1  0.52332708  0.08232178  0.93439484  1
  O  O448  1  0.52166897  0.41666340  0.18203842  1
  O  O449  1  0.52162341  0.41537946  0.43279282  1
  O  O450  1  0.52267094  0.41798443  0.68281750  1
  O  O451  1  0.52236238  0.41483194  0.93354649  1
  O  O452  1  0.52183360  0.74948367  0.18318164  1
  O  O453  1  0.52140142  0.75262981  0.43313167  1
  O  O454  1  0.52164716  0.75166364  0.68303677  1
  O  O455  1  0.52186898  0.74850199  0.93312602  1
  O  O456  1  0.47734658  0.25025465  0.06580827  1
  O  O457  1  0.47783000  0.24828737  0.31708454  1
  O  O458  1  0.47673713  0.25102894  0.56585082  1
  O  O459  1  0.47872832  0.24985845  0.81849862  1
  O  O460  1  0.47790367  0.58501638  0.06670746  1
  O  O461  1  0.47722590  0.58557776  0.31673245  1
  O  O462  1  0.47797171  0.58383360  0.56813734  1
  O  O463  1  0.47793578  0.58139468  0.81680722  1
  O  O464  1  0.47841092  0.91825103  0.06714003  1
  O  O465  1  0.47823027  0.91904727  0.31664511  1
  O  O466  1  0.47741809  0.91736597  0.56534336  1
  O  O467  1  0.47804538  0.91479772  0.81712549  1
  O  O468  1  0.97829185  0.24846874  0.06677555  1
  O  O469  1  0.97697776  0.24858179  0.31510658  1
  O  O470  1  0.97728979  0.24782629  0.56664803  1
  O  O471  1  0.97757235  0.24967028  0.81574187  1
  O  O472  1  0.97759166  0.58144860  0.06721569  1
  O  O473  1  0.97682619  0.58177515  0.31545238  1
  O  O474  1  0.97823612  0.58279459  0.56828393  1
  O  O475  1  0.97847624  0.58268062  0.81866157  1
  O  O476  1  0.97718638  0.91611409  0.06579477  1
  O  O477  1  0.97822955  0.91553174  0.31623478  1
  O  O478  1  0.97799254  0.91892458  0.56671274  1
  O  O479  1  0.97861794  0.91780590  0.81857224  1
  O  O480  1  0.07333968  0.31237261  0.07499909  1
  O  O481  1  0.07135580  0.31284216  0.32275723  1
  O  O482  1  0.07216584  0.31230142  0.57427701  1
  O  O483  1  0.07205556  0.31384247  0.82352630  1
  O  O484  1  0.07309234  0.64487307  0.07616065  1
  O  O485  1  0.07122766  0.64637754  0.32242105  1
  O  O486  1  0.07380665  0.64613935  0.57476625  1
  O  O487  1  0.07339192  0.64692140  0.82678395  1
  O  O488  1  0.07145588  0.98053860  0.07410160  1
  O  O489  1  0.07343974  0.97967316  0.32424282  1
  O  O490  1  0.07311778  0.98206705  0.57335768  1
  O  O491  1  0.07426823  0.98077071  0.82609101  1
  O  O492  1  0.57255778  0.31348629  0.07427144  1
  O  O493  1  0.57297102  0.31260807  0.32488249  1
  O  O494  1  0.57212398  0.31408651  0.57332818  1
  O  O495  1  0.57455279  0.31251240  0.82547549  1
  O  O496  1  0.57291691  0.64861473  0.07378249  1
  O  O497  1  0.57230585  0.64894621  0.32433246  1
  O  O498  1  0.57310075  0.64750939  0.57626708  1
  O  O499  1  0.57325859  0.64528537  0.82438213  1
  O  O500  1  0.57359698  0.98165036  0.07376364  1
  O  O501  1  0.57334662  0.98230047  0.32469021  1
  O  O502  1  0.57255615  0.98066032  0.57412802  1
  O  O503  1  0.57338679  0.97864540  0.82419045  1
  O  O504  1  0.42847832  0.02022143  0.17707795  1
  O  O505  1  0.42738734  0.02044035  0.42642433  1
  O  O506  1  0.42646518  0.02025567  0.67466210  1
  O  O507  1  0.42799949  0.01917185  0.92705035  1
  O  O508  1  0.42638812  0.35285815  0.17463933  1
  O  O509  1  0.42654571  0.35199734  0.42590760  1
  O  O510  1  0.42743950  0.35377228  0.67538212  1
  O  O511  1  0.42742977  0.35151838  0.92558476  1
  O  O512  1  0.42670306  0.68591393  0.17608078  1
  O  O513  1  0.42601932  0.68868470  0.42556619  1
  O  O514  1  0.42609307  0.68840931  0.67470430  1
  O  O515  1  0.42704706  0.68465955  0.92535630  1
  O  O516  1  0.92710245  0.02069526  0.17421926  1
  O  O517  1  0.92813874  0.01963646  0.42601147  1
  O  O518  1  0.92724019  0.02138851  0.67565510  1
  O  O519  1  0.92911642  0.02040342  0.92658201  1
  O  O520  1  0.92863556  0.35176490  0.17588097  1
  O  O521  1  0.92560123  0.35272672  0.42389143  1
  O  O522  1  0.92698942  0.35129767  0.67636562  1
  O  O523  1  0.92677856  0.35367065  0.92574298  1
  O  O524  1  0.92825064  0.68596265  0.17628094  1
  O  O525  1  0.92627806  0.68624330  0.42389307  1
  O  O526  1  0.92605510  0.68691725  0.67543001  1
  O  O527  1  0.92646521  0.68765261  0.92607525  1
  O  O528  1  0.17709509  0.01895871  0.19950695  1
  O  O529  1  0.17719176  0.02158373  0.44987106  1
  O  O530  1  0.17747866  0.02064601  0.69852456  1
  O  O531  1  0.17679027  0.02059712  0.95001486  1
  O  O532  1  0.17761692  0.35134298  0.19777491  1
  O  O533  1  0.17595636  0.35082389  0.44874025  1
  O  O534  1  0.17751305  0.35235840  0.69864996  1
  O  O535  1  0.17758606  0.35234848  0.94829146  1
  O  O536  1  0.17572373  0.68572145  0.20018958  1
  O  O537  1  0.17583603  0.68580668  0.45019533  1
  O  O538  1  0.17579605  0.68587833  0.70055347  1
  O  O539  1  0.17596118  0.68602451  0.95064508  1
  O  O540  1  0.67705446  0.02157021  0.19869127  1
  O  O541  1  0.67675004  0.02081931  0.45038720  1
  O  O542  1  0.67688167  0.02108722  0.69978992  1
  O  O543  1  0.67849177  0.01989654  0.94801135  1
  O  O544  1  0.67629508  0.35506820  0.20042442  1
  O  O545  1  0.67698224  0.35479711  0.45016712  1
  O  O546  1  0.67822335  0.35307015  0.69798824  1
  O  O547  1  0.67611727  0.35320386  0.95081447  1
  O  O548  1  0.67591915  0.68661479  0.20013751  1
  O  O549  1  0.67613998  0.68530476  0.44927800  1
  O  O550  1  0.67660954  0.68542576  0.69899232  1
  O  O551  1  0.67756700  0.68444001  0.94889084  1
  O  O552  1  0.32340590  0.31495090  0.05120079  1
  O  O553  1  0.32219938  0.31328900  0.30190143  1
  O  O554  1  0.32229850  0.31341873  0.55102307  1
  O  O555  1  0.32341322  0.31488836  0.80036008  1
  O  O556  1  0.32266716  0.64438131  0.04973617  1
  O  O557  1  0.32328682  0.64509024  0.29937914  1
  O  O558  1  0.32325261  0.64454162  0.55057717  1
  O  O559  1  0.32319817  0.64458747  0.80007964  1
  O  O560  1  0.32363715  0.98159235  0.05148653  1
  O  O561  1  0.32440461  0.98028921  0.30043222  1
  O  O562  1  0.32309394  0.98205232  0.55077741  1
  O  O563  1  0.32441199  0.98082912  0.79988811  1
  O  O564  1  0.82332908  0.31244481  0.04962426  1
  O  O565  1  0.82363330  0.31469890  0.29934523  1
  O  O566  1  0.82132717  0.31466386  0.55243890  1
  O  O567  1  0.82269893  0.31301118  0.80008334  1
  O  O568  1  0.82377799  0.64553614  0.05147830  1
  O  O569  1  0.82172688  0.64696270  0.30166265  1
  O  O570  1  0.82229613  0.64697035  0.55135924  1
  O  O571  1  0.82334549  0.64758490  0.80109926  1
  O  O572  1  0.82424115  0.98017543  0.04893621  1
  O  O573  1  0.82399574  0.98098582  0.29940323  1
  O  O574  1  0.82422546  0.98001681  0.54956729  1
  O  O575  1  0.82327801  0.98172496  0.80072192  1
  O  O576  1  0.42786416  0.14736894  0.17654063  1
  O  O577  1  0.42846252  0.14758158  0.42705938  1
  O  O578  1  0.42683142  0.14702459  0.67445506  1
  O  O579  1  0.42872114  0.14663644  0.92735934  1
  O  O580  1  0.42630403  0.47976755  0.17392076  1
  O  O581  1  0.42629378  0.47930249  0.42503769  1
  O  O582  1  0.42757476  0.48087028  0.67571068  1
  O  O583  1  0.42697732  0.47861708  0.92564301  1
  O  O584  1  0.42665875  0.81311471  0.17436659  1
  O  O585  1  0.42637476  0.81583590  0.42537108  1
  O  O586  1  0.42678451  0.81554838  0.67644446  1
  O  O587  1  0.42624888  0.81183755  0.92589000  1
  O  O588  1  0.92712277  0.14755205  0.17527586  1
  O  O589  1  0.92719036  0.14704126  0.42623610  1
  O  O590  1  0.92691338  0.14816489  0.67604011  1
  O  O591  1  0.92805995  0.14782395  0.92669317  1
  O  O592  1  0.92701086  0.47912247  0.17644876  1
  O  O593  1  0.92606836  0.47945904  0.42438068  1
  O  O594  1  0.92693057  0.47851911  0.67551832  1
  O  O595  1  0.92718674  0.48075430  0.92604374  1
  O  O596  1  0.92717413  0.81355409  0.17646014  1
  O  O597  1  0.92581195  0.81303932  0.42380568  1
  O  O598  1  0.92610860  0.81408276  0.67480341  1
  O  O599  1  0.92666547  0.81488189  0.92653425  1
  O  O600  1  0.07360436  0.18552604  0.07438353  1
  O  O601  1  0.07245444  0.18545296  0.32301807  1
  O  O602  1  0.07277971  0.18549757  0.57391234  1
  O  O603  1  0.07297713  0.18644759  0.82328578  1
  O  O604  1  0.07242953  0.51781927  0.07477744  1
  O  O605  1  0.07257648  0.51894514  0.32308628  1
  O  O606  1  0.07348222  0.51907040  0.57500635  1
  O  O607  1  0.07435741  0.51997676  0.82561762  1
  O  O608  1  0.07257629  0.85302803  0.07388268  1
  O  O609  1  0.07334264  0.85254433  0.32438205  1
  O  O610  1  0.07315986  0.85477090  0.57444330  1
  O  O611  1  0.07381962  0.85404646  0.82558438  1
  O  O612  1  0.57191854  0.18606318  0.07288414  1
  O  O613  1  0.57327340  0.18575019  0.32484422  1
  O  O614  1  0.57123561  0.18657186  0.57292726  1
  O  O615  1  0.57373570  0.18581595  0.82545120  1
  O  O616  1  0.57321954  0.52152588  0.07573736  1
  O  O617  1  0.57229388  0.52149189  0.32472489  1
  O  O618  1  0.57361255  0.52064269  0.57481427  1
  O  O619  1  0.57297347  0.51812637  0.82425274  1
  O  O620  1  0.57365731  0.85455162  0.07539602  1
  O  O621  1  0.57348244  0.85537778  0.32483634  1
  O  O622  1  0.57225548  0.85329731  0.57295185  1
  O  O623  1  0.57314306  0.85153635  0.82405434  1
  O  O624  1  0.32371778  0.18801097  0.05003381  1
  O  O625  1  0.32231061  0.18591057  0.30148161  1
  O  O626  1  0.32125802  0.18646504  0.55167039  1
  O  O627  1  0.32325431  0.18795751  0.80005718  1
  O  O628  1  0.32294130  0.51722470  0.05075850  1
  O  O629  1  0.32381768  0.51818234  0.29971038  1
  O  O630  1  0.32321417  0.51718533  0.55084164  1
  O  O631  1  0.32330349  0.51746085  0.80099164  1
  O  O632  1  0.32347239  0.85422232  0.05075956  1
  O  O633  1  0.32373965  0.85336652  0.29973315  1
  O  O634  1  0.32285717  0.85466069  0.55056132  1
  O  O635  1  0.32392873  0.85388144  0.79945801  1
  O  O636  1  0.82300545  0.18530960  0.05085777  1
  O  O637  1  0.82384395  0.18785525  0.30006892  1
  O  O638  1  0.82214628  0.18714811  0.55154369  1
  O  O639  1  0.82328528  0.18609797  0.80020701  1
  O  O640  1  0.82349194  0.51847565  0.05139192  1
  O  O641  1  0.82179104  0.51960930  0.30268239  1
  O  O642  1  0.82250363  0.51981520  0.55145123  1
  O  O643  1  0.82335316  0.52058839  0.80005169  1
  O  O644  1  0.82315221  0.85325479  0.04859045  1
  O  O645  1  0.82414835  0.85389596  0.29949660  1
  O  O646  1  0.82410048  0.85296222  0.54946224  1
  O  O647  1  0.82364271  0.85439354  0.79999058  1
  O  O648  1  0.17700803  0.14608054  0.19935908  1
  O  O649  1  0.17689030  0.14842812  0.44949538  1
  O  O650  1  0.17865653  0.14818923  0.69792048  1
  O  O651  1  0.17665536  0.14742148  0.95088758  1
  O  O652  1  0.17768449  0.47867878  0.19826242  1
  O  O653  1  0.17630506  0.47767198  0.44913720  1
  O  O654  1  0.17765153  0.47951078  0.69838089  1
  O  O655  1  0.17762842  0.47943332  0.94836108  1
  O  O656  1  0.17596653  0.81272906  0.20004838  1
  O  O657  1  0.17590775  0.81307041  0.45036431  1
  O  O658  1  0.17569016  0.81296763  0.70053510  1
  O  O659  1  0.17671963  0.81326893  0.95059322  1
  O  O660  1  0.67688084  0.14876889  0.19828251  1
  O  O661  1  0.67638662  0.14780465  0.45010650  1
  O  O662  1  0.67646494  0.14808441  0.69945345  1
  O  O663  1  0.67808848  0.14725162  0.94764443  1
  O  O664  1  0.67658611  0.48219730  0.19929487  1
  O  O665  1  0.67620398  0.48167289  0.45026369  1
  O  O666  1  0.67738127  0.48055938  0.69883736  1
  O  O667  1  0.67593266  0.48002357  0.94995832  1
  O  O668  1  0.67633300  0.81350030  0.20032276  1
  O  O669  1  0.67693300  0.81247988  0.45028434  1
  O  O670  1  0.67723512  0.81258172  0.69998921  1
  O  O671  1  0.67646234  0.81173167  0.94944357  1
