# generated using pymatgen
data_Na2MnFe(PO4)2
_symmetry_space_group_name_H-M   'P 1'
_cell_length_a   22.34354537
_cell_length_b   20.09180952
_cell_length_c   19.44857405
_cell_angle_alpha   89.99927300
_cell_angle_beta   89.97103623
_cell_angle_gamma   89.94627949
_symmetry_Int_Tables_number   1
_chemical_formula_structural   Na2MnFe(PO4)2
_chemical_formula_sum   'Na96 Mn48 Fe48 P96 O384'
_cell_volume   8730.89281386
_cell_formula_units_Z   48
loop_
 _symmetry_equiv_pos_site_id
 _symmetry_equiv_pos_as_xyz
  1  'x, y, z'
loop_
 _atom_site_type_symbol
 _atom_site_label
 _atom_site_symmetry_multiplicity
 _atom_site_fract_x
 _atom_site_fract_y
 _atom_site_fract_z
 _atom_site_occupancy
  Na  Na0  1  0.14018834  0.25113206  0.24472207  1
  Na  Na1  1  0.14033291  0.25042298  0.49270046  1
  Na  Na2  1  0.14100579  0.25083938  0.74334897  1
  Na  Na3  1  0.14060053  0.25077096  0.99401796  1
  Na  Na4  1  0.14112417  0.58450306  0.24408826  1
  Na  Na5  1  0.14045141  0.58394208  0.49549110  1
  Na  Na6  1  0.14012259  0.58386911  0.74422663  1
  Na  Na7  1  0.14063851  0.58350626  0.99380483  1
  Na  Na8  1  0.13999644  0.91682279  0.24325421  1
  Na  Na9  1  0.14089301  0.91718918  0.49332055  1
  Na  Na10  1  0.14103389  0.91576855  0.74377568  1
  Na  Na11  1  0.14018497  0.91593609  0.99378774  1
  Na  Na12  1  0.64013122  0.25010134  0.24278417  1
  Na  Na13  1  0.64018280  0.24954486  0.49512805  1
  Na  Na14  1  0.64076787  0.24937943  0.74267907  1
  Na  Na15  1  0.64044478  0.24887108  0.99240233  1
  Na  Na16  1  0.64018220  0.58367764  0.24445751  1
  Na  Na17  1  0.64054889  0.58193709  0.49400298  1
  Na  Na18  1  0.64027252  0.58251031  0.74504731  1
  Na  Na19  1  0.64003752  0.58354849  0.99357914  1
  Na  Na20  1  0.64015938  0.91609444  0.24185346  1
  Na  Na21  1  0.64028339  0.91585991  0.49366861  1
  Na  Na22  1  0.64024388  0.91783497  0.74384183  1
  Na  Na23  1  0.64019483  0.91737023  0.99221168  1
  Na  Na24  1  0.36043771  0.08245598  0.00567229  1
  Na  Na25  1  0.35964897  0.08312730  0.25561035  1
  Na  Na26  1  0.35961014  0.08328817  0.50588688  1
  Na  Na27  1  0.36030263  0.08272237  0.75708467  1
  Na  Na28  1  0.35976517  0.41772438  0.00660759  1
  Na  Na29  1  0.35982050  0.41741403  0.25683482  1
  Na  Na30  1  0.35931808  0.41811908  0.50634708  1
  Na  Na31  1  0.35948748  0.41801388  0.75676119  1
  Na  Na32  1  0.35927346  0.74919339  0.00731856  1
  Na  Na33  1  0.35991719  0.75053580  0.25671357  1
  Na  Na34  1  0.35972052  0.74959738  0.50658616  1
  Na  Na35  1  0.35961496  0.74966531  0.75637564  1
  Na  Na36  1  0.85965227  0.08289118  0.00579432  1
  Na  Na37  1  0.85912656  0.08416298  0.25554211  1
  Na  Na38  1  0.85938871  0.08413984  0.50665867  1
  Na  Na39  1  0.86008056  0.08302414  0.75542546  1
  Na  Na40  1  0.85946871  0.41655330  0.00618761  1
  Na  Na41  1  0.85923183  0.41649571  0.25648788  1
  Na  Na42  1  0.85905148  0.41471306  0.50712942  1
  Na  Na43  1  0.85961075  0.41662088  0.75648253  1
  Na  Na44  1  0.85943656  0.75037527  0.00578981  1
  Na  Na45  1  0.85937288  0.75059323  0.25549971  1
  Na  Na46  1  0.85926360  0.74903345  0.50617509  1
  Na  Na47  1  0.85906574  0.74949715  0.75720395  1
  Na  Na48  1  0.10950198  0.08390693  0.11989457  1
  Na  Na49  1  0.10972244  0.08418820  0.36851125  1
  Na  Na50  1  0.11042859  0.08342117  0.61775655  1
  Na  Na51  1  0.10984634  0.08295895  0.86900330  1
  Na  Na52  1  0.11005144  0.41678584  0.11966867  1
  Na  Na53  1  0.10975755  0.41704426  0.36942865  1
  Na  Na54  1  0.10976260  0.41730161  0.61890868  1
  Na  Na55  1  0.10992804  0.41682374  0.86893787  1
  Na  Na56  1  0.11043462  0.75159754  0.11819741  1
  Na  Na57  1  0.10979839  0.75073329  0.36817930  1
  Na  Na58  1  0.10960305  0.74898169  0.61992299  1
  Na  Na59  1  0.11017183  0.74961122  0.86784901  1
  Na  Na60  1  0.60996113  0.08263973  0.11617535  1
  Na  Na61  1  0.60950383  0.08266183  0.36787413  1
  Na  Na62  1  0.61027592  0.08243027  0.61909816  1
  Na  Na63  1  0.61016572  0.08416328  0.86785551  1
  Na  Na64  1  0.60912956  0.41635761  0.11830779  1
  Na  Na65  1  0.60970448  0.41595679  0.36935116  1
  Na  Na66  1  0.61008027  0.41633511  0.61892096  1
  Na  Na67  1  0.60951804  0.41688752  0.86835848  1
  Na  Na68  1  0.60918876  0.74967502  0.11774930  1
  Na  Na69  1  0.60972132  0.74919972  0.36933343  1
  Na  Na70  1  0.60947700  0.74967742  0.61888296  1
  Na  Na71  1  0.60937831  0.75042323  0.86988213  1
  Na  Na72  1  0.39093178  0.24959404  0.13010462  1
  Na  Na73  1  0.39046925  0.24977670  0.38063610  1
  Na  Na74  1  0.39050475  0.24922903  0.63221180  1
  Na  Na75  1  0.39074877  0.25053109  0.88092720  1
  Na  Na76  1  0.38973857  0.58338255  0.13216871  1
  Na  Na77  1  0.38961678  0.58417058  0.38241619  1
  Na  Na78  1  0.38980318  0.58370183  0.63177645  1
  Na  Na79  1  0.39023188  0.58457266  0.88295339  1
  Na  Na80  1  0.39026186  0.91619478  0.13028831  1
  Na  Na81  1  0.39045849  0.91566892  0.38099580  1
  Na  Na82  1  0.39032896  0.91694949  0.63119310  1
  Na  Na83  1  0.39071825  0.91691882  0.88215708  1
  Na  Na84  1  0.89010956  0.24951047  0.13066069  1
  Na  Na85  1  0.88971967  0.25050362  0.38164677  1
  Na  Na86  1  0.89026130  0.24946043  0.63149518  1
  Na  Na87  1  0.89046103  0.24858990  0.88078558  1
  Na  Na88  1  0.89020608  0.58397684  0.13112005  1
  Na  Na89  1  0.89026227  0.58316502  0.38145347  1
  Na  Na90  1  0.88983787  0.58229756  0.63257368  1
  Na  Na91  1  0.88969084  0.58239763  0.88143706  1
  Na  Na92  1  0.89020988  0.91779996  0.13068725  1
  Na  Na93  1  0.89019865  0.91792041  0.37991394  1
  Na  Na94  1  0.89045301  0.91667374  0.63112544  1
  Na  Na95  1  0.89033813  0.91758236  0.88045213  1
  Mn  Mn96  1  0.25022963  0.50070775  0.87542046  1
  Mn  Mn97  1  -0.00000469  0.16763784  0.24968887  1
  Mn  Mn98  1  0.24980847  0.83329475  0.37546851  1
  Mn  Mn99  1  0.24978509  -0.00148539  0.87556313  1
  Mn  Mn100  1  0.25055793  0.16636544  0.62451969  1
  Mn  Mn101  1  0.49973427  0.16659496  0.24867388  1
  Mn  Mn102  1  0.00008527  0.49946018  0.50033860  1
  Mn  Mn103  1  -0.00014353  0.83472293  -0.00124856  1
  Mn  Mn104  1  0.00037448  0.49901804  0.00071485  1
  Mn  Mn105  1  0.49909379  0.50022796  0.50015381  1
  Mn  Mn106  1  0.25014630  0.83304899  0.62470135  1
  Mn  Mn107  1  0.25023203  0.16676720  0.12495824  1
  Mn  Mn108  1  0.49983130  -0.00128348  0.24862324  1
  Mn  Mn109  1  0.24999211  0.16704861  0.87493634  1
  Mn  Mn110  1  0.00009502  0.66681199  -0.00002512  1
  Mn  Mn111  1  0.50043480  0.16610877  0.49989966  1
  Mn  Mn112  1  0.74953378  0.66520474  0.62595304  1
  Mn  Mn113  1  0.00037041  0.66774109  0.25021580  1
  Mn  Mn114  1  0.49987018  0.66711005  0.25033169  1
  Mn  Mn115  1  -0.00016279  0.49904480  0.25087465  1
  Mn  Mn116  1  0.74920944  0.00023098  0.37443745  1
  Mn  Mn117  1  0.50028919  0.49938764  0.25049019  1
  Mn  Mn118  1  0.74962638  0.83318797  0.12404608  1
  Mn  Mn119  1  0.49919966  0.83408277  0.75030479  1
  Mn  Mn120  1  0.00006587  0.83347467  0.74993851  1
  Mn  Mn121  1  0.75020458  0.83246309  0.37397800  1
  Mn  Mn122  1  0.74957341  0.50109022  0.12585239  1
  Mn  Mn123  1  0.74885259  0.16728359  0.37547788  1
  Mn  Mn124  1  0.75006663  0.33287955  0.87474690  1
  Mn  Mn125  1  0.00042565  0.16639478  0.00051844  1
  Mn  Mn126  1  -0.00023356  0.83367298  0.50021964  1
  Mn  Mn127  1  0.74993704  0.49931883  0.37517396  1
  Mn  Mn128  1  0.50027309  0.33296251  -0.00078480  1
  Mn  Mn129  1  0.49988432  0.66701603  0.75084404  1
  Mn  Mn130  1  0.25054756  0.33482576  0.62384958  1
  Mn  Mn131  1  0.25098620  0.33436575  0.12568291  1
  Mn  Mn132  1  0.49969063  -0.00116223  0.49939932  1
  Mn  Mn133  1  0.00081448  0.00081939  0.49971357  1
  Mn  Mn134  1  0.74948905  0.83358347  0.62553323  1
  Mn  Mn135  1  0.49992678  0.33289758  0.50035492  1
  Mn  Mn136  1  -0.00038496  0.66676288  0.49992958  1
  Mn  Mn137  1  0.50072926  0.49999355  0.75034541  1
  Mn  Mn138  1  0.00120823  0.16580463  0.75063620  1
  Mn  Mn139  1  0.24928045  -0.00093524  0.12538929  1
  Mn  Mn140  1  0.74934022  0.33292107  0.12455043  1
  Mn  Mn141  1  0.25027227  0.33452168  0.37508220  1
  Mn  Mn142  1  0.74997794  0.83387460  0.87511948  1
  Mn  Mn143  1  0.00096179  0.33321889  0.75015295  1
  Fe  Fe144  1  0.25043385  0.83207667  0.87466852  1
  Fe  Fe145  1  0.74990237  0.16654062  0.12405673  1
  Fe  Fe146  1  0.24999176  0.50156326  0.37563740  1
  Fe  Fe147  1  0.49986058  0.83383405  -0.00006253  1
  Fe  Fe148  1  0.25011683  0.00018887  0.37447319  1
  Fe  Fe149  1  0.75019906  0.49907628  0.62491502  1
  Fe  Fe150  1  -0.00008434  0.83449544  0.24920997  1
  Fe  Fe151  1  0.75034077  0.00085146  0.87398556  1
  Fe  Fe152  1  -0.00051453  0.33327329  0.25055582  1
  Fe  Fe153  1  0.49972842  0.33339871  0.75040588  1
  Fe  Fe154  1  -0.00066204  0.49944165  0.75011022  1
  Fe  Fe155  1  0.00016868  0.33311191  -0.00000274  1
  Fe  Fe156  1  0.74972842  0.49970928  0.87536526  1
  Fe  Fe157  1  0.74969313  0.00048945  0.12368051  1
  Fe  Fe158  1  0.24986579  0.66695572  0.12541477  1
  Fe  Fe159  1  -0.00033684  0.00094826  0.25006065  1
  Fe  Fe160  1  0.25027305  0.33428600  0.87490937  1
  Fe  Fe161  1  0.49984391  0.33289980  0.24924353  1
  Fe  Fe162  1  -0.00030577  0.16716649  0.49957783  1
  Fe  Fe163  1  0.75020886  0.33271122  0.62596747  1
  Fe  Fe164  1  0.50030184  0.83301181  0.50026367  1
  Fe  Fe165  1  0.25036082  -0.00003143  0.62474882  1
  Fe  Fe166  1  0.74957439  0.66625584  0.87506603  1
  Fe  Fe167  1  0.50064668  0.16661945  -0.00106935  1
  Fe  Fe168  1  0.50032376  0.83301209  0.24941912  1
  Fe  Fe169  1  0.00030862  0.00027763  0.00034059  1
  Fe  Fe170  1  0.25035359  0.66673285  0.87560256  1
  Fe  Fe171  1  0.24988104  0.66675400  0.37530387  1
  Fe  Fe172  1  0.50016095  0.66684716  0.50058197  1
  Fe  Fe173  1  0.75006628  0.66602839  0.37538520  1
  Fe  Fe174  1  0.50033373  0.00016913  -0.00075508  1
  Fe  Fe175  1  0.24989659  0.50105814  0.12586350  1
  Fe  Fe176  1  0.25025617  0.83265630  0.12516060  1
  Fe  Fe177  1  0.25001595  0.66665829  0.62551791  1
  Fe  Fe178  1  0.74943481  0.33272063  0.37560534  1
  Fe  Fe179  1  0.25036943  0.16679557  0.37504635  1
  Fe  Fe180  1  0.74980723  0.16640477  0.62486621  1
  Fe  Fe181  1  0.50017978  0.16623584  0.75032473  1
  Fe  Fe182  1  -0.00099213  0.66612184  0.75002399  1
  Fe  Fe183  1  0.75040913  0.00007332  0.62463935  1
  Fe  Fe184  1  0.49958280  0.66709910  0.00085892  1
  Fe  Fe185  1  0.75048875  0.16605829  0.87390924  1
  Fe  Fe186  1  0.00076975  0.00006150  0.74944347  1
  Fe  Fe187  1  -0.00049109  0.33322953  0.50053169  1
  Fe  Fe188  1  0.49929541  0.49980086  0.00023689  1
  Fe  Fe189  1  0.25009525  0.50132109  0.62582158  1
  Fe  Fe190  1  0.50074838  0.00015289  0.75041643  1
  Fe  Fe191  1  0.75002179  0.66659919  0.12467434  1
  P  P192  1  0.04254368  0.25171864  0.10296584  1
  P  P193  1  0.04179718  0.25154185  0.35350747  1
  P  P194  1  0.04191929  0.24969159  0.60145372  1
  P  P195  1  0.04356926  0.24998517  0.85376636  1
  P  P196  1  0.04297129  0.58338934  0.10346177  1
  P  P197  1  0.04290642  0.58327953  0.35329059  1
  P  P198  1  0.04186485  0.58323862  0.60436841  1
  P  P199  1  0.04095087  0.58266142  0.85155480  1
  P  P200  1  0.04211916  0.91835847  0.10299873  1
  P  P201  1  0.04142918  0.91738286  0.35116188  1
  P  P202  1  0.04328255  0.91699497  0.60337361  1
  P  P203  1  0.04259646  0.91843336  0.85231866  1
  P  P204  1  0.54271188  0.24872600  0.10170783  1
  P  P205  1  0.54228997  0.25069472  0.35175723  1
  P  P206  1  0.54225115  0.24933927  0.60452004  1
  P  P207  1  0.54174497  0.24983533  0.85141646  1
  P  P208  1  0.54073926  0.58295560  0.10175508  1
  P  P209  1  0.54231714  0.58372882  0.35396053  1
  P  P210  1  0.54227247  0.58418007  0.60266383  1
  P  P211  1  0.54216537  0.58359626  0.85486976  1
  P  P212  1  0.54173118  0.91645849  0.10103795  1
  P  P213  1  0.54238558  0.91437832  0.35202999  1
  P  P214  1  0.54226289  0.91555887  0.60280923  1
  P  P215  1  0.54210521  0.91830001  0.85342080  1
  P  P216  1  0.45745282  0.08271264  0.14497919  1
  P  P217  1  0.45716401  0.08272662  0.39630147  1
  P  P218  1  0.45878168  0.08271502  0.64869830  1
  P  P219  1  0.45907649  0.08364913  0.89722674  1
  P  P220  1  0.45780111  0.41560660  0.14709070  1
  P  P221  1  0.45695590  0.41610009  0.39654614  1
  P  P222  1  0.45753936  0.41562854  0.64815284  1
  P  P223  1  0.45777471  0.41759042  0.89734333  1
  P  P224  1  0.45804203  0.75132072  0.14683463  1
  P  P225  1  0.45857142  0.75015353  0.39860874  1
  P  P226  1  0.45733749  0.75008807  0.64649343  1
  P  P227  1  0.45841847  0.75064308  0.89916374  1
  P  P228  1  0.95787867  0.08255096  0.14730562  1
  P  P229  1  0.95752263  0.08488050  0.39710888  1
  P  P230  1  0.95852602  0.08271034  0.64711650  1
  P  P231  1  0.95818403  0.08171902  0.89746223  1
  P  P232  1  0.95753449  0.41482155  0.14759231  1
  P  P233  1  0.95740833  0.41491933  0.39782271  1
  P  P234  1  0.95779859  0.41680033  0.64751724  1
  P  P235  1  0.95778191  0.41533512  0.89739247  1
  P  P236  1  0.95792611  0.75212179  0.14716960  1
  P  P237  1  0.95715534  0.75113249  0.39619372  1
  P  P238  1  0.95703211  0.74884353  0.64791091  1
  P  P239  1  0.95728018  0.74975685  0.89609347  1
  P  P240  1  0.20745929  0.08343045  0.22923096  1
  P  P241  1  0.20876206  0.08298482  0.47658459  1
  P  P242  1  0.20827018  0.08203121  0.72724754  1
  P  P243  1  0.20724861  0.08296308  0.97820466  1
  P  P244  1  0.20824557  0.41911440  0.22844255  1
  P  P245  1  0.20791566  0.41943304  0.47793263  1
  P  P246  1  0.20802319  0.41835796  0.72773107  1
  P  P247  1  0.20813313  0.41642900  0.97797518  1
  P  P248  1  0.20879850  0.74998201  0.22717851  1
  P  P249  1  0.20770855  0.74848375  0.47803454  1
  P  P250  1  0.20812746  0.74869394  0.72817901  1
  P  P251  1  0.20844123  0.74973564  0.97729387  1
  P  P252  1  0.70791032  0.08375603  0.22548072  1
  P  P253  1  0.70677599  0.08319290  0.47882314  1
  P  P254  1  0.70916450  0.08311329  0.72674230  1
  P  P255  1  0.70883649  0.08345836  0.97623885  1
  P  P256  1  0.70661319  0.41649291  0.22845391  1
  P  P257  1  0.70779386  0.41467496  0.47855701  1
  P  P258  1  0.70888026  0.41676245  0.72721882  1
  P  P259  1  0.70748253  0.41750584  0.97729041  1
  P  P260  1  0.70758187  0.74825614  0.22718678  1
  P  P261  1  0.70787658  0.74843880  0.47752956  1
  P  P262  1  0.70705603  0.74942287  0.72900874  1
  P  P263  1  0.70799391  0.74870991  0.97755311  1
  P  P264  1  0.29290548  0.25083490  0.02132679  1
  P  P265  1  0.29228060  0.24947709  0.27279892  1
  P  P266  1  0.29294976  0.25002669  0.52107645  1
  P  P267  1  0.29217810  0.25163683  0.77239808  1
  P  P268  1  0.29118109  0.58382310  0.02385030  1
  P  P269  1  0.29181585  0.58407311  0.27319361  1
  P  P270  1  0.29148174  0.58391608  0.52326896  1
  P  P271  1  0.29249803  0.58510172  0.77270526  1
  P  P272  1  0.29179976  0.91426644  0.02229985  1
  P  P273  1  0.29202383  0.91705269  0.27239804  1
  P  P274  1  0.29210503  0.91806328  0.52199633  1
  P  P275  1  0.29272992  0.91481486  0.77246595  1
  P  P276  1  0.79203290  0.24824248  0.02154563  1
  P  P277  1  0.79164537  0.25086421  0.27239823  1
  P  P278  1  0.79103308  0.24994473  0.52368815  1
  P  P279  1  0.79222161  0.24851275  0.77157657  1
  P  P280  1  0.79201693  0.58454582  0.02188194  1
  P  P281  1  0.79233432  0.58468945  0.27259086  1
  P  P282  1  0.79235740  0.58143597  0.52264056  1
  P  P283  1  0.79104280  0.58228584  0.77347724  1
  P  P284  1  0.79180269  0.91834855  0.02141991  1
  P  P285  1  0.79193695  0.91721968  0.27049791  1
  P  P286  1  0.79223466  0.91738140  0.52232908  1
  P  P287  1  0.79210632  0.91836001  0.77187013  1
  O  O288  1  0.03711746  0.25177584  0.18293247  1
  O  O289  1  0.03617510  0.25108942  0.43338515  1
  O  O290  1  0.03758810  0.24940641  0.68152632  1
  O  O291  1  0.03825803  0.25032012  0.93367573  1
  O  O292  1  0.03786773  0.58347341  0.18338504  1
  O  O293  1  0.03771822  0.58323703  0.43325147  1
  O  O294  1  0.03620412  0.58312016  0.68428740  1
  O  O295  1  0.03627330  0.58265045  0.93160667  1
  O  O296  1  0.03654765  0.91789881  0.18286468  1
  O  O297  1  0.03677741  0.91731675  0.43118484  1
  O  O298  1  0.03819734  0.91724996  0.68331556  1
  O  O299  1  0.03725115  0.91866165  0.93228591  1
  O  O300  1  0.53732456  0.24933352  0.18159461  1
  O  O301  1  0.53724523  0.25024817  0.43177768  1
  O  O302  1  0.53668292  0.24946994  0.68439987  1
  O  O303  1  0.53687447  0.24935522  0.93141603  1
  O  O304  1  0.53616446  0.58313689  0.18179680  1
  O  O305  1  0.53698251  0.58427626  0.43389127  1
  O  O306  1  0.53767344  0.58396978  0.68271967  1
  O  O307  1  0.53647983  0.58327417  0.93473787  1
  O  O308  1  0.53688504  0.91589047  0.18101627  1
  O  O309  1  0.53723014  0.91442155  0.43199534  1
  O  O310  1  0.53701981  0.91654264  0.68275633  1
  O  O311  1  0.53666314  0.91828332  0.93331565  1
  O  O312  1  0.46294949  0.08290538  0.06506505  1
  O  O313  1  0.46199224  0.08268209  0.31631729  1
  O  O314  1  0.46348620  0.08271444  0.56866885  1
  O  O315  1  0.46465110  0.08346383  0.81730568  1
  O  O316  1  0.46310985  0.41650997  0.06712030  1
  O  O317  1  0.46228872  0.41567043  0.31658044  1
  O  O318  1  0.46242670  0.41590379  0.56816032  1
  O  O319  1  0.46315375  0.41699411  0.81743556  1
  O  O320  1  0.46331488  0.75118797  0.06698207  1
  O  O321  1  0.46342321  0.75016368  0.31861521  1
  O  O322  1  0.46280999  0.74983637  0.56660981  1
  O  O323  1  0.46282366  0.75042583  0.81916753  1
  O  O324  1  0.96329350  0.08246838  0.06739937  1
  O  O325  1  0.96266482  0.08445465  0.31713841  1
  O  O326  1  0.96357455  0.08383558  0.56716588  1
  O  O327  1  0.96372932  0.08158220  0.81753928  1
  O  O328  1  0.96288157  0.41482567  0.06762566  1
  O  O329  1  0.96237857  0.41473604  0.31782574  1
  O  O330  1  0.96289867  0.41618469  0.56757369  1
  O  O331  1  0.96308153  0.41640333  0.81743368  1
  O  O332  1  0.96300341  0.75179566  0.06716692  1
  O  O333  1  0.96259548  0.75182305  0.31623209  1
  O  O334  1  0.96197363  0.74918933  0.56788109  1
  O  O335  1  0.96242165  0.74904951  0.81614522  1
  O  O336  1  0.21231371  0.08291272  0.05815506  1
  O  O337  1  0.21309693  0.08362842  0.30914862  1
  O  O338  1  0.21380070  0.08250119  0.55661484  1
  O  O339  1  0.21313905  0.08222565  0.80720389  1
  O  O340  1  0.21302557  0.41684099  0.05790921  1
  O  O341  1  0.21363667  0.41929974  0.30836342  1
  O  O342  1  0.21322895  0.41950095  0.55787237  1
  O  O343  1  0.21346516  0.41734694  0.80767281  1
  O  O344  1  0.21346610  0.75010137  0.05721793  1
  O  O345  1  0.21347344  0.74939133  0.30713861  1
  O  O346  1  0.21303938  0.74863688  0.55794750  1
  O  O347  1  0.21358153  0.74901663  0.80804792  1
  O  O348  1  0.71387474  0.08345084  0.05614900  1
  O  O349  1  0.71230260  0.08369488  0.30552175  1
  O  O350  1  0.71222464  0.08292137  0.55867781  1
  O  O351  1  0.71428655  0.08343627  0.80665400  1
  O  O352  1  0.71237550  0.41730401  0.05723264  1
  O  O353  1  0.71172743  0.41604788  0.30841661  1
  O  O354  1  0.71335187  0.41493818  0.55842151  1
  O  O355  1  0.71379755  0.41695073  0.80719294  1
  O  O356  1  0.71330111  0.74873809  0.05748994  1
  O  O357  1  0.71303194  0.74815461  0.30713684  1
  O  O358  1  0.71284066  0.74889039  0.55751211  1
  O  O359  1  0.71251953  0.74928165  0.80892687  1
  O  O360  1  0.28736437  0.24973020  0.19280163  1
  O  O361  1  0.28756940  0.24945112  0.44116300  1
  O  O362  1  0.28732763  0.25150293  0.69237886  1
  O  O363  1  0.28738000  0.25165463  0.94137481  1
  O  O364  1  0.28661174  0.58382874  0.19330636  1
  O  O365  1  0.28626747  0.58392284  0.44337221  1
  O  O366  1  0.28739050  0.58491159  0.69283403  1
  O  O367  1  0.28661581  0.58439651  0.94389451  1
  O  O368  1  0.28677424  0.91611887  0.19246268  1
  O  O369  1  0.28663298  0.91832954  0.44208272  1
  O  O370  1  0.28762244  0.91549677  0.69251787  1
  O  O371  1  0.28658498  0.91379503  0.94236785  1
  O  O372  1  0.78664904  0.25016139  0.19245942  1
  O  O373  1  0.78612303  0.25059306  0.44372819  1
  O  O374  1  0.78676995  0.24882219  0.69172755  1
  O  O375  1  0.78677823  0.24811753  0.94160639  1
  O  O376  1  0.78719296  0.58489256  0.19261743  1
  O  O377  1  0.78721577  0.58218825  0.44271162  1
  O  O378  1  0.78608875  0.58154984  0.69350998  1
  O  O379  1  0.78650642  0.58412423  0.94201179  1
  O  O380  1  0.78652747  0.91756695  0.19054598  1
  O  O381  1  0.78705919  0.91684999  0.44233171  1
  O  O382  1  0.78669574  0.91822023  0.69193906  1
  O  O383  1  0.78672702  0.91860668  0.94144928  1
  O  O384  1  0.22871941  0.25096891  0.05706671  1
  O  O385  1  0.22801715  0.24984388  0.30833429  1
  O  O386  1  0.22864879  0.25029518  0.55653191  1
  O  O387  1  0.22785807  0.25139036  0.80778021  1
  O  O388  1  0.22701055  0.58321386  0.05969612  1
  O  O389  1  0.22770069  0.58433924  0.30959583  1
  O  O390  1  0.22749082  0.58366772  0.55991187  1
  O  O391  1  0.22823686  0.58531203  0.80859965  1
  O  O392  1  0.22760624  0.91417919  0.05823901  1
  O  O393  1  0.22778639  0.91761726  0.30820986  1
  O  O394  1  0.22797844  0.91807746  0.55809988  1
  O  O395  1  0.22839206  0.91416386  0.80810414  1
  O  O396  1  0.72775740  0.24806758  0.05731843  1
  O  O397  1  0.72728560  0.25152531  0.30808895  1
  O  O398  1  0.72696037  0.24950138  0.55969058  1
  O  O399  1  0.72810670  0.24834400  0.80780483  1
  O  O400  1  0.72779686  0.58514285  0.05802263  1
  O  O401  1  0.72806708  0.58447637  0.30835746  1
  O  O402  1  0.72803470  0.58076686  0.55836004  1
  O  O403  1  0.72692600  0.58236988  0.80958952  1
  O  O404  1  0.72755100  0.91792792  0.05710653  1
  O  O405  1  0.72771395  0.91650909  0.30614660  1
  O  O406  1  0.72792420  0.91801784  0.55795893  1
  O  O407  1  0.72793484  0.91828894  0.80782103  1
  O  O408  1  0.27157468  0.08286324  0.19319498  1
  O  O409  1  0.27287498  0.08276759  0.44049834  1
  O  O410  1  0.27268646  0.08198760  0.69191496  1
  O  O411  1  0.27162047  0.08283205  0.94302819  1
  O  O412  1  0.27245283  0.41938707  0.19248055  1
  O  O413  1  0.27210768  0.41927408  0.44202241  1
  O  O414  1  0.27221417  0.41897263  0.69172976  1
  O  O415  1  0.27244993  0.41674841  0.94240422  1
  O  O416  1  0.27297425  0.75049092  0.19127706  1
  O  O417  1  0.27191776  0.74851477  0.44211024  1
  O  O418  1  0.27219760  0.74860543  0.69186327  1
  O  O419  1  0.27264909  0.74947184  0.94106148  1
  O  O420  1  0.77226491  0.08403262  0.19000812  1
  O  O421  1  0.77100041  0.08361227  0.44301763  1
  O  O422  1  0.77313750  0.08279391  0.69023523  1
  O  O423  1  0.77296424  0.08353673  0.93997461  1
  O  O424  1  0.77097827  0.41664502  0.19312048  1
  O  O425  1  0.77184634  0.41436555  0.44207828  1
  O  O426  1  0.77296737  0.41721495  0.69111420  1
  O  O427  1  0.77184790  0.41740179  0.94187729  1
  O  O428  1  0.77181305  0.74847572  0.19126082  1
  O  O429  1  0.77217119  0.74818631  0.44187562  1
  O  O430  1  0.77129159  0.74947565  0.69343659  1
  O  O431  1  0.77211036  0.74895045  0.94156287  1
  O  O432  1  0.02201293  0.08282759  0.18327367  1
  O  O433  1  0.02187218  0.08574632  0.43268560  1
  O  O434  1  0.02288928  0.08180686  0.68268434  1
  O  O435  1  0.02237146  0.08175306  0.93340236  1
  O  O436  1  0.02179258  0.41471211  0.18335801  1
  O  O437  1  0.02176445  0.41485645  0.43322968  1
  O  O438  1  0.02210379  0.41777284  0.68304604  1
  O  O439  1  0.02208993  0.41463318  0.93308126  1
  O  O440  1  0.02225672  0.75249968  0.18260279  1
  O  O441  1  0.02152645  0.75061724  0.43151442  1
  O  O442  1  0.02139883  0.74855240  0.68316249  1
  O  O443  1  0.02164997  0.75034746  0.93131519  1
  O  O444  1  0.52164140  0.08266555  0.18072873  1
  O  O445  1  0.52164414  0.08245581  0.43119188  1
  O  O446  1  0.52304469  0.08262970  0.68435590  1
  O  O447  1  0.52303935  0.08350271  0.93385730  1
  O  O448  1  0.52205589  0.41495512  0.18283631  1
  O  O449  1  0.52125098  0.41665997  0.43192693  1
  O  O450  1  0.52198921  0.41496131  0.68337257  1
  O  O451  1  0.52201362  0.41813541  0.93306872  1
  O  O452  1  0.52221895  0.75114863  0.18287849  1
  O  O453  1  0.52273926  0.75032717  0.43458438  1
  O  O454  1  0.52148654  0.75057539  0.68236584  1
  O  O455  1  0.52267670  0.75061461  0.93454376  1
  O  O456  1  0.47850684  0.24830141  0.06582928  1
  O  O457  1  0.47793630  0.25096811  0.31628430  1
  O  O458  1  0.47813145  0.24924075  0.56852055  1
  O  O459  1  0.47753742  0.25033922  0.81569349  1
  O  O460  1  0.47646880  0.58271225  0.06630417  1
  O  O461  1  0.47808345  0.58336339  0.31845153  1
  O  O462  1  0.47778391  0.58466229  0.56770138  1
  O  O463  1  0.47807512  0.58323334  0.81885951  1
  O  O464  1  0.47751183  0.91702588  0.06525901  1
  O  O465  1  0.47804299  0.91451355  0.31643666  1
  O  O466  1  0.47800968  0.91460110  0.56699659  1
  O  O467  1  0.47795105  0.91888797  0.81737157  1
  O  O468  1  0.97833658  0.25149846  0.06704111  1
  O  O469  1  0.97769259  0.25166893  0.31718372  1
  O  O470  1  0.97746487  0.24931529  0.56624685  1
  O  O471  1  0.97927483  0.24969477  0.81838849  1
  O  O472  1  0.97855324  0.58314218  0.06842356  1
  O  O473  1  0.97849714  0.58354740  0.31826749  1
  O  O474  1  0.97775458  0.58309159  0.56840394  1
  O  O475  1  0.97666390  0.58256726  0.81599240  1
  O  O476  1  0.97799179  0.91882555  0.06671817  1
  O  O477  1  0.97721116  0.91684110  0.31550099  1
  O  O478  1  0.97883316  0.91739716  0.56832645  1
  O  O479  1  0.97835658  0.91857266  0.81655379  1
  O  O480  1  0.07342275  0.31498343  0.07421686  1
  O  O481  1  0.07278499  0.31496159  0.32501132  1
  O  O482  1  0.07208555  0.31386743  0.57357986  1
  O  O483  1  0.07471004  0.31316458  0.82504320  1
  O  O484  1  0.07376518  0.64695195  0.07518592  1
  O  O485  1  0.07410081  0.64667587  0.32522798  1
  O  O486  1  0.07303101  0.64665992  0.57604453  1
  O  O487  1  0.07149406  0.64653304  0.82348776  1
  O  O488  1  0.07328319  0.98173477  0.07464226  1
  O  O489  1  0.07148235  0.98162443  0.32325707  1
  O  O490  1  0.07475646  0.97992683  0.57457022  1
  O  O491  1  0.07377740  0.98147518  0.82346041  1
  O  O492  1  0.57387885  0.31221785  0.07365213  1
  O  O493  1  0.57276478  0.31436522  0.32336342  1
  O  O494  1  0.57347800  0.31270844  0.57615162  1
  O  O495  1  0.57264919  0.31365679  0.82365414  1
  O  O496  1  0.57096995  0.64703223  0.07354164  1
  O  O497  1  0.57343933  0.64692163  0.32524636  1
  O  O498  1  0.57309471  0.64761353  0.57413646  1
  O  O499  1  0.57307268  0.64723457  0.82674409  1
  O  O500  1  0.57276813  0.98006688  0.07302459  1
  O  O501  1  0.57338554  0.97806942  0.32400776  1
  O  O502  1  0.57293982  0.97911346  0.57421224  1
  O  O503  1  0.57339806  0.98140524  0.82449279  1
  O  O504  1  0.42624918  0.01928531  0.17326814  1
  O  O505  1  0.42621330  0.01925197  0.42459994  1
  O  O506  1  0.42802626  0.01905072  0.67686490  1
  O  O507  1  0.42781767  0.02024017  0.92556604  1
  O  O508  1  0.42718411  0.35175139  0.17503541  1
  O  O509  1  0.42592865  0.35284557  0.42509802  1
  O  O510  1  0.42651139  0.35231340  0.67664084  1
  O  O511  1  0.42684553  0.35398113  0.92538622  1
  O  O512  1  0.42674502  0.68787206  0.17500374  1
  O  O513  1  0.42813652  0.68623032  0.42697939  1
  O  O514  1  0.42644010  0.68666339  0.67523628  1
  O  O515  1  0.42791898  0.68691854  0.92784828  1
  O  O516  1  0.92705352  0.01923984  0.17608088  1
  O  O517  1  0.92688135  0.02111308  0.42517515  1
  O  O518  1  0.92761250  0.01909514  0.67513730  1
  O  O519  1  0.92707671  0.01861055  0.92625617  1
  O  O520  1  0.92641321  0.35164450  0.17627388  1
  O  O521  1  0.92649673  0.35176088  0.42698367  1
  O  O522  1  0.92716390  0.35307864  0.67572370  1
  O  O523  1  0.92696035  0.35159776  0.92526800  1
  O  O524  1  0.92712033  0.68831994  0.17493579  1
  O  O525  1  0.92606946  0.68746868  0.42395883  1
  O  O526  1  0.92621669  0.68534450  0.67634473  1
  O  O527  1  0.92627749  0.68656835  0.92494915  1
  O  O528  1  0.17596077  0.02013730  0.20112666  1
  O  O529  1  0.17737182  0.01980594  0.44808325  1
  O  O530  1  0.17777743  0.01841995  0.69872546  1
  O  O531  1  0.17618523  0.01945900  0.95028968  1
  O  O532  1  0.17754068  0.35509836  0.20100151  1
  O  O533  1  0.17696283  0.35555398  0.45038116  1
  O  O534  1  0.17686718  0.35504897  0.69918996  1
  O  O535  1  0.17802493  0.35266923  0.94903503  1
  O  O536  1  0.17832143  0.68638090  0.19820430  1
  O  O537  1  0.17670394  0.68530822  0.44934970  1
  O  O538  1  0.17719876  0.68525777  0.69964926  1
  O  O539  1  0.17757095  0.68600865  0.94906875  1
  O  O540  1  0.67759301  0.01984580  0.19705611  1
  O  O541  1  0.67571072  0.01992747  0.44995501  1
  O  O542  1  0.67792406  0.01965002  0.69863864  1
  O  O543  1  0.67800588  0.01987099  0.94767852  1
  O  O544  1  0.67543241  0.35345304  0.19956149  1
  O  O545  1  0.67673742  0.35133786  0.44989309  1
  O  O546  1  0.67884768  0.35245441  0.69923998  1
  O  O547  1  0.67644202  0.35390789  0.94938682  1
  O  O548  1  0.67666373  0.68496903  0.19844000  1
  O  O549  1  0.67727461  0.68469853  0.44948350  1
  O  O550  1  0.67574551  0.68612447  0.70084107  1
  O  O551  1  0.67714536  0.68533647  0.94899389  1
  O  O552  1  0.32452620  0.31372459  0.05009548  1
  O  O553  1  0.32363458  0.31302334  0.30026249  1
  O  O554  1  0.32396385  0.31375300  0.54867950  1
  O  O555  1  0.32244019  0.31540930  0.80095201  1
  O  O556  1  0.32155096  0.64751704  0.05274264  1
  O  O557  1  0.32270300  0.64774307  0.30153330  1
  O  O558  1  0.32223390  0.64760676  0.55161063  1
  O  O559  1  0.32352919  0.64827927  0.80177889  1
  O  O560  1  0.32255048  0.97832501  0.04954239  1
  O  O561  1  0.32302142  0.98063875  0.30033044  1
  O  O562  1  0.32311292  0.98124003  0.55093630  1
  O  O563  1  0.32355624  0.97837032  0.80087434  1
  O  O564  1  0.82271664  0.31217683  0.04924853  1
  O  O565  1  0.82241413  0.31433285  0.30095052  1
  O  O566  1  0.82175872  0.31335685  0.55269798  1
  O  O567  1  0.82335898  0.31205287  0.79973394  1
  O  O568  1  0.82326938  0.64778424  0.05044096  1
  O  O569  1  0.82313921  0.64798058  0.30141642  1
  O  O570  1  0.82321841  0.64493377  0.55110737  1
  O  O571  1  0.82146386  0.64644114  0.80110554  1
  O  O572  1  0.82238757  0.98172558  0.05041898  1
  O  O573  1  0.82277380  0.98068633  0.29894786  1
  O  O574  1  0.82324234  0.98092912  0.55030680  1
  O  O575  1  0.82306641  0.98171903  0.80033293  1
  O  O576  1  0.42607150  0.14601337  0.17348060  1
  O  O577  1  0.42642450  0.14629143  0.42471283  1
  O  O578  1  0.42804349  0.14646420  0.67698505  1
  O  O579  1  0.42820170  0.14750287  0.92519127  1
  O  O580  1  0.42668152  0.47900347  0.17555127  1
  O  O581  1  0.42571529  0.47970417  0.42452605  1
  O  O582  1  0.42698123  0.47962286  0.67590158  1
  O  O583  1  0.42668099  0.48104986  0.92577968  1
  O  O584  1  0.42746605  0.81488494  0.17580225  1
  O  O585  1  0.42742707  0.81363082  0.42685326  1
  O  O586  1  0.42579477  0.81338136  0.67480406  1
  O  O587  1  0.42763079  0.81448106  0.92695476  1
  O  O588  1  0.92668897  0.14636190  0.17478036  1
  O  O589  1  0.92638289  0.14822556  0.42569939  1
  O  O590  1  0.92772882  0.14621690  0.67585398  1
  O  O591  1  0.92723675  0.14565820  0.92505044  1
  O  O592  1  0.92663759  0.47879816  0.17529553  1
  O  O593  1  0.92650397  0.47886868  0.42534250  1
  O  O594  1  0.92664125  0.48017955  0.67601632  1
  O  O595  1  0.92675737  0.47874598  0.92603466  1
  O  O596  1  0.92692191  0.81564999  0.17531037  1
  O  O597  1  0.92605677  0.81440759  0.42495413  1
  O  O598  1  0.92606331  0.81261982  0.67563425  1
  O  O599  1  0.92612230  0.81355344  0.92362665  1
  O  O600  1  0.07366996  0.18780080  0.07559048  1
  O  O601  1  0.07308326  0.18808341  0.32520833  1
  O  O602  1  0.07295350  0.18632915  0.57281583  1
  O  O603  1  0.07468990  0.18636882  0.82575511  1
  O  O604  1  0.07409949  0.51989828  0.07536706  1
  O  O605  1  0.07367838  0.51958144  0.32529671  1
  O  O606  1  0.07332774  0.51994134  0.57601453  1
  O  O607  1  0.07182796  0.51891056  0.82355437  1
  O  O608  1  0.07310268  0.85477108  0.07445455  1
  O  O609  1  0.07276562  0.85400615  0.32292315  1
  O  O610  1  0.07381423  0.85303787  0.57533229  1
  O  O611  1  0.07339393  0.85432179  0.82498144  1
  O  O612  1  0.57355135  0.18518899  0.07320806  1
  O  O613  1  0.57334836  0.18702667  0.32386425  1
  O  O614  1  0.57347832  0.18590170  0.57612029  1
  O  O615  1  0.57242420  0.18616730  0.82283535  1
  O  O616  1  0.57189947  0.51942011  0.07378245  1
  O  O617  1  0.57361009  0.52014824  0.32613668  1
  O  O618  1  0.57294700  0.52029976  0.57477162  1
  O  O619  1  0.57383765  0.52053363  0.82615962  1
  O  O620  1  0.57243710  0.85276575  0.07252202  1
  O  O621  1  0.57316355  0.85097297  0.32317173  1
  O  O622  1  0.57343660  0.85203654  0.57481875  1
  O  O623  1  0.57288456  0.85440750  0.82552122  1
  O  O624  1  0.32370112  0.18679083  0.04866892  1
  O  O625  1  0.32273612  0.18564322  0.30106348  1
  O  O626  1  0.32423823  0.18684747  0.54984556  1
  O  O627  1  0.32353126  0.18797831  0.79989471  1
  O  O628  1  0.32233548  0.52022287  0.05180639  1
  O  O629  1  0.32272623  0.52054625  0.30187634  1
  O  O630  1  0.32261178  0.52042411  0.55179214  1
  O  O631  1  0.32353738  0.52147638  0.80097099  1
  O  O632  1  0.32297903  0.85119858  0.05135161  1
  O  O633  1  0.32301910  0.85357720  0.30094641  1
  O  O634  1  0.32307013  0.85407927  0.54924381  1
  O  O635  1  0.32364375  0.85123825  0.80073036  1
  O  O636  1  0.82319816  0.18507985  0.05037504  1
  O  O637  1  0.82244786  0.18721282  0.30084213  1
  O  O638  1  0.82210535  0.18613759  0.55140214  1
  O  O639  1  0.82336699  0.18510980  0.80005046  1
  O  O640  1  0.82286227  0.52080204  0.05022114  1
  O  O641  1  0.82339370  0.52080083  0.30012116  1
  O  O642  1  0.82322328  0.51777687  0.55080941  1
  O  O643  1  0.82220831  0.51897771  0.80220995  1
  O  O644  1  0.82308844  0.85458980  0.04883116  1
  O  O645  1  0.82336935  0.85376132  0.29833478  1
  O  O646  1  0.82303565  0.85365214  0.55045140  1
  O  O647  1  0.82327199  0.85466140  0.79965303  1
  O  O648  1  0.17643041  0.14697577  0.20089028  1
  O  O649  1  0.17847063  0.14730581  0.44889153  1
  O  O650  1  0.17720955  0.14574759  0.69936734  1
  O  O651  1  0.17627244  0.14651979  0.95013195  1
  O  O652  1  0.17705698  0.48224790  0.19961603  1
  O  O653  1  0.17691212  0.48272369  0.44929851  1
  O  O654  1  0.17723596  0.48222686  0.70007253  1
  O  O655  1  0.17650413  0.47970354  0.94982300  1
  O  O656  1  0.17770843  0.81362763  0.19919165  1
  O  O657  1  0.17674088  0.81237282  0.45026379  1
  O  O658  1  0.17680095  0.81215667  0.69994686  1
  O  O659  1  0.17760984  0.81319821  0.94833414  1
  O  O660  1  0.67703384  0.14738242  0.19725934  1
  O  O661  1  0.67538161  0.14660509  0.45057891  1
  O  O662  1  0.67848482  0.14692057  0.69824671  1
  O  O663  1  0.67785062  0.14699017  0.94762035  1
  O  O664  1  0.67569929  0.48033741  0.20063964  1
  O  O665  1  0.67664948  0.47830583  0.45047576  1
  O  O666  1  0.67728909  0.47985103  0.69875079  1
  O  O667  1  0.67687003  0.48113831  0.94889546  1
  O  O668  1  0.67648846  0.81201846  0.19941342  1
  O  O669  1  0.67693176  0.81208522  0.44944681  1
  O  O670  1  0.67599414  0.81306769  0.70101848  1
  O  O671  1  0.67675748  0.81251029  0.95015155  1
