# generated using pymatgen
data_Na2MnFe(PO4)2
_symmetry_space_group_name_H-M   'P 1'
_cell_length_a   22.34219228
_cell_length_b   20.09481016
_cell_length_c   19.45060004
_cell_angle_alpha   89.94607499
_cell_angle_beta   90.03004621
_cell_angle_gamma   90.02865522
_symmetry_Int_Tables_number   1
_chemical_formula_structural   Na2MnFe(PO4)2
_chemical_formula_sum   'Na96 Mn48 Fe48 P96 O384'
_cell_volume   8732.57632392
_cell_formula_units_Z   48
loop_
 _symmetry_equiv_pos_site_id
 _symmetry_equiv_pos_as_xyz
  1  'x, y, z'
loop_
 _atom_site_type_symbol
 _atom_site_label
 _atom_site_symmetry_multiplicity
 _atom_site_fract_x
 _atom_site_fract_y
 _atom_site_fract_z
 _atom_site_occupancy
  Na  Na0  1  0.13970507  0.24972158  0.24265688  1
  Na  Na1  1  0.14003894  0.25116030  0.49287421  1
  Na  Na2  1  0.13979306  0.24966344  0.74324942  1
  Na  Na3  1  0.13939530  0.25074771  0.99314960  1
  Na  Na4  1  0.13936988  0.58175575  0.24319805  1
  Na  Na5  1  0.13990945  0.58338375  0.49344939  1
  Na  Na6  1  0.14003443  0.58304715  0.74538021  1
  Na  Na7  1  0.13962266  0.58424109  0.99407633  1
  Na  Na8  1  0.14002539  0.91558830  0.24302867  1
  Na  Na9  1  0.14010158  0.91730310  0.49385638  1
  Na  Na10  1  0.14002188  0.91532364  0.74465298  1
  Na  Na11  1  0.13981204  0.91612440  0.99376265  1
  Na  Na12  1  0.64022609  0.25174803  0.24420366  1
  Na  Na13  1  0.64049464  0.25056332  0.49158092  1
  Na  Na14  1  0.64071359  0.24997065  0.74317511  1
  Na  Na15  1  0.64022360  0.25155013  0.99306295  1
  Na  Na16  1  0.64043581  0.58418632  0.24495258  1
  Na  Na17  1  0.64111676  0.58403100  0.49347321  1
  Na  Na18  1  0.64093174  0.58354121  0.74507867  1
  Na  Na19  1  0.64082688  0.58438181  0.99396308  1
  Na  Na20  1  0.64053177  0.91631510  0.24488750  1
  Na  Na21  1  0.64090474  0.91648145  0.49278688  1
  Na  Na22  1  0.64074654  0.91555893  0.74377596  1
  Na  Na23  1  0.64047324  0.91620684  0.99248443  1
  Na  Na24  1  0.35945429  0.08415628  0.00527853  1
  Na  Na25  1  0.35909042  0.08397387  0.25527353  1
  Na  Na26  1  0.35959333  0.08456642  0.50550611  1
  Na  Na27  1  0.36030010  0.08183091  0.75533421  1
  Na  Na28  1  0.35936194  0.41660100  0.00652651  1
  Na  Na29  1  0.35927237  0.41474064  0.25576661  1
  Na  Na30  1  0.35950533  0.41644283  0.50472100  1
  Na  Na31  1  0.35961362  0.41654399  0.75508682  1
  Na  Na32  1  0.36058523  0.75023771  0.00666123  1
  Na  Na33  1  0.36007666  0.74775470  0.25626184  1
  Na  Na34  1  0.35993632  0.74981859  0.50681426  1
  Na  Na35  1  0.35969649  0.74910547  0.75620497  1
  Na  Na36  1  0.85993661  0.08384928  0.00626727  1
  Na  Na37  1  0.85882168  0.08359919  0.25682430  1
  Na  Na38  1  0.85942150  0.08375381  0.50549548  1
  Na  Na39  1  0.86012499  0.08305278  0.75728569  1
  Na  Na40  1  0.86014019  0.41747007  0.00708057  1
  Na  Na41  1  0.85994708  0.41750754  0.25796183  1
  Na  Na42  1  0.85962543  0.41744442  0.50577617  1
  Na  Na43  1  0.85934359  0.41738254  0.75681262  1
  Na  Na44  1  0.86028987  0.74922544  0.00763955  1
  Na  Na45  1  0.86015520  0.75002767  0.25875312  1
  Na  Na46  1  0.86058547  0.74932586  0.50671739  1
  Na  Na47  1  0.85981104  0.74916629  0.75773112  1
  Na  Na48  1  0.10859720  0.08338741  0.11771255  1
  Na  Na49  1  0.10938053  0.08361879  0.36792982  1
  Na  Na50  1  0.10926101  0.08365004  0.61827415  1
  Na  Na51  1  0.10896887  0.08207229  0.86931528  1
  Na  Na52  1  0.10869741  0.41592093  0.11803195  1
  Na  Na53  1  0.10888019  0.41729179  0.36762503  1
  Na  Na54  1  0.10933780  0.41829049  0.61848024  1
  Na  Na55  1  0.10945481  0.41642083  0.86918893  1
  Na  Na56  1  0.10885307  0.74902942  0.11875405  1
  Na  Na57  1  0.10909462  0.74876462  0.36865331  1
  Na  Na58  1  0.10895811  0.75061015  0.61966220  1
  Na  Na59  1  0.10958536  0.74999034  0.87041030  1
  Na  Na60  1  0.60966482  0.08375860  0.11884890  1
  Na  Na61  1  0.61001507  0.08498818  0.36796147  1
  Na  Na62  1  0.60976657  0.08365543  0.61828447  1
  Na  Na63  1  0.60975732  0.08362381  0.86801022  1
  Na  Na64  1  0.60991775  0.41779200  0.11913560  1
  Na  Na65  1  0.61006469  0.41762690  0.36828212  1
  Na  Na66  1  0.61007172  0.41712660  0.61766363  1
  Na  Na67  1  0.60974859  0.41629977  0.86906621  1
  Na  Na68  1  0.60986358  0.74951870  0.11922877  1
  Na  Na69  1  0.61013791  0.75028361  0.36962338  1
  Na  Na70  1  0.61029998  0.74995225  0.61869979  1
  Na  Na71  1  0.61055946  0.75014452  0.86868835  1
  Na  Na72  1  0.38962176  0.25033589  0.13075485  1
  Na  Na73  1  0.39013220  0.25029202  0.38027713  1
  Na  Na74  1  0.39088488  0.24921677  0.62959006  1
  Na  Na75  1  0.39061151  0.24919419  0.87999776  1
  Na  Na76  1  0.39052007  0.58320856  0.13137383  1
  Na  Na77  1  0.39034075  0.58308021  0.38134392  1
  Na  Na78  1  0.39033776  0.58301435  0.63042720  1
  Na  Na79  1  0.39042156  0.58288790  0.88230814  1
  Na  Na80  1  0.39108247  0.91506667  0.13047084  1
  Na  Na81  1  0.39071229  0.91691326  0.38176816  1
  Na  Na82  1  0.39062927  0.91737667  0.63101281  1
  Na  Na83  1  0.39077314  0.91609921  0.88054333  1
  Na  Na84  1  0.89018781  0.25061959  0.13114894  1
  Na  Na85  1  0.88986889  0.25091742  0.38111568  1
  Na  Na86  1  0.89038091  0.25073225  0.63037211  1
  Na  Na87  1  0.89121214  0.24915372  0.88207694  1
  Na  Na88  1  0.89049198  0.58282857  0.13273508  1
  Na  Na89  1  0.89024498  0.58343509  0.38262542  1
  Na  Na90  1  0.88985417  0.58506098  0.63210147  1
  Na  Na91  1  0.89010006  0.58323631  0.88376865  1
  Na  Na92  1  0.89026845  0.91553401  0.13121666  1
  Na  Na93  1  0.89028717  0.91512152  0.38202597  1
  Na  Na94  1  0.89051446  0.91698916  0.63085397  1
  Na  Na95  1  0.89091962  0.91558663  0.88247913  1
  Mn  Mn96  1  0.24951742  0.66503135  0.37568038  1
  Mn  Mn97  1  0.50032907  0.00077428  0.50007934  1
  Mn  Mn98  1  0.49999292  0.33222436  0.74848102  1
  Mn  Mn99  1  0.24954009  -0.00099514  0.87575347  1
  Mn  Mn100  1  0.49957510  0.16820783  0.24875960  1
  Mn  Mn101  1  0.75040871  0.00001088  0.87492292  1
  Mn  Mn102  1  0.75014786  0.16681355  0.62419691  1
  Mn  Mn103  1  0.75053362  0.33430408  0.62477260  1
  Mn  Mn104  1  0.75029578  0.33430136  0.87490028  1
  Mn  Mn105  1  0.25031088  0.33418566  0.87404652  1
  Mn  Mn106  1  -0.00047847  -0.00066799  0.49956902  1
  Mn  Mn107  1  0.49975596  -0.00073545  -0.00075733  1
  Mn  Mn108  1  0.24909551  0.33295330  0.37457685  1
  Mn  Mn109  1  0.25056884  0.83239618  0.12496887  1
  Mn  Mn110  1  -0.00077749  -0.00126654  0.24928425  1
  Mn  Mn111  1  0.24997296  0.00109402  0.37359912  1
  Mn  Mn112  1  0.75050268  0.33515555  0.12488650  1
  Mn  Mn113  1  0.75001310  0.66623001  0.12623336  1
  Mn  Mn114  1  -0.00038338  0.33288714  0.75008973  1
  Mn  Mn115  1  0.74966657  0.00018972  0.12507300  1
  Mn  Mn116  1  -0.00017039  0.16771244  0.49908592  1
  Mn  Mn117  1  0.50019111  0.00010766  0.24985783  1
  Mn  Mn118  1  0.24952974  0.66523014  0.62573096  1
  Mn  Mn119  1  0.25013279  0.16586304  0.62438161  1
  Mn  Mn120  1  0.49976486  0.16720123  -0.00091384  1
  Mn  Mn121  1  0.00023910  0.66766896  0.75171117  1
  Mn  Mn122  1  0.25021061  0.83310280  0.37502362  1
  Mn  Mn123  1  0.49993681  0.66697405  0.75017299  1
  Mn  Mn124  1  0.24973205  0.49988783  0.12474942  1
  Mn  Mn125  1  0.50034171  0.83224850  0.25074069  1
  Mn  Mn126  1  0.25012475  0.00040818  0.12453357  1
  Mn  Mn127  1  -0.00019487  0.50064478  0.49978222  1
  Mn  Mn128  1  0.49984186  0.50035007  0.24982225  1
  Mn  Mn129  1  0.75009409  0.83307690  0.12574924  1
  Mn  Mn130  1  0.00021525  -0.00020119  0.74995230  1
  Mn  Mn131  1  0.24962778  0.33419578  0.62396286  1
  Mn  Mn132  1  0.24939338  0.16652556  0.87429796  1
  Mn  Mn133  1  0.74997657  -0.00029182  0.62483355  1
  Mn  Mn134  1  0.49947048  0.83374442  0.74956196  1
  Mn  Mn135  1  -0.00055624  0.50044042  0.75049249  1
  Mn  Mn136  1  0.75124353  0.83201175  0.62458834  1
  Mn  Mn137  1  -0.00095077  0.16706818  0.24897012  1
  Mn  Mn138  1  0.25048169  0.66651406  0.87477520  1
  Mn  Mn139  1  0.24977450  0.83366446  0.62520886  1
  Mn  Mn140  1  0.74951847  0.16768062  0.12564621  1
  Mn  Mn141  1  0.50007867  0.49973336  0.74993130  1
  Mn  Mn142  1  0.49997178  0.49944517  0.00058147  1
  Mn  Mn143  1  0.50027738  0.50035710  0.49916669  1
  Fe  Fe144  1  -0.00000842  0.66721365  0.50037762  1
  Fe  Fe145  1  0.25009175  0.50030428  0.87549694  1
  Fe  Fe146  1  0.75004826  0.66619313  0.62579172  1
  Fe  Fe147  1  0.74990414  0.50074358  0.62546004  1
  Fe  Fe148  1  0.50057272  0.83345113  0.50020644  1
  Fe  Fe149  1  0.50018916  0.66705914  0.50030012  1
  Fe  Fe150  1  0.75017983  0.50064852  0.12593802  1
  Fe  Fe151  1  0.75046426  0.66625411  0.37616124  1
  Fe  Fe152  1  0.50058603  0.16707640  0.49918460  1
  Fe  Fe153  1  -0.00052062  0.83329925  0.75118383  1
  Fe  Fe154  1  0.00004553  0.83245967  0.25020036  1
  Fe  Fe155  1  0.50080517  0.16661248  0.74938200  1
  Fe  Fe156  1  0.74999952  0.00014417  0.37493559  1
  Fe  Fe157  1  -0.00013326  0.49948736  0.00138720  1
  Fe  Fe158  1  -0.00007455  0.83237874  0.00119576  1
  Fe  Fe159  1  -0.00026550  0.16602331  0.00011511  1
  Fe  Fe160  1  0.75007789  0.16712059  0.87496041  1
  Fe  Fe161  1  0.25043918  0.83283623  0.87498134  1
  Fe  Fe162  1  -0.00035920  -0.00101603  -0.00010898  1
  Fe  Fe163  1  0.00016705  0.16647002  0.75043893  1
  Fe  Fe164  1  0.75016194  0.50053508  0.87539354  1
  Fe  Fe165  1  0.24985203  0.49983994  0.62482679  1
  Fe  Fe166  1  0.50047352  0.66664996  0.00047186  1
  Fe  Fe167  1  0.75023480  0.50079522  0.37595920  1
  Fe  Fe168  1  -0.00053685  0.50007550  0.25016241  1
  Fe  Fe169  1  0.00006589  0.33399907  0.49973796  1
  Fe  Fe170  1  0.75054512  0.83307324  0.37578389  1
  Fe  Fe171  1  0.50019860  0.33336339  0.49937651  1
  Fe  Fe172  1  0.50029162  0.33380498  0.24980751  1
  Fe  Fe173  1  0.24923672  0.16676937  0.37445191  1
  Fe  Fe174  1  0.00036325  0.83287584  0.50042501  1
  Fe  Fe175  1  0.75105362  0.66615589  0.87564407  1
  Fe  Fe176  1  0.24924785  0.33313650  0.12478938  1
  Fe  Fe177  1  -0.00061520  0.66634157  0.00155868  1
  Fe  Fe178  1  0.50106735  0.83293020  0.00014478  1
  Fe  Fe179  1  0.24885949  0.16704925  0.12473829  1
  Fe  Fe180  1  0.74983529  0.33464877  0.37485956  1
  Fe  Fe181  1  0.50003367  0.33306188  -0.00074568  1
  Fe  Fe182  1  -0.00028452  0.33296233  -0.00027184  1
  Fe  Fe183  1  0.74985143  0.16723461  0.37470596  1
  Fe  Fe184  1  0.50011549  0.66694485  0.25031624  1
  Fe  Fe185  1  0.50111253  0.00009045  0.74948601  1
  Fe  Fe186  1  -0.00014010  0.33362482  0.24935811  1
  Fe  Fe187  1  0.24979463  -0.00019569  0.62469842  1
  Fe  Fe188  1  0.24994944  0.66612896  0.12476527  1
  Fe  Fe189  1  0.75065474  0.83261274  0.87469849  1
  Fe  Fe190  1  -0.00029098  0.66641989  0.25014319  1
  Fe  Fe191  1  0.24969844  0.49927357  0.37407045  1
  P  P192  1  0.04039745  0.25020435  0.10137785  1
  P  P193  1  0.04180694  0.25164610  0.35179338  1
  P  P194  1  0.04235575  0.25162371  0.60226285  1
  P  P195  1  0.04208350  0.24840958  0.85324716  1
  P  P196  1  0.04086653  0.58286293  0.10301187  1
  P  P197  1  0.04076741  0.58358043  0.35177748  1
  P  P198  1  0.04202127  0.58525814  0.60262808  1
  P  P199  1  0.04212008  0.58306864  0.85510745  1
  P  P200  1  0.04115830  0.91573312  0.10200118  1
  P  P201  1  0.04201025  0.91446395  0.35249731  1
  P  P202  1  0.04197772  0.91554294  0.60282719  1
  P  P203  1  0.04172847  0.91522554  0.85371839  1
  P  P204  1  0.54233584  0.25185461  0.10215537  1
  P  P205  1  0.54202544  0.25184995  0.35270907  1
  P  P206  1  0.54214580  0.24967503  0.60086853  1
  P  P207  1  0.54268626  0.24914136  0.85196242  1
  P  P208  1  0.54238253  0.58459744  0.10300700  1
  P  P209  1  0.54198720  0.58513891  0.35291663  1
  P  P210  1  0.54265311  0.58454030  0.60216715  1
  P  P211  1  0.54242303  0.58341455  0.85399963  1
  P  P212  1  0.54310561  0.91522934  0.10234219  1
  P  P213  1  0.54266459  0.91650260  0.35386287  1
  P  P214  1  0.54272306  0.91612690  0.60258802  1
  P  P215  1  0.54267412  0.91740320  0.85230089  1
  P  P216  1  0.45697554  0.08334608  0.14629110  1
  P  P217  1  0.45789713  0.08514031  0.39718992  1
  P  P218  1  0.45929926  0.08374632  0.64766651  1
  P  P219  1  0.45747204  0.08309751  0.89537023  1
  P  P220  1  0.45781617  0.41531742  0.14707891  1
  P  P221  1  0.45814498  0.41541631  0.39665104  1
  P  P222  1  0.45768129  0.41629157  0.64555735  1
  P  P223  1  0.45745476  0.41506424  0.89725424  1
  P  P224  1  0.45821317  0.74835325  0.14703386  1
  P  P225  1  0.45857779  0.74978719  0.39860550  1
  P  P226  1  0.45727789  0.75011683  0.64589697  1
  P  P227  1  0.45893216  0.75011366  0.89874311  1
  P  P228  1  0.95665286  0.08264880  0.14563401  1
  P  P229  1  0.95702276  0.08318589  0.39632351  1
  P  P230  1  0.95770430  0.08497941  0.64771463  1
  P  P231  1  0.95875610  0.08270890  0.89828568  1
  P  P232  1  0.95850959  0.41695939  0.14796356  1
  P  P233  1  0.95798673  0.41579152  0.39672188  1
  P  P234  1  0.95692985  0.41708374  0.64672427  1
  P  P235  1  0.95852042  0.41676518  0.89907948  1
  P  P236  1  0.95812239  0.74945650  0.14860982  1
  P  P237  1  0.95897395  0.74971078  0.39807954  1
  P  P238  1  0.95773808  0.75174650  0.64806657  1
  P  P239  1  0.95865420  0.74981561  0.89958189  1
  P  P240  1  0.20681618  0.08473593  0.22702315  1
  P  P241  1  0.20730909  0.08434044  0.47715362  1
  P  P242  1  0.20734272  0.08126058  0.72721816  1
  P  P243  1  0.20682417  0.08392299  0.97854325  1
  P  P244  1  0.20715116  0.41521269  0.22703544  1
  P  P245  1  0.20703968  0.41834138  0.47699535  1
  P  P246  1  0.20740457  0.41831193  0.72749973  1
  P  P247  1  0.20774647  0.41779139  0.97766308  1
  P  P248  1  0.20758192  0.74756283  0.22740066  1
  P  P249  1  0.20712848  0.74977958  0.47837149  1
  P  P250  1  0.20720500  0.74970712  0.72876786  1
  P  P251  1  0.20831542  0.75062283  0.97782949  1
  P  P252  1  0.70717858  0.08355880  0.22925698  1
  P  P253  1  0.70855414  0.08359975  0.47605709  1
  P  P254  1  0.70781620  0.08355777  0.72832048  1
  P  P255  1  0.70768324  0.08482692  0.97718083  1
  P  P256  1  0.70836017  0.41887045  0.22875960  1
  P  P257  1  0.70858618  0.41771449  0.47699909  1
  P  P258  1  0.70785774  0.41869256  0.72770104  1
  P  P259  1  0.70798910  0.41893266  0.97792517  1
  P  P260  1  0.70789140  0.74988457  0.22988200  1
  P  P261  1  0.70943645  0.74944649  0.47731582  1
  P  P262  1  0.70859370  0.74838669  0.72838585  1
  P  P263  1  0.70955571  0.74962417  0.97665552  1
  P  P264  1  0.29062291  0.25038240  0.02303635  1
  P  P265  1  0.29133015  0.24849724  0.27139144  1
  P  P266  1  0.29229109  0.25001979  0.52081322  1
  P  P267  1  0.29274149  0.24986234  0.77105890  1
  P  P268  1  0.29238499  0.58446444  0.02228894  1
  P  P269  1  0.29196366  0.58155018  0.27198894  1
  P  P270  1  0.29205396  0.58128526  0.52209054  1
  P  P271  1  0.29269953  0.58126386  0.77241653  1
  P  P272  1  0.29294903  0.91618323  0.02146053  1
  P  P273  1  0.29315338  0.91635734  0.27153951  1
  P  P274  1  0.29237698  0.91831172  0.52226058  1
  P  P275  1  0.29225329  0.91539645  0.77225559  1
  P  P276  1  0.79237341  0.25059400  0.02160606  1
  P  P277  1  0.79118364  0.25102908  0.27363190  1
  P  P278  1  0.79232698  0.25070909  0.52054056  1
  P  P279  1  0.79266917  0.24949653  0.77272838  1
  P  P280  1  0.79239517  0.58223131  0.02299494  1
  P  P281  1  0.79169341  0.58334161  0.27431636  1
  P  P282  1  0.79150373  0.58351704  0.52345269  1
  P  P283  1  0.79203010  0.58317308  0.77358857  1
  P  P284  1  0.79227272  0.91620849  0.02162673  1
  P  P285  1  0.79152208  0.91651941  0.27404971  1
  P  P286  1  0.79276671  0.91653035  0.52090495  1
  P  P287  1  0.79278981  0.91501521  0.77275953  1
  O  O288  1  0.03568329  0.25066499  0.18130657  1
  O  O289  1  0.03677443  0.25189535  0.43173887  1
  O  O290  1  0.03721303  0.25073059  0.68219109  1
  O  O291  1  0.03661648  0.24855929  0.93307924  1
  O  O292  1  0.03578566  0.58330226  0.18288887  1
  O  O293  1  0.03628083  0.58357941  0.43171739  1
  O  O294  1  0.03701376  0.58496208  0.68257040  1
  O  O295  1  0.03680445  0.58258945  0.93497444  1
  O  O296  1  0.03611090  0.91514342  0.18195396  1
  O  O297  1  0.03687695  0.91454997  0.43246731  1
  O  O298  1  0.03683720  0.91583284  0.68277626  1
  O  O299  1  0.03626114  0.91584277  0.93354998  1
  O  O300  1  0.53719246  0.25208260  0.18213238  1
  O  O301  1  0.53683000  0.25135801  0.43259130  1
  O  O302  1  0.53720853  0.24886909  0.68085447  1
  O  O303  1  0.53746199  0.24996561  0.93188777  1
  O  O304  1  0.53704319  0.58470338  0.18295456  1
  O  O305  1  0.53664381  0.58505035  0.43281712  1
  O  O306  1  0.53751155  0.58399446  0.68213663  1
  O  O307  1  0.53702894  0.58371121  0.93394652  1
  O  O308  1  0.53781537  0.91536264  0.18231334  1
  O  O309  1  0.53742675  0.91628135  0.43380646  1
  O  O310  1  0.53741065  0.91683394  0.68255239  1
  O  O311  1  0.53765016  0.91669278  0.93224389  1
  O  O312  1  0.46202703  0.08320901  0.06634417  1
  O  O313  1  0.46278182  0.08490643  0.31723855  1
  O  O314  1  0.46451727  0.08413372  0.56770189  1
  O  O315  1  0.46323748  0.08307238  0.81549132  1
  O  O316  1  0.46309575  0.41529647  0.06713853  1
  O  O317  1  0.46337754  0.41548916  0.31669896  1
  O  O318  1  0.46312657  0.41622348  0.56563772  1
  O  O319  1  0.46248816  0.41554242  0.81726326  1
  O  O320  1  0.46385188  0.74862192  0.06720100  1
  O  O321  1  0.46359029  0.74924436  0.31859475  1
  O  O322  1  0.46260160  0.75030354  0.56601350  1
  O  O323  1  0.46344918  0.75020363  0.81871770  1
  O  O324  1  0.96219324  0.08232561  0.06574400  1
  O  O325  1  0.96187594  0.08298177  0.31634381  1
  O  O326  1  0.96273145  0.08480428  0.56775402  1
  O  O327  1  0.96385612  0.08344850  0.81831426  1
  O  O328  1  0.96360667  0.41771804  0.06811555  1
  O  O329  1  0.96333047  0.41583905  0.31685857  1
  O  O330  1  0.96212370  0.41698784  0.56677745  1
  O  O331  1  0.96308558  0.41656059  0.81910243  1
  O  O332  1  0.96316116  0.74919661  0.06874231  1
  O  O333  1  0.96400149  0.74969347  0.31821034  1
  O  O334  1  0.96309045  0.75147907  0.56823297  1
  O  O335  1  0.96320434  0.75012463  0.81965655  1
  O  O336  1  0.21213013  0.08452325  0.05846777  1
  O  O337  1  0.21180946  0.08507613  0.30702876  1
  O  O338  1  0.21278971  0.08321609  0.55707918  1
  O  O339  1  0.21220459  0.08147655  0.80721820  1
  O  O340  1  0.21301850  0.41674639  0.05758648  1
  O  O341  1  0.21214623  0.41564539  0.30696736  1
  O  O342  1  0.21231718  0.41849984  0.55692437  1
  O  O343  1  0.21285638  0.41831865  0.80744629  1
  O  O344  1  0.21356002  0.74970170  0.05775417  1
  O  O345  1  0.21249013  0.74767983  0.30737497  1
  O  O346  1  0.21226589  0.74967761  0.55831544  1
  O  O347  1  0.21273812  0.75020782  0.80870158  1
  O  O348  1  0.71245479  0.08451252  0.05722777  1
  O  O349  1  0.71275640  0.08367421  0.30914893  1
  O  O350  1  0.71326241  0.08326322  0.55608555  1
  O  O351  1  0.71315346  0.08427467  0.80825096  1
  O  O352  1  0.71318124  0.41891735  0.05789282  1
  O  O353  1  0.71365631  0.41851111  0.30863391  1
  O  O354  1  0.71333641  0.41754675  0.55694433  1
  O  O355  1  0.71311878  0.41856422  0.80763815  1
  O  O356  1  0.71379108  0.74947445  0.05669282  1
  O  O357  1  0.71330463  0.74998513  0.30972392  1
  O  O358  1  0.71423441  0.74861383  0.55726436  1
  O  O359  1  0.71409587  0.74905542  0.80823814  1
  O  O360  1  0.28562435  0.24883945  0.19151243  1
  O  O361  1  0.28674517  0.24956690  0.44088259  1
  O  O362  1  0.28774174  0.24996362  0.69110455  1
  O  O363  1  0.28591015  0.25063473  0.94302566  1
  O  O364  1  0.28681524  0.58260054  0.19205918  1
  O  O365  1  0.28677107  0.58123125  0.44212731  1
  O  O366  1  0.28736431  0.58127548  0.69247270  1
  O  O367  1  0.28757892  0.58391094  0.94233072  1
  O  O368  1  0.28811683  0.91626024  0.19158203  1
  O  O369  1  0.28749193  0.91816698  0.44226450  1
  O  O370  1  0.28677970  0.91632762  0.69231992  1
  O  O371  1  0.28769803  0.91555204  0.94151295  1
  O  O372  1  0.78637620  0.25154424  0.19362971  1
  O  O373  1  0.78677878  0.25078597  0.44066998  1
  O  O374  1  0.78766349  0.24991751  0.69271749  1
  O  O375  1  0.78719480  0.25008243  0.94165949  1
  O  O376  1  0.78710687  0.58351198  0.19437494  1
  O  O377  1  0.78613877  0.58342569  0.44359011  1
  O  O378  1  0.78703081  0.58376283  0.69372315  1
  O  O379  1  0.78742945  0.58227698  0.94314118  1
  O  O380  1  0.78666399  0.91667655  0.19403130  1
  O  O381  1  0.78722850  0.91653326  0.44103188  1
  O  O382  1  0.78786723  0.91505223  0.69276071  1
  O  O383  1  0.78710091  0.91555348  0.94168542  1
  O  O384  1  0.22633692  0.25027601  0.05859967  1
  O  O385  1  0.22721614  0.24820810  0.30767314  1
  O  O386  1  0.22808722  0.24996494  0.55639380  1
  O  O387  1  0.22827154  0.25039813  0.80595901  1
  O  O388  1  0.22797125  0.58459866  0.05761957  1
  O  O389  1  0.22757442  0.58107336  0.30743722  1
  O  O390  1  0.22774075  0.58114997  0.55777664  1
  O  O391  1  0.22840779  0.58166447  0.80810606  1
  O  O392  1  0.22859391  0.91625173  0.05671010  1
  O  O393  1  0.22861597  0.91652922  0.30627628  1
  O  O394  1  0.22795359  0.91846781  0.55750968  1
  O  O395  1  0.22806296  0.91427330  0.80826688  1
  O  O396  1  0.72810626  0.25139024  0.05705430  1
  O  O397  1  0.72704159  0.25027769  0.30935769  1
  O  O398  1  0.72819027  0.25077533  0.55648535  1
  O  O399  1  0.72827067  0.24969452  0.80796003  1
  O  O400  1  0.72813629  0.58198886  0.05889195  1
  O  O401  1  0.72746270  0.58286066  0.30998983  1
  O  O402  1  0.72752076  0.58372460  0.56009240  1
  O  O403  1  0.72794729  0.58294532  0.80981567  1
  O  O404  1  0.72794791  0.91624354  0.05697242  1
  O  O405  1  0.72739449  0.91572971  0.30982165  1
  O  O406  1  0.72863834  0.91592657  0.55685730  1
  O  O407  1  0.72841754  0.91529576  0.80795917  1
  O  O408  1  0.27123046  0.08499432  0.19178248  1
  O  O409  1  0.27156304  0.08529554  0.44128747  1
  O  O410  1  0.27180529  0.08114683  0.69200825  1
  O  O411  1  0.27112650  0.08341323  0.94315762  1
  O  O412  1  0.27146926  0.41501717  0.19155251  1
  O  O413  1  0.27131731  0.41789992  0.44127370  1
  O  O414  1  0.27165105  0.41827782  0.69161065  1
  O  O415  1  0.27203322  0.41831921  0.94191395  1
  O  O416  1  0.27205157  0.74727213  0.19227009  1
  O  O417  1  0.27155893  0.74932094  0.44332348  1
  O  O418  1  0.27142980  0.74936642  0.69324570  1
  O  O419  1  0.27251264  0.75121878  0.94189257  1
  O  O420  1  0.77136894  0.08368107  0.19343144  1
  O  O421  1  0.77273700  0.08442937  0.44041145  1
  O  O422  1  0.77211849  0.08332749  0.69292314  1
  O  O423  1  0.77210198  0.08477930  0.94197177  1
  O  O424  1  0.77256370  0.41924625  0.19273156  1
  O  O425  1  0.77275523  0.41822260  0.44114523  1
  O  O426  1  0.77214578  0.41892366  0.69201413  1
  O  O427  1  0.77228055  0.41881627  0.94226099  1
  O  O428  1  0.77213412  0.74975214  0.19420586  1
  O  O429  1  0.77355405  0.75015204  0.44139644  1
  O  O430  1  0.77274844  0.74765534  0.69226894  1
  O  O431  1  0.77385994  0.74999921  0.94138224  1
  O  O432  1  0.02087439  0.08283429  0.18142015  1
  O  O433  1  0.02141264  0.08324720  0.43142289  1
  O  O434  1  0.02206202  0.08484457  0.68325822  1
  O  O435  1  0.02272374  0.08187738  0.93461470  1
  O  O436  1  0.02256388  0.41639434  0.18425515  1
  O  O437  1  0.02206342  0.41578547  0.43310473  1
  O  O438  1  0.02126016  0.41697788  0.68212288  1
  O  O439  1  0.02276287  0.41702021  0.93472721  1
  O  O440  1  0.02231530  0.74973789  0.18471028  1
  O  O441  1  0.02295167  0.74952918  0.43465332  1
  O  O442  1  0.02191262  0.75210442  0.68426994  1
  O  O443  1  0.02277856  0.74962118  0.93550575  1
  O  O444  1  0.52140992  0.08391886  0.18138435  1
  O  O445  1  0.52232615  0.08502459  0.43248637  1
  O  O446  1  0.52338716  0.08390485  0.68399848  1
  O  O447  1  0.52162342  0.08330176  0.93134775  1
  O  O448  1  0.52206824  0.41571296  0.18292085  1
  O  O449  1  0.52236209  0.41572436  0.43248114  1
  O  O450  1  0.52195304  0.41637638  0.68113394  1
  O  O451  1  0.52183768  0.41498510  0.93274838  1
  O  O452  1  0.52236802  0.74809228  0.18330643  1
  O  O453  1  0.52278906  0.74990846  0.43463372  1
  O  O454  1  0.52156384  0.75029686  0.68149274  1
  O  O455  1  0.52326997  0.75018237  0.93431630  1
  O  O456  1  0.47795776  0.25172252  0.06656922  1
  O  O457  1  0.47782535  0.25228791  0.31661980  1
  O  O458  1  0.47792171  0.24977599  0.56496112  1
  O  O459  1  0.47842548  0.24816839  0.81616364  1
  O  O460  1  0.47817269  0.58452559  0.06714168  1
  O  O461  1  0.47782582  0.58505816  0.31684949  1
  O  O462  1  0.47829772  0.58465920  0.56670620  1
  O  O463  1  0.47815553  0.58319988  0.81839982  1
  O  O464  1  0.47875067  0.91449468  0.06677332  1
  O  O465  1  0.47841525  0.91635543  0.31826876  1
  O  O466  1  0.47849456  0.91582494  0.56680608  1
  O  O467  1  0.47840062  0.91837489  0.81659911  1
  O  O468  1  0.97632178  0.25018745  0.06548430  1
  O  O469  1  0.97746961  0.25190079  0.31613314  1
  O  O470  1  0.97806630  0.25221853  0.56641537  1
  O  O471  1  0.97792241  0.24812567  0.81701375  1
  O  O472  1  0.97685773  0.58222302  0.06663360  1
  O  O473  1  0.97656114  0.58384925  0.31605077  1
  O  O474  1  0.97769465  0.58527151  0.56705092  1
  O  O475  1  0.97790788  0.58365514  0.81923316  1
  O  O476  1  0.97703671  0.91609217  0.06597301  1
  O  O477  1  0.97765514  0.91420583  0.31688764  1
  O  O478  1  0.97773371  0.91510897  0.56700744  1
  O  O479  1  0.97767959  0.91548211  0.81726624  1
  O  O480  1  0.07152832  0.31359505  0.07269005  1
  O  O481  1  0.07301283  0.31471158  0.32278272  1
  O  O482  1  0.07310146  0.31537747  0.57409791  1
  O  O483  1  0.07311706  0.31214963  0.82521748  1
  O  O484  1  0.07114394  0.64681288  0.07413819  1
  O  O485  1  0.07213170  0.64682914  0.32332373  1
  O  O486  1  0.07270513  0.64885778  0.57420182  1
  O  O487  1  0.07357366  0.64651002  0.82706712  1
  O  O488  1  0.07220114  0.97937981  0.07400950  1
  O  O489  1  0.07276799  0.97832767  0.32446682  1
  O  O490  1  0.07258369  0.97949015  0.57469509  1
  O  O491  1  0.07337896  0.97837191  0.82517451  1
  O  O492  1  0.57318345  0.31522725  0.07332481  1
  O  O493  1  0.57312305  0.31530016  0.32422043  1
  O  O494  1  0.57272395  0.31380376  0.57319651  1
  O  O495  1  0.57352146  0.31277229  0.82355852  1
  O  O496  1  0.57350125  0.64780034  0.07412907  1
  O  O497  1  0.57305654  0.64847100  0.32450007  1
  O  O498  1  0.57335808  0.64822322  0.57394884  1
  O  O499  1  0.57365783  0.64674612  0.82568533  1
  O  O500  1  0.57375789  0.97911174  0.07452324  1
  O  O501  1  0.57347421  0.98023758  0.32578020  1
  O  O502  1  0.57410781  0.97952611  0.57450757  1
  O  O503  1  0.57377418  0.98083963  0.82387703  1
  O  O504  1  0.42637892  0.01965223  0.17461940  1
  O  O505  1  0.42669310  0.02161901  0.42518384  1
  O  O506  1  0.42893825  0.01958335  0.67559306  1
  O  O507  1  0.42618220  0.01975782  0.92382430  1
  O  O508  1  0.42698147  0.35198849  0.17585894  1
  O  O509  1  0.42732658  0.35204242  0.42544744  1
  O  O510  1  0.42642436  0.35282104  0.67355186  1
  O  O511  1  0.42684624  0.35127177  0.92534739  1
  O  O512  1  0.42717152  0.68501258  0.17585740  1
  O  O513  1  0.42753430  0.68626721  0.42695224  1
  O  O514  1  0.42621082  0.68665661  0.67449236  1
  O  O515  1  0.42818874  0.68633195  0.92683844  1
  O  O516  1  0.92544225  0.01932917  0.17427416  1
  O  O517  1  0.92611976  0.01967084  0.42464883  1
  O  O518  1  0.92658534  0.02126946  0.67544277  1
  O  O519  1  0.92726902  0.01908657  0.92569906  1
  O  O520  1  0.92710448  0.35339431  0.17580501  1
  O  O521  1  0.92711407  0.35246286  0.42566325  1
  O  O522  1  0.92556512  0.35389983  0.67524884  1
  O  O523  1  0.92823088  0.35263749  0.92723706  1
  O  O524  1  0.92739858  0.68577600  0.17734990  1
  O  O525  1  0.92807417  0.68599914  0.42660371  1
  O  O526  1  0.92684190  0.68803223  0.67640091  1
  O  O527  1  0.92814620  0.68586512  0.92796172  1
  O  O528  1  0.17615885  0.02063132  0.19955783  1
  O  O529  1  0.17634975  0.02088120  0.44862479  1
  O  O530  1  0.17670473  0.01767319  0.69874923  1
  O  O531  1  0.17569695  0.02021604  0.95097553  1
  O  O532  1  0.17652773  0.35160404  0.19844459  1
  O  O533  1  0.17577962  0.35466861  0.44944109  1
  O  O534  1  0.17643989  0.35448200  0.69976510  1
  O  O535  1  0.17659595  0.35449588  0.94914514  1
  O  O536  1  0.17673159  0.68418987  0.19866871  1
  O  O537  1  0.17575828  0.68645436  0.45034326  1
  O  O538  1  0.17605461  0.68595656  0.70124692  1
  O  O539  1  0.17717328  0.68716307  0.94969556  1
  O  O540  1  0.67611291  0.02005127  0.20090384  1
  O  O541  1  0.67849455  0.01940532  0.44792386  1
  O  O542  1  0.67690121  0.01971659  0.70065671  1
  O  O543  1  0.67655325  0.02120025  0.94943991  1
  O  O544  1  0.67734397  0.35533052  0.20035992  1
  O  O545  1  0.67843055  0.35377904  0.44817133  1
  O  O546  1  0.67702859  0.35484750  0.69980940  1
  O  O547  1  0.67696890  0.35522059  0.95003439  1
  O  O548  1  0.67670796  0.68652659  0.20130959  1
  O  O549  1  0.67898958  0.68572378  0.44850252  1
  O  O550  1  0.67726981  0.68506593  0.70005147  1
  O  O551  1  0.67935009  0.68561077  0.94832966  1
  O  O552  1  0.32125952  0.31415222  0.05139308  1
  O  O553  1  0.32244712  0.31215149  0.29935227  1
  O  O554  1  0.32317140  0.31382402  0.54845242  1
  O  O555  1  0.32412691  0.31314211  0.79920657  1
  O  O556  1  0.32285133  0.64813650  0.05087442  1
  O  O557  1  0.32320880  0.64469784  0.30076056  1
  O  O558  1  0.32281721  0.64515268  0.54996599  1
  O  O559  1  0.32401371  0.64496227  0.79997392  1
  O  O560  1  0.32385015  0.97999564  0.04909719  1
  O  O561  1  0.32423005  0.97991092  0.29942900  1
  O  O562  1  0.32305552  0.98189749  0.55075654  1
  O  O563  1  0.32302555  0.97902929  0.80046697  1
  O  O564  1  0.82369207  0.31413526  0.04945350  1
  O  O565  1  0.82131657  0.31510709  0.30197031  1
  O  O566  1  0.82359346  0.31398722  0.54913254  1
  O  O567  1  0.82394631  0.31307943  0.80046341  1
  O  O568  1  0.82330643  0.64590059  0.05126483  1
  O  O569  1  0.82184725  0.64733034  0.30308907  1
  O  O570  1  0.82266735  0.64699689  0.55171511  1
  O  O571  1  0.82270820  0.64673728  0.80279880  1
  O  O572  1  0.82299688  0.98007416  0.04941856  1
  O  O573  1  0.82163814  0.98071583  0.30208838  1
  O  O574  1  0.82356519  0.98019311  0.54929523  1
  O  O575  1  0.82413974  0.97854606  0.80038658  1
  O  O576  1  0.42570584  0.14678733  0.17406020  1
  O  O577  1  0.42745512  0.14875208  0.42573243  1
  O  O578  1  0.42803625  0.14707882  0.67582140  1
  O  O579  1  0.42606953  0.14641203  0.92370473  1
  O  O580  1  0.42669475  0.47907034  0.17467823  1
  O  O581  1  0.42692142  0.47912244  0.42410537  1
  O  O582  1  0.42666504  0.47973316  0.67383833  1
  O  O583  1  0.42644018  0.47849446  0.92549440  1
  O  O584  1  0.42706580  0.81186353  0.17519567  1
  O  O585  1  0.42805585  0.81379590  0.42637589  1
  O  O586  1  0.42592343  0.81331259  0.67449594  1
  O  O587  1  0.42836087  0.81389974  0.92682569  1
  O  O588  1  0.92542507  0.14611336  0.17376321  1
  O  O589  1  0.92606030  0.14675898  0.42409526  1
  O  O590  1  0.92717143  0.14853711  0.67626815  1
  O  O591  1  0.92839682  0.14649034  0.92701118  1
  O  O592  1  0.92807921  0.48055031  0.17728063  1
  O  O593  1  0.92686056  0.47948064  0.42451471  1
  O  O594  1  0.92614537  0.48077292  0.67485830  1
  O  O595  1  0.92737687  0.48006907  0.92731614  1
  O  O596  1  0.92704371  0.81293741  0.17692200  1
  O  O597  1  0.92811580  0.81319977  0.42666144  1
  O  O598  1  0.92672240  0.81499255  0.67694831  1
  O  O599  1  0.92760746  0.81315944  0.92804851  1
  O  O600  1  0.07087778  0.18622184  0.07338326  1
  O  O601  1  0.07236100  0.18761359  0.32411336  1
  O  O602  1  0.07337474  0.18818401  0.57389483  1
  O  O603  1  0.07300199  0.18506632  0.82443122  1
  O  O604  1  0.07244103  0.51957516  0.07505044  1
  O  O605  1  0.07096074  0.51957972  0.32322016  1
  O  O606  1  0.07306231  0.52175756  0.57457436  1
  O  O607  1  0.07300606  0.51979588  0.82605480  1
  O  O608  1  0.07193911  0.85205372  0.07368672  1
  O  O609  1  0.07308409  0.85124445  0.32383781  1
  O  O610  1  0.07317690  0.85236621  0.57433276  1
  O  O611  1  0.07215603  0.85141911  0.82540924  1
  O  O612  1  0.57329324  0.18805085  0.07455354  1
  O  O613  1  0.57293908  0.18834581  0.32425013  1
  O  O614  1  0.57317316  0.18636346  0.57213705  1
  O  O615  1  0.57379138  0.18574547  0.82382513  1
  O  O616  1  0.57331697  0.52072068  0.07560442  1
  O  O617  1  0.57288687  0.52134585  0.32518633  1
  O  O618  1  0.57375983  0.52110469  0.57408549  1
  O  O619  1  0.57338913  0.51979520  0.82604172  1
  O  O620  1  0.57417274  0.85184341  0.07401646  1
  O  O621  1  0.57403039  0.85325504  0.32575047  1
  O  O622  1  0.57342259  0.85241093  0.57445947  1
  O  O623  1  0.57338903  0.85369370  0.82418288  1
  O  O624  1  0.32148259  0.18667676  0.05102024  1
  O  O625  1  0.32244190  0.18522713  0.30012456  1
  O  O626  1  0.32382203  0.18694103  0.54926794  1
  O  O627  1  0.32322581  0.18608811  0.79929586  1
  O  O628  1  0.32357387  0.52104984  0.05054897  1
  O  O629  1  0.32254689  0.51761222  0.29988125  1
  O  O630  1  0.32314822  0.51803800  0.55066236  1
  O  O631  1  0.32333639  0.51791185  0.80141604  1
  O  O632  1  0.32430746  0.85309020  0.05012066  1
  O  O633  1  0.32396394  0.85277876  0.29987736  1
  O  O634  1  0.32327260  0.85459328  0.55011912  1
  O  O635  1  0.32346075  0.85184092  0.80019469  1
  O  O636  1  0.82323198  0.18725607  0.05034993  1
  O  O637  1  0.82261945  0.18752344  0.30117906  1
  O  O638  1  0.82358309  0.18726118  0.54881573  1
  O  O639  1  0.82303927  0.18577338  0.80131945  1
  O  O640  1  0.82326381  0.51898903  0.05223053  1
  O  O641  1  0.82308237  0.52012608  0.30262255  1
  O  O642  1  0.82219315  0.51976041  0.55185385  1
  O  O643  1  0.82310073  0.51964510  0.80195604  1
  O  O644  1  0.82365306  0.85317679  0.05052240  1
  O  O645  1  0.82304587  0.85321527  0.30206879  1
  O  O646  1  0.82444045  0.85339847  0.54923286  1
  O  O647  1  0.82319072  0.85135711  0.80150057  1
  O  O648  1  0.17564946  0.14776504  0.19787969  1
  O  O649  1  0.17626597  0.14798272  0.44927892  1
  O  O650  1  0.17646548  0.14499769  0.69932297  1
  O  O651  1  0.17579295  0.14714546  0.94974196  1
  O  O652  1  0.17597461  0.47866215  0.19891541  1
  O  O653  1  0.17638054  0.48168954  0.44788715  1
  O  O654  1  0.17642964  0.48162391  0.69883717  1
  O  O655  1  0.17712131  0.48168730  0.94980658  1
  O  O656  1  0.17682944  0.81141963  0.19959936  1
  O  O657  1  0.17656575  0.81351005  0.45016380  1
  O  O658  1  0.17591618  0.81286368  0.70021162  1
  O  O659  1  0.17746713  0.81427239  0.94973201  1
  O  O660  1  0.67586168  0.14692612  0.20086424  1
  O  O661  1  0.67713653  0.14698012  0.44814601  1
  O  O662  1  0.67654257  0.14663998  0.69941952  1
  O  O663  1  0.67726482  0.14857629  0.94870176  1
  O  O664  1  0.67734789  0.48227722  0.20012589  1
  O  O665  1  0.67714647  0.48104257  0.44891109  1
  O  O666  1  0.67684437  0.48194861  0.69891984  1
  O  O667  1  0.67706744  0.48220360  0.94916647  1
  O  O668  1  0.67665742  0.81312506  0.20111511  1
  O  O669  1  0.67820787  0.81306200  0.44961748  1
  O  O670  1  0.67774287  0.81195449  0.69971484  1
  O  O671  1  0.67851751  0.81306917  0.94822433  1
