# generated using pymatgen
data_Na2MnFe(PO4)2
_symmetry_space_group_name_H-M   'P 1'
_cell_length_a   22.34273576
_cell_length_b   20.09385864
_cell_length_c   19.45086580
_cell_angle_alpha   90.02625847
_cell_angle_beta   90.00281030
_cell_angle_gamma   89.92041823
_symmetry_Int_Tables_number   1
_chemical_formula_structural   Na2MnFe(PO4)2
_chemical_formula_sum   'Na96 Mn48 Fe48 P96 O384'
_cell_volume   8732.49135131
_cell_formula_units_Z   48
loop_
 _symmetry_equiv_pos_site_id
 _symmetry_equiv_pos_as_xyz
  1  'x, y, z'
loop_
 _atom_site_type_symbol
 _atom_site_label
 _atom_site_symmetry_multiplicity
 _atom_site_fract_x
 _atom_site_fract_y
 _atom_site_fract_z
 _atom_site_occupancy
  Na  Na0  1  0.14003718  0.24998357  0.24334311  1
  Na  Na1  1  0.14024402  0.25001985  0.49304123  1
  Na  Na2  1  0.13933016  0.25092619  0.74372956  1
  Na  Na3  1  0.13938264  0.25084023  0.99323320  1
  Na  Na4  1  0.13965346  0.58361184  0.24221694  1
  Na  Na5  1  0.14026179  0.58159133  0.49274977  1
  Na  Na6  1  0.14000101  0.58258961  0.74339161  1
  Na  Na7  1  0.13993888  0.58224718  0.99182632  1
  Na  Na8  1  0.14018757  0.91873257  0.24327853  1
  Na  Na9  1  0.14047306  0.91610355  0.49343126  1
  Na  Na10  1  0.14005378  0.91668099  0.74449633  1
  Na  Na11  1  0.13998520  0.91594680  0.99443477  1
  Na  Na12  1  0.64095232  0.25073480  0.24491278  1
  Na  Na13  1  0.64126082  0.25037081  0.49451530  1
  Na  Na14  1  0.64059615  0.24892583  0.74411130  1
  Na  Na15  1  0.64012906  0.24880641  0.99321460  1
  Na  Na16  1  0.64042384  0.58491431  0.24462890  1
  Na  Na17  1  0.64107694  0.58358120  0.49378002  1
  Na  Na18  1  0.64079485  0.58431489  0.74309363  1
  Na  Na19  1  0.64065777  0.58266090  0.99337555  1
  Na  Na20  1  0.64034643  0.91757660  0.24505077  1
  Na  Na21  1  0.64014480  0.91613199  0.49461431  1
  Na  Na22  1  0.64079934  0.91615622  0.74243068  1
  Na  Na23  1  0.64067766  0.91508798  0.99377094  1
  Na  Na24  1  0.35931506  0.08316106  0.00661980  1
  Na  Na25  1  0.35904398  0.08405593  0.25698552  1
  Na  Na26  1  0.35902833  0.08258860  0.50601720  1
  Na  Na27  1  0.35976749  0.08369665  0.75629577  1
  Na  Na28  1  0.35931775  0.41547184  0.00576962  1
  Na  Na29  1  0.35889906  0.41597458  0.25560393  1
  Na  Na30  1  0.35926856  0.41604732  0.50480617  1
  Na  Na31  1  0.35926489  0.41663167  0.75658396  1
  Na  Na32  1  0.35948819  0.74897608  0.00473311  1
  Na  Na33  1  0.35927193  0.75098381  0.25637754  1
  Na  Na34  1  0.35953089  0.74976991  0.50592538  1
  Na  Na35  1  0.35978670  0.74960128  0.75616962  1
  Na  Na36  1  0.86012175  0.08215542  0.00731821  1
  Na  Na37  1  0.86015835  0.08438646  0.25703787  1
  Na  Na38  1  0.85970478  0.08340791  0.50682105  1
  Na  Na39  1  0.85987294  0.08396175  0.75770196  1
  Na  Na40  1  0.86041698  0.41633690  0.00605786  1
  Na  Na41  1  0.85981870  0.41867629  0.25758849  1
  Na  Na42  1  0.86039049  0.41797142  0.50672983  1
  Na  Na43  1  0.86041511  0.41720300  0.75700056  1
  Na  Na44  1  0.85986144  0.74881694  0.00596696  1
  Na  Na45  1  0.85986785  0.75035088  0.25670480  1
  Na  Na46  1  0.85958834  0.75053686  0.50662092  1
  Na  Na47  1  0.86006292  0.75037596  0.75646295  1
  Na  Na48  1  0.10919179  0.08492587  0.11925343  1
  Na  Na49  1  0.10964490  0.08396255  0.36737963  1
  Na  Na50  1  0.10916650  0.08513734  0.61868249  1
  Na  Na51  1  0.10911110  0.08473738  0.87011161  1
  Na  Na52  1  0.10904722  0.41670398  0.11705779  1
  Na  Na53  1  0.10931803  0.41600851  0.36786497  1
  Na  Na54  1  0.10991998  0.41617817  0.61908080  1
  Na  Na55  1  0.10960127  0.41655126  0.86769500  1
  Na  Na56  1  0.10947779  0.74972506  0.11796405  1
  Na  Na57  1  0.10956170  0.74942127  0.36728013  1
  Na  Na58  1  0.10997640  0.74884000  0.61847179  1
  Na  Na59  1  0.10932041  0.74809522  0.86813447  1
  Na  Na60  1  0.60937387  0.08317022  0.11959248  1
  Na  Na61  1  0.61007928  0.08239059  0.37019286  1
  Na  Na62  1  0.60981406  0.08172367  0.61955187  1
  Na  Na63  1  0.60937937  0.08179178  0.86789330  1
  Na  Na64  1  0.60975135  0.41629028  0.11949106  1
  Na  Na65  1  0.61037684  0.41740261  0.36844844  1
  Na  Na66  1  0.61013510  0.41617660  0.61898777  1
  Na  Na67  1  0.60959661  0.41494154  0.86829420  1
  Na  Na68  1  0.61006954  0.74995866  0.11950921  1
  Na  Na69  1  0.60983463  0.75141925  0.36920306  1
  Na  Na70  1  0.61026220  0.75093740  0.61886788  1
  Na  Na71  1  0.61009443  0.74995520  0.86714530  1
  Na  Na72  1  0.38952829  0.24969828  0.13156792  1
  Na  Na73  1  0.38967930  0.24905034  0.38130666  1
  Na  Na74  1  0.39006568  0.24942121  0.63079610  1
  Na  Na75  1  0.39011863  0.24926654  0.88109680  1
  Na  Na76  1  0.39022528  0.58321398  0.13002220  1
  Na  Na77  1  0.39004487  0.58493652  0.38068081  1
  Na  Na78  1  0.39057703  0.58405292  0.63152462  1
  Na  Na79  1  0.39006980  0.58285511  0.88090530  1
  Na  Na80  1  0.39009874  0.91558554  0.13172891  1
  Na  Na81  1  0.39008832  0.91725359  0.38146412  1
  Na  Na82  1  0.39035795  0.91601718  0.63146343  1
  Na  Na83  1  0.39043066  0.91614575  0.87970791  1
  Na  Na84  1  0.89048953  0.25070809  0.13121357  1
  Na  Na85  1  0.89074160  0.25122730  0.38216685  1
  Na  Na86  1  0.89080975  0.25228282  0.63206822  1
  Na  Na87  1  0.89088061  0.25074558  0.88190387  1
  Na  Na88  1  0.89094868  0.58358284  0.13058356  1
  Na  Na89  1  0.89013299  0.58290594  0.38146239  1
  Na  Na90  1  0.89089479  0.58281020  0.63126618  1
  Na  Na91  1  0.89047315  0.58286428  0.88095734  1
  Na  Na92  1  0.89065551  0.91704815  0.13219160  1
  Na  Na93  1  0.89042942  0.91755993  0.38150077  1
  Na  Na94  1  0.89025174  0.91690175  0.63304058  1
  Na  Na95  1  0.89047068  0.91698963  0.88220291  1
  Mn  Mn96  1  0.50015455  0.33298959  0.50014396  1
  Mn  Mn97  1  0.50030914  0.66651977  -0.00060128  1
  Mn  Mn98  1  0.25061450  0.49890605  0.62406703  1
  Mn  Mn99  1  0.24962274  0.83339233  0.37484065  1
  Mn  Mn100  1  -0.00070029  0.16810610  0.49978437  1
  Mn  Mn101  1  -0.00063656  0.33404445  0.24941227  1
  Mn  Mn102  1  0.24989242  0.49918142  0.12383099  1
  Mn  Mn103  1  0.49950173  0.33201675  0.74942138  1
  Mn  Mn104  1  0.00087324  0.83256385  0.75130435  1
  Mn  Mn105  1  0.50074170  0.66816324  0.50082226  1
  Mn  Mn106  1  0.24902092  -0.00043495  0.62493472  1
  Mn  Mn107  1  0.75056417  0.66729784  0.12508014  1
  Mn  Mn108  1  0.25034433  0.66650444  0.62433488  1
  Mn  Mn109  1  0.75017685  0.16595138  0.87478071  1
  Mn  Mn110  1  0.75025591  0.16720811  0.37629568  1
  Mn  Mn111  1  0.00015986  0.83329902  0.49996739  1
  Mn  Mn112  1  0.49879770  0.16635943  -0.00008994  1
  Mn  Mn113  1  0.00025868  0.66534312  0.49902126  1
  Mn  Mn114  1  0.00013446  0.83363239  0.24937596  1
  Mn  Mn115  1  0.00046893  0.00132756  0.75125534  1
  Mn  Mn116  1  0.75046635  0.83298151  0.87450709  1
  Mn  Mn117  1  0.75009855  0.50013743  0.62509287  1
  Mn  Mn118  1  0.75029475  0.16656563  0.12540774  1
  Mn  Mn119  1  0.24963211  0.49961276  0.37394859  1
  Mn  Mn120  1  -0.00007079  0.00092248  0.50066642  1
  Mn  Mn121  1  0.24987295  -0.00023779  0.87557650  1
  Mn  Mn122  1  0.75000174  0.33358491  0.12552914  1
  Mn  Mn123  1  0.75096709  0.16682112  0.62558405  1
  Mn  Mn124  1  0.49980821  0.33308563  0.25011403  1
  Mn  Mn125  1  0.24965915  0.16749892  0.62510056  1
  Mn  Mn126  1  0.49956637  0.49986671  0.74998366  1
  Mn  Mn127  1  0.75045017  0.83389239  0.37620044  1
  Mn  Mn128  1  0.49993083  0.83299294  -0.00018263  1
  Mn  Mn129  1  0.75013302  0.49975023  0.87439360  1
  Mn  Mn130  1  0.50066590  0.16548094  0.25049412  1
  Mn  Mn131  1  0.50065942  0.16513027  0.50074188  1
  Mn  Mn132  1  0.50091388  0.49908391  0.00028082  1
  Mn  Mn133  1  0.25000408  0.66699806  0.12390842  1
  Mn  Mn134  1  0.24913885  0.16772361  0.87531606  1
  Mn  Mn135  1  0.74993736  0.50016640  0.12519099  1
  Mn  Mn136  1  0.74959188  -0.00080194  0.12578570  1
  Mn  Mn137  1  0.49940729  0.50102844  0.24916163  1
  Mn  Mn138  1  0.50022264  0.50079103  0.49974433  1
  Mn  Mn139  1  0.50018802  0.83355191  0.25024081  1
  Mn  Mn140  1  0.49999958  -0.00061677  -0.00072467  1
  Mn  Mn141  1  -0.00020905  0.83305939  0.00066616  1
  Mn  Mn142  1  0.25014578  0.83245352  0.87459206  1
  Mn  Mn143  1  0.24981535  0.00053157  0.12501646  1
  Fe  Fe144  1  0.75027537  0.83330455  0.12529259  1
  Fe  Fe145  1  0.00006981  0.33392107  -0.00059610  1
  Fe  Fe146  1  0.49971316  -0.00068575  0.74949975  1
  Fe  Fe147  1  0.49992370  0.66740213  0.25024865  1
  Fe  Fe148  1  -0.00057094  0.16748483  0.00021674  1
  Fe  Fe149  1  0.75060792  0.33430979  0.37542102  1
  Fe  Fe150  1  0.75011001  0.50084870  0.37617827  1
  Fe  Fe151  1  0.00014042  0.33396933  0.75049784  1
  Fe  Fe152  1  0.75062596  0.83353897  0.62517376  1
  Fe  Fe153  1  0.00025751  0.33431742  0.50059474  1
  Fe  Fe154  1  -0.00015460  0.66555359  0.74982372  1
  Fe  Fe155  1  -0.00003203  0.50035580  0.24885765  1
  Fe  Fe156  1  0.75043571  0.33302195  0.87513496  1
  Fe  Fe157  1  -0.00012907  0.66604511  0.24920447  1
  Fe  Fe158  1  0.00066532  0.49947464  0.50029795  1
  Fe  Fe159  1  0.75065992  0.66703636  0.62464977  1
  Fe  Fe160  1  0.24928999  0.66619619  0.87450602  1
  Fe  Fe161  1  0.49943916  -0.00050717  0.50079490  1
  Fe  Fe162  1  0.50023344  0.83338944  0.74922580  1
  Fe  Fe163  1  0.24956813  0.16742442  0.12565936  1
  Fe  Fe164  1  0.00010277  0.50032621  -0.00066678  1
  Fe  Fe165  1  0.00011517  0.00101991  0.00101669  1
  Fe  Fe166  1  0.75006533  0.66686099  0.87453842  1
  Fe  Fe167  1  0.75039723  0.33383424  0.62509719  1
  Fe  Fe168  1  0.25005147  0.33316574  0.62453528  1
  Fe  Fe169  1  0.50000463  0.33239429  -0.00020012  1
  Fe  Fe170  1  0.24906073  0.33279911  0.12493113  1
  Fe  Fe171  1  0.50008560  0.16565134  0.75019635  1
  Fe  Fe172  1  0.24967801  0.49927777  0.87415101  1
  Fe  Fe173  1  0.00024838  0.49958672  0.75006041  1
  Fe  Fe174  1  0.50058562  0.66695020  0.74985807  1
  Fe  Fe175  1  0.24945078  0.33281269  0.37438334  1
  Fe  Fe176  1  0.75046295  -0.00073250  0.87542962  1
  Fe  Fe177  1  -0.00033862  0.16773707  0.75064145  1
  Fe  Fe178  1  0.74956326  0.66733922  0.37547268  1
  Fe  Fe179  1  0.75049919  -0.00010553  0.37598514  1
  Fe  Fe180  1  0.49941773  0.83389651  0.50013576  1
  Fe  Fe181  1  0.24968596  0.83263779  0.62458670  1
  Fe  Fe182  1  -0.00019575  0.00089485  0.25023243  1
  Fe  Fe183  1  0.24937426  0.83336034  0.12489088  1
  Fe  Fe184  1  0.24964578  0.16707327  0.37486800  1
  Fe  Fe185  1  0.75053801  -0.00001386  0.62549529  1
  Fe  Fe186  1  -0.00023556  0.16751900  0.24945307  1
  Fe  Fe187  1  0.24988132  0.00027822  0.37469888  1
  Fe  Fe188  1  0.00014738  0.66579967  -0.00059453  1
  Fe  Fe189  1  0.24937280  0.66678657  0.37419267  1
  Fe  Fe190  1  0.49972564  -0.00038832  0.25059353  1
  Fe  Fe191  1  0.25034675  0.33316252  0.87505319  1
  P  P192  1  0.04058860  0.25049839  0.10147037  1
  P  P193  1  0.04174931  0.24970147  0.35196552  1
  P  P194  1  0.04206247  0.25207159  0.60311836  1
  P  P195  1  0.04100836  0.25051281  0.85252596  1
  P  P196  1  0.04178417  0.58317736  0.10141292  1
  P  P197  1  0.04130697  0.58238167  0.35101884  1
  P  P198  1  0.04263102  0.58142324  0.60271325  1
  P  P199  1  0.04117955  0.58242538  0.85191036  1
  P  P200  1  0.04173301  0.91859412  0.10318879  1
  P  P201  1  0.04220669  0.91803656  0.35216502  1
  P  P202  1  0.04287590  0.91690123  0.60368403  1
  P  P203  1  0.04267421  0.91737438  0.85471420  1
  P  P204  1  0.54222981  0.25040090  0.10237271  1
  P  P205  1  0.54309451  0.24930499  0.35354034  1
  P  P206  1  0.54314754  0.24879330  0.60386232  1
  P  P207  1  0.54211472  0.24820407  0.85270833  1
  P  P208  1  0.54323394  0.58378091  0.10346437  1
  P  P209  1  0.54217695  0.58539645  0.35249461  1
  P  P210  1  0.54314402  0.58406979  0.60387077  1
  P  P211  1  0.54260016  0.58397978  0.85198770  1
  P  P212  1  0.54280879  0.91661458  0.10341894  1
  P  P213  1  0.54203503  0.91798462  0.35373266  1
  P  P214  1  0.54102314  0.91634981  0.60248103  1
  P  P215  1  0.54182322  0.91609794  0.85069737  1
  P  P216  1  0.45716990  0.08165422  0.14800025  1
  P  P217  1  0.45775957  0.08123203  0.39786181  1
  P  P218  1  0.45846273  0.08246415  0.64825877  1
  P  P219  1  0.45671296  0.08265095  0.89573182  1
  P  P220  1  0.45691170  0.41609320  0.14613894  1
  P  P221  1  0.45733370  0.41703131  0.39660207  1
  P  P222  1  0.45678909  0.41647372  0.64664573  1
  P  P223  1  0.45783143  0.41481078  0.89757622  1
  P  P224  1  0.45733015  0.74888392  0.14768526  1
  P  P225  1  0.45779050  0.75170700  0.39749621  1
  P  P226  1  0.45863455  0.75047096  0.64817631  1
  P  P227  1  0.45769304  0.74996875  0.89540369  1
  P  P228  1  0.95852532  0.08400142  0.14794598  1
  P  P229  1  0.95726501  0.08388382  0.39633042  1
  P  P230  1  0.95760636  0.08574601  0.64846154  1
  P  P231  1  0.95857350  0.08432147  0.89891255  1
  P  P232  1  0.95754428  0.41862767  0.14645789  1
  P  P233  1  0.95895758  0.41728302  0.39826158  1
  P  P234  1  0.95882833  0.41705902  0.64827888  1
  P  P235  1  0.95906684  0.41729361  0.89752613  1
  P  P236  1  0.95806907  0.74829348  0.14701049  1
  P  P237  1  0.95745241  0.74954732  0.39617253  1
  P  P238  1  0.95861225  0.74848986  0.64789999  1
  P  P239  1  0.95807591  0.74811822  0.89742201  1
  P  P240  1  0.20779374  0.08530708  0.22818815  1
  P  P241  1  0.20810117  0.08340075  0.47620878  1
  P  P242  1  0.20676261  0.08378501  0.72814546  1
  P  P243  1  0.20718986  0.08398732  0.97905205  1
  P  P244  1  0.20715999  0.41507322  0.22696705  1
  P  P245  1  0.20758413  0.41490081  0.47676319  1
  P  P246  1  0.20826106  0.41525429  0.72770999  1
  P  P247  1  0.20831301  0.41601032  0.97613493  1
  P  P248  1  0.20737199  0.75137907  0.22720553  1
  P  P249  1  0.20720975  0.74855654  0.47710061  1
  P  P250  1  0.20771490  0.75031890  0.72736197  1
  P  P251  1  0.20713075  0.74851041  0.97716414  1
  P  P252  1  0.70745388  0.08357074  0.22928551  1
  P  P253  1  0.70846903  0.08165546  0.47880703  1
  P  P254  1  0.70858301  0.08183090  0.72799911  1
  P  P255  1  0.70763931  0.08133565  0.97740019  1
  P  P256  1  0.70759983  0.41738059  0.22962126  1
  P  P257  1  0.70895301  0.41675711  0.47736647  1
  P  P258  1  0.70816969  0.41524952  0.72786802  1
  P  P259  1  0.70778470  0.41531720  0.97707257  1
  P  P260  1  0.70817318  0.75162567  0.22812930  1
  P  P261  1  0.70812822  0.74914200  0.47858451  1
  P  P262  1  0.70937540  0.74998231  0.72653689  1
  P  P263  1  0.70785623  0.74885532  0.97724305  1
  P  P264  1  0.29078364  0.25031303  0.02331774  1
  P  P265  1  0.29101959  0.24992669  0.27265138  1
  P  P266  1  0.29186897  0.25104834  0.52145047  1
  P  P267  1  0.29203132  0.25162135  0.77222729  1
  P  P268  1  0.29224552  0.58268161  0.02018740  1
  P  P269  1  0.29169445  0.58456082  0.27175355  1
  P  P270  1  0.29300296  0.58301962  0.52085872  1
  P  P271  1  0.29109340  0.58308057  0.77304392  1
  P  P272  1  0.29214715  0.91505594  0.02275000  1
  P  P273  1  0.29179820  0.91811136  0.27227495  1
  P  P274  1  0.29176021  0.91519446  0.52230050  1
  P  P275  1  0.29232349  0.91618627  0.77129219  1
  P  P276  1  0.79262787  0.24986521  0.02152583  1
  P  P277  1  0.79282136  0.25162126  0.27347986  1
  P  P278  1  0.79262945  0.25191035  0.52265173  1
  P  P279  1  0.79251674  0.25138009  0.77249224  1
  P  P280  1  0.79288272  0.58329657  0.02138590  1
  P  P281  1  0.79114606  0.58414780  0.27412031  1
  P  P282  1  0.79231086  0.58472803  0.52209565  1
  P  P283  1  0.79212856  0.58501588  0.77181856  1
  P  P284  1  0.79262261  0.91494758  0.02270546  1
  P  P285  1  0.79253267  0.91780497  0.27303506  1
  P  P286  1  0.79193432  0.91703429  0.52381520  1
  P  P287  1  0.79268310  0.91796923  0.77222577  1
  O  O288  1  0.03597240  0.25056470  0.18140449  1
  O  O289  1  0.03676702  0.25036567  0.43183261  1
  O  O290  1  0.03692363  0.25181917  0.68297843  1
  O  O291  1  0.03592724  0.25072581  0.93236560  1
  O  O292  1  0.03661149  0.58323280  0.18130705  1
  O  O293  1  0.03689919  0.58225917  0.43097379  1
  O  O294  1  0.03731966  0.58167178  0.68254387  1
  O  O295  1  0.03609805  0.58284633  0.93178690  1
  O  O296  1  0.03616218  0.91877507  0.18311983  1
  O  O297  1  0.03739759  0.91759481  0.43219604  1
  O  O298  1  0.03798618  0.91685781  0.68371394  1
  O  O299  1  0.03710926  0.91769711  0.93464340  1
  O  O300  1  0.53747345  0.25005377  0.18237257  1
  O  O301  1  0.53818006  0.24924663  0.43352473  1
  O  O302  1  0.53784072  0.24822264  0.68380753  1
  O  O303  1  0.53655871  0.24908361  0.93265096  1
  O  O304  1  0.53770241  0.58456290  0.18339457  1
  O  O305  1  0.53730882  0.58513016  0.43250858  1
  O  O306  1  0.53784483  0.58438609  0.68380883  1
  O  O307  1  0.53791148  0.58362295  0.93200263  1
  O  O308  1  0.53783457  0.91699367  0.18337870  1
  O  O309  1  0.53642899  0.91754212  0.43358192  1
  O  O310  1  0.53588551  0.91628370  0.68235921  1
  O  O311  1  0.53739897  0.91622440  0.93071028  1
  O  O312  1  0.46191452  0.08220391  0.06798084  1
  O  O313  1  0.46277018  0.08119753  0.31792639  1
  O  O314  1  0.46342535  0.08184129  0.56831240  1
  O  O315  1  0.46188989  0.08290998  0.81582973  1
  O  O316  1  0.46249856  0.41532941  0.06620233  1
  O  O317  1  0.46224236  0.41714067  0.31659374  1
  O  O318  1  0.46197804  0.41669212  0.56671029  1
  O  O319  1  0.46270000  0.41510520  0.81757802  1
  O  O320  1  0.46215809  0.74918216  0.06769349  1
  O  O321  1  0.46296067  0.75094847  0.31757274  1
  O  O322  1  0.46340055  0.75102143  0.56819493  1
  O  O323  1  0.46312508  0.75004040  0.81550398  1
  O  O324  1  0.96379952  0.08348433  0.06806763  1
  O  O325  1  0.96246056  0.08362706  0.31642121  1
  O  O326  1  0.96262013  0.08539436  0.56850185  1
  O  O327  1  0.96353512  0.08502654  0.81895374  1
  O  O328  1  0.96285312  0.41858777  0.06663831  1
  O  O329  1  0.96358359  0.41737083  0.31832429  1
  O  O330  1  0.96373689  0.41668342  0.56841942  1
  O  O331  1  0.96416030  0.41709548  0.81767004  1
  O  O332  1  0.96329774  0.74802052  0.06706770  1
  O  O333  1  0.96253144  0.74968030  0.31621206  1
  O  O334  1  0.96337907  0.74867855  0.56790968  1
  O  O335  1  0.96362468  0.74809639  0.81750816  1
  O  O336  1  0.21268800  0.08466267  0.05897468  1
  O  O337  1  0.21316230  0.08530822  0.30806145  1
  O  O338  1  0.21306224  0.08348525  0.55620031  1
  O  O339  1  0.21179390  0.08380004  0.80811040  1
  O  O340  1  0.21269785  0.41608041  0.05610038  1
  O  O341  1  0.21241318  0.41507792  0.30687720  1
  O  O342  1  0.21297503  0.41495965  0.55667347  1
  O  O343  1  0.21376842  0.41569206  0.80755983  1
  O  O344  1  0.21215928  0.74922442  0.05708734  1
  O  O345  1  0.21240307  0.75062424  0.30715688  1
  O  O346  1  0.21248151  0.74911201  0.55703375  1
  O  O347  1  0.21288701  0.74940001  0.80729852  1
  O  O348  1  0.71253714  0.08183017  0.05739728  1
  O  O349  1  0.71285927  0.08348174  0.30921136  1
  O  O350  1  0.71424883  0.08157619  0.55871426  1
  O  O351  1  0.71370293  0.08158719  0.80792977  1
  O  O352  1  0.71258417  0.41596198  0.05708110  1
  O  O353  1  0.71287671  0.41736727  0.30953961  1
  O  O354  1  0.71374655  0.41661936  0.55738571  1
  O  O355  1  0.71352324  0.41504640  0.80778218  1
  O  O356  1  0.71296328  0.74968789  0.05716696  1
  O  O357  1  0.71324908  0.75124711  0.30807243  1
  O  O358  1  0.71366928  0.74909341  0.55841087  1
  O  O359  1  0.71389889  0.74992790  0.80652561  1
  O  O360  1  0.28566444  0.24970365  0.19275863  1
  O  O361  1  0.28635192  0.25037708  0.44158332  1
  O  O362  1  0.28702729  0.25168318  0.69228160  1
  O  O363  1  0.28594887  0.25077783  0.94334656  1
  O  O364  1  0.28661011  0.58429910  0.19179092  1
  O  O365  1  0.28763600  0.58353939  0.44094973  1
  O  O366  1  0.28671031  0.58266544  0.69301390  1
  O  O367  1  0.28685107  0.58271192  0.94030076  1
  O  O368  1  0.28662469  0.91758857  0.19240484  1
  O  O369  1  0.28661989  0.91580349  0.44239087  1
  O  O370  1  0.28681784  0.91566383  0.69141310  1
  O  O371  1  0.28708351  0.91524707  0.94278922  1
  O  O372  1  0.78758614  0.25101908  0.19349031  1
  O  O373  1  0.78704982  0.25191909  0.44275610  1
  O  O374  1  0.78730841  0.25159577  0.69253054  1
  O  O375  1  0.78733766  0.25000017  0.94156124  1
  O  O376  1  0.78649531  0.58367337  0.19412788  1
  O  O377  1  0.78669840  0.58458861  0.44225420  1
  O  O378  1  0.78679086  0.58496759  0.69189209  1
  O  O379  1  0.78772567  0.58355187  0.94144736  1
  O  O380  1  0.78710150  0.91674818  0.19315774  1
  O  O381  1  0.78723743  0.91721390  0.44383450  1
  O  O382  1  0.78762690  0.91803753  0.69233842  1
  O  O383  1  0.78774660  0.91551915  0.94272928  1
  O  O384  1  0.22649842  0.24993410  0.05906159  1
  O  O385  1  0.22696250  0.24993361  0.30904146  1
  O  O386  1  0.22774222  0.25174129  0.55772568  1
  O  O387  1  0.22764800  0.25219714  0.80771500  1
  O  O388  1  0.22803207  0.58292915  0.05593836  1
  O  O389  1  0.22735867  0.58449726  0.30727730  1
  O  O390  1  0.22870480  0.58283424  0.55626294  1
  O  O391  1  0.22681275  0.58349571  0.80856268  1
  O  O392  1  0.22778003  0.91549111  0.05820609  1
  O  O393  1  0.22758207  0.91837309  0.30814023  1
  O  O394  1  0.22745684  0.91470321  0.55796032  1
  O  O395  1  0.22809858  0.91645663  0.80694025  1
  O  O396  1  0.72832663  0.24975125  0.05700472  1
  O  O397  1  0.72854470  0.25205577  0.30910201  1
  O  O398  1  0.72850934  0.25159655  0.55874951  1
  O  O399  1  0.72826702  0.25106729  0.80819829  1
  O  O400  1  0.72856569  0.58372427  0.05675751  1
  O  O401  1  0.72699320  0.58444911  0.30993872  1
  O  O402  1  0.72824173  0.58488587  0.55836757  1
  O  O403  1  0.72798184  0.58486980  0.80782674  1
  O  O404  1  0.72819968  0.91466584  0.05809170  1
  O  O405  1  0.72837829  0.91836407  0.30912267  1
  O  O406  1  0.72769190  0.91709859  0.55947615  1
  O  O407  1  0.72840409  0.91798565  0.80803597  1
  O  O408  1  0.27188900  0.08529667  0.19200696  1
  O  O409  1  0.27227980  0.08315112  0.44032355  1
  O  O410  1  0.27113383  0.08351166  0.69299017  1
  O  O411  1  0.27139868  0.08402937  0.94338487  1
  O  O412  1  0.27143968  0.41464917  0.19126542  1
  O  O413  1  0.27174428  0.41496104  0.44079492  1
  O  O414  1  0.27235429  0.41450135  0.69134986  1
  O  O415  1  0.27257931  0.41555983  0.94054124  1
  O  O416  1  0.27171316  0.75171240  0.19166578  1
  O  O417  1  0.27150184  0.74824237  0.44143236  1
  O  O418  1  0.27200603  0.75101107  0.69164819  1
  O  O419  1  0.27147125  0.74749214  0.94164292  1
  O  O420  1  0.77175432  0.08322548  0.19373947  1
  O  O421  1  0.77252538  0.08196520  0.44254906  1
  O  O422  1  0.77286793  0.08197996  0.69236493  1
  O  O423  1  0.77212752  0.08129384  0.94223550  1
  O  O424  1  0.77187413  0.41717228  0.19391115  1
  O  O425  1  0.77315858  0.41663470  0.44158858  1
  O  O426  1  0.77242692  0.41549731  0.69206501  1
  O  O427  1  0.77224846  0.41553696  0.94189361  1
  O  O428  1  0.77245542  0.75178930  0.19234546  1
  O  O429  1  0.77220360  0.74884830  0.44229847  1
  O  O430  1  0.77358048  0.74995786  0.69085531  1
  O  O431  1  0.77220830  0.74838403  0.94163542  1
  O  O432  1  0.02249294  0.08455387  0.18454674  1
  O  O433  1  0.02154239  0.08423755  0.43193665  1
  O  O434  1  0.02199823  0.08609177  0.68384438  1
  O  O435  1  0.02267668  0.08405979  0.93489539  1
  O  O436  1  0.02175451  0.41858194  0.18248594  1
  O  O437  1  0.02317513  0.41729250  0.43413594  1
  O  O438  1  0.02293092  0.41742691  0.68447723  1
  O  O439  1  0.02303409  0.41765717  0.93399748  1
  O  O440  1  0.02224926  0.74861799  0.18282922  1
  O  O441  1  0.02184002  0.74960064  0.43142653  1
  O  O442  1  0.02288225  0.74854050  0.68336297  1
  O  O443  1  0.02218741  0.74838387  0.93349573  1
  O  O444  1  0.52169599  0.08093535  0.18313111  1
  O  O445  1  0.52210665  0.08077635  0.43338352  1
  O  O446  1  0.52259317  0.08336411  0.68426484  1
  O  O447  1  0.52103100  0.08308722  0.93125305  1
  O  O448  1  0.52121480  0.41663273  0.18157526  1
  O  O449  1  0.52183116  0.41693130  0.43152460  1
  O  O450  1  0.52121922  0.41620571  0.68163107  1
  O  O451  1  0.52223577  0.41425912  0.93290694  1
  O  O452  1  0.52179021  0.74864812  0.18294517  1
  O  O453  1  0.52205849  0.75267628  0.43324721  1
  O  O454  1  0.52293142  0.75031789  0.68390658  1
  O  O455  1  0.52199436  0.75012780  0.93101903  1
  O  O456  1  0.47770118  0.25111778  0.06727277  1
  O  O457  1  0.47859808  0.24897221  0.31867849  1
  O  O458  1  0.47877595  0.24885651  0.56861985  1
  O  O459  1  0.47790485  0.24731162  0.81676769  1
  O  O460  1  0.47893869  0.58316713  0.06802908  1
  O  O461  1  0.47778486  0.58574133  0.31710004  1
  O  O462  1  0.47880665  0.58413459  0.56857154  1
  O  O463  1  0.47810301  0.58445034  0.81699643  1
  O  O464  1  0.47834093  0.91640228  0.06830769  1
  O  O465  1  0.47795498  0.91817298  0.31731577  1
  O  O466  1  0.47698680  0.91627262  0.56600533  1
  O  O467  1  0.47747265  0.91535379  0.81543672  1
  O  O468  1  0.97649306  0.25082446  0.06564278  1
  O  O469  1  0.97748003  0.24929034  0.31620197  1
  O  O470  1  0.97783394  0.25249652  0.56718136  1
  O  O471  1  0.97703545  0.25004448  0.81608763  1
  O  O472  1  0.97767791  0.58302794  0.06509488  1
  O  O473  1  0.97703564  0.58201254  0.31530993  1
  O  O474  1  0.97843786  0.58106626  0.56660809  1
  O  O475  1  0.97720944  0.58183107  0.81543537  1
  O  O476  1  0.97764207  0.91837384  0.06712148  1
  O  O477  1  0.97783884  0.91784041  0.31693549  1
  O  O478  1  0.97834827  0.91697538  0.56880848  1
  O  O479  1  0.97852437  0.91707486  0.81895598  1
  O  O480  1  0.07124045  0.31421440  0.07291437  1
  O  O481  1  0.07262966  0.31316034  0.32354358  1
  O  O482  1  0.07287967  0.31536590  0.57403815  1
  O  O483  1  0.07135964  0.31438013  0.82387279  1
  O  O484  1  0.07258991  0.64677487  0.07293331  1
  O  O485  1  0.07116614  0.64658239  0.32244452  1
  O  O486  1  0.07360371  0.64492492  0.57429318  1
  O  O487  1  0.07138134  0.64628264  0.82301541  1
  O  O488  1  0.07275014  0.98192463  0.07484611  1
  O  O489  1  0.07249306  0.98184553  0.32381420  1
  O  O490  1  0.07372964  0.98052821  0.57570816  1
  O  O491  1  0.07389170  0.98067061  0.82647701  1
  O  O492  1  0.57321098  0.31371168  0.07388733  1
  O  O493  1  0.57384523  0.31283045  0.32535449  1
  O  O494  1  0.57390996  0.31256615  0.57601002  1
  O  O495  1  0.57300300  0.31173835  0.82450910  1
  O  O496  1  0.57439982  0.64688295  0.07477213  1
  O  O497  1  0.57280538  0.64908703  0.32438396  1
  O  O498  1  0.57441257  0.64727089  0.57549981  1
  O  O499  1  0.57334936  0.64744567  0.82343335  1
  O  O500  1  0.57388048  0.97976127  0.07462048  1
  O  O501  1  0.57299115  0.98127096  0.32505301  1
  O  O502  1  0.57184919  0.98002105  0.57427319  1
  O  O503  1  0.57162298  0.98022475  0.82212665  1
  O  O504  1  0.42626406  0.01833749  0.17643036  1
  O  O505  1  0.42657096  0.01826473  0.42691464  1
  O  O506  1  0.42826785  0.01849986  0.67673747  1
  O  O507  1  0.42601147  0.01898433  0.92404597  1
  O  O508  1  0.42572872  0.35298913  0.17485988  1
  O  O509  1  0.42646640  0.35343174  0.42458372  1
  O  O510  1  0.42559255  0.35308988  0.67454197  1
  O  O511  1  0.42698226  0.35132709  0.92583200  1
  O  O512  1  0.42661996  0.68541931  0.17615865  1
  O  O513  1  0.42708882  0.68814458  0.42586961  1
  O  O514  1  0.42817154  0.68649444  0.67617690  1
  O  O515  1  0.42661587  0.68656933  0.92376463  1
  O  O516  1  0.92791261  0.02035336  0.17666296  1
  O  O517  1  0.92634554  0.02056610  0.42528115  1
  O  O518  1  0.92691128  0.02202678  0.67647160  1
  O  O519  1  0.92775402  0.02052100  0.92676151  1
  O  O520  1  0.92645826  0.35509073  0.17462445  1
  O  O521  1  0.92861364  0.35343195  0.42678736  1
  O  O522  1  0.92835929  0.35349708  0.67747997  1
  O  O523  1  0.92867863  0.35344471  0.92619244  1
  O  O524  1  0.92742989  0.68488094  0.17589524  1
  O  O525  1  0.92646478  0.68614920  0.42441995  1
  O  O526  1  0.92839746  0.68455336  0.67624665  1
  O  O527  1  0.92724686  0.68467543  0.92576381  1
  O  O528  1  0.17660709  0.02173532  0.20026677  1
  O  O529  1  0.17734717  0.01964542  0.44818653  1
  O  O530  1  0.17549703  0.02050488  0.70001736  1
  O  O531  1  0.17648252  0.02007378  0.95151622  1
  O  O532  1  0.17597141  0.35193345  0.19818756  1
  O  O533  1  0.17665020  0.35163857  0.44805870  1
  O  O534  1  0.17690823  0.35212872  0.69914084  1
  O  O535  1  0.17701126  0.35273686  0.94782747  1
  O  O536  1  0.17616861  0.68809608  0.19882287  1
  O  O537  1  0.17662245  0.68488484  0.44854641  1
  O  O538  1  0.17679775  0.68680477  0.69903852  1
  O  O539  1  0.17612838  0.68511159  0.94861884  1
  O  O540  1  0.67596070  0.02047521  0.20097245  1
  O  O541  1  0.67777613  0.01823150  0.45013605  1
  O  O542  1  0.67761856  0.01867362  0.69901665  1
  O  O543  1  0.67718472  0.01759172  0.94909938  1
  O  O544  1  0.67636793  0.35403940  0.20112976  1
  O  O545  1  0.67769038  0.35353645  0.44896688  1
  O  O546  1  0.67727703  0.35201327  0.69902600  1
  O  O547  1  0.67757464  0.35141709  0.94885812  1
  O  O548  1  0.67705238  0.68819662  0.19999760  1
  O  O549  1  0.67693915  0.68607726  0.44951355  1
  O  O550  1  0.67814983  0.68675646  0.69819267  1
  O  O551  1  0.67727622  0.68521395  0.94874884  1
  O  O552  1  0.32136184  0.31390268  0.05201504  1
  O  O553  1  0.32196778  0.31358319  0.30080457  1
  O  O554  1  0.32313447  0.31426936  0.54986643  1
  O  O555  1  0.32338017  0.31450704  0.80126544  1
  O  O556  1  0.32372153  0.64585929  0.04862973  1
  O  O557  1  0.32209984  0.64824895  0.30021469  1
  O  O558  1  0.32429882  0.64612271  0.54964401  1
  O  O559  1  0.32201177  0.64671530  0.80088666  1
  O  O560  1  0.32350019  0.97850362  0.05043218  1
  O  O561  1  0.32230047  0.98179950  0.30082640  1
  O  O562  1  0.32273055  0.97875886  0.55042481  1
  O  O563  1  0.32328214  0.97983221  0.79921877  1
  O  O564  1  0.82381218  0.31315321  0.04982447  1
  O  O565  1  0.82377191  0.31521428  0.30140895  1
  O  O566  1  0.82341375  0.31531517  0.55125794  1
  O  O567  1  0.82327126  0.31469446  0.80146884  1
  O  O568  1  0.82437786  0.64629678  0.05001251  1
  O  O569  1  0.82208027  0.64789040  0.30169799  1
  O  O570  1  0.82346446  0.64797237  0.55076566  1
  O  O571  1  0.82289053  0.64834081  0.80056554  1
  O  O572  1  0.82367711  0.97832346  0.05115208  1
  O  O573  1  0.82323505  0.98154482  0.30102748  1
  O  O574  1  0.82327647  0.98018957  0.55227167  1
  O  O575  1  0.82351157  0.98115488  0.80156656  1
  O  O576  1  0.42674160  0.14566007  0.17610583  1
  O  O577  1  0.42707092  0.14521583  0.42574527  1
  O  O578  1  0.42703043  0.14596244  0.67608894  1
  O  O579  1  0.42508394  0.14569634  0.92460163  1
  O  O580  1  0.42567639  0.47985206  0.17368862  1
  O  O581  1  0.42637006  0.48068173  0.42456339  1
  O  O582  1  0.42586717  0.48005636  0.67498496  1
  O  O583  1  0.42716845  0.47876481  0.92529829  1
  O  O584  1  0.42649612  0.81260742  0.17577200  1
  O  O585  1  0.42662677  0.81520446  0.42571564  1
  O  O586  1  0.42756767  0.81388854  0.67665247  1
  O  O587  1  0.42638639  0.81326105  0.92416923  1
  O  O588  1  0.92730439  0.14774422  0.17580750  1
  O  O589  1  0.92583441  0.14724843  0.42461687  1
  O  O590  1  0.92672073  0.14932857  0.67669212  1
  O  O591  1  0.92769583  0.14789685  0.92759881  1
  O  O592  1  0.92662994  0.48192897  0.17566276  1
  O  O593  1  0.92795646  0.48072339  0.42688788  1
  O  O594  1  0.92746250  0.48049851  0.67656404  1
  O  O595  1  0.92754102  0.48061369  0.92575588  1
  O  O596  1  0.92676463  0.81205544  0.17440238  1
  O  O597  1  0.92638682  0.81305827  0.42468752  1
  O  O598  1  0.92721451  0.81188405  0.67593454  1
  O  O599  1  0.92676964  0.81183264  0.92506133  1
  O  O600  1  0.07150226  0.18689121  0.07314951  1
  O  O601  1  0.07253159  0.18609319  0.32346419  1
  O  O602  1  0.07312207  0.18847754  0.57472853  1
  O  O603  1  0.07245512  0.18716599  0.82414195  1
  O  O604  1  0.07287112  0.51963647  0.07286516  1
  O  O605  1  0.07279770  0.51924506  0.32240428  1
  O  O606  1  0.07369985  0.51806753  0.57381230  1
  O  O607  1  0.07282417  0.51911492  0.82388434  1
  O  O608  1  0.07287357  0.85467427  0.07583564  1
  O  O609  1  0.07365637  0.85464675  0.32412714  1
  O  O610  1  0.07378532  0.85340194  0.57523391  1
  O  O611  1  0.07394556  0.85372777  0.82692271  1
  O  O612  1  0.57275467  0.18642344  0.07436924  1
  O  O613  1  0.57427011  0.18576722  0.32549640  1
  O  O614  1  0.57459333  0.18560017  0.57544672  1
  O  O615  1  0.57328589  0.18464669  0.82470575  1
  O  O616  1  0.57445625  0.52004365  0.07574517  1
  O  O617  1  0.57306457  0.52167629  0.32461523  1
  O  O618  1  0.57413140  0.52037917  0.57577157  1
  O  O619  1  0.57342626  0.52010222  0.82426018  1
  O  O620  1  0.57365054  0.85285630  0.07522418  1
  O  O621  1  0.57331816  0.85440929  0.32555361  1
  O  O622  1  0.57201879  0.85277507  0.57398043  1
  O  O623  1  0.57339317  0.85290654  0.82237754  1
  O  O624  1  0.32182861  0.18663422  0.05134704  1
  O  O625  1  0.32212742  0.18647115  0.30130428  1
  O  O626  1  0.32273809  0.18727400  0.54979280  1
  O  O627  1  0.32246936  0.18752078  0.80009091  1
  O  O628  1  0.32328509  0.51916815  0.04869762  1
  O  O629  1  0.32292330  0.52086061  0.29922362  1
  O  O630  1  0.32405219  0.51935670  0.54880156  1
  O  O631  1  0.32144144  0.51912637  0.80149334  1
  O  O632  1  0.32234411  0.85111200  0.05111147  1
  O  O633  1  0.32314643  0.85470903  0.30036356  1
  O  O634  1  0.32244646  0.85148486  0.55065964  1
  O  O635  1  0.32366478  0.85294257  0.79967307  1
  O  O636  1  0.82362403  0.18620844  0.04962398  1
  O  O637  1  0.82374841  0.18798997  0.30151217  1
  O  O638  1  0.82388267  0.18810993  0.55009566  1
  O  O639  1  0.82364875  0.18754361  0.79993951  1
  O  O640  1  0.82350278  0.51947008  0.04956167  1
  O  O641  1  0.82160016  0.52035196  0.30285417  1
  O  O642  1  0.82345438  0.52104984  0.55015127  1
  O  O643  1  0.82321618  0.52112457  0.79925570  1
  O  O644  1  0.82315024  0.85115864  0.05110987  1
  O  O645  1  0.82381807  0.85444345  0.30139060  1
  O  O646  1  0.82218298  0.85283339  0.55203610  1
  O  O647  1  0.82386163  0.85425004  0.80009034  1
  O  O648  1  0.17676143  0.14862261  0.19923855  1
  O  O649  1  0.17738015  0.14725898  0.44827329  1
  O  O650  1  0.17597205  0.14746056  0.69997469  1
  O  O651  1  0.17562752  0.14706422  0.95052706  1
  O  O652  1  0.17649762  0.47900952  0.19906681  1
  O  O653  1  0.17650697  0.47867240  0.44897481  1
  O  O654  1  0.17750369  0.47907424  0.69944989  1
  O  O655  1  0.17824815  0.48004633  0.94726641  1
  O  O656  1  0.17688271  0.81532389  0.19901507  1
  O  O657  1  0.17587417  0.81199868  0.44911060  1
  O  O658  1  0.17686286  0.81401515  0.69924636  1
  O  O659  1  0.17631931  0.81220939  0.94905917  1
  O  O660  1  0.67670718  0.14733593  0.20104103  1
  O  O661  1  0.67707412  0.14544393  0.45162953  1
  O  O662  1  0.67763260  0.14573207  0.70044845  1
  O  O663  1  0.67648843  0.14480314  0.94919755  1
  O  O664  1  0.67654489  0.48083148  0.20104531  1
  O  O665  1  0.67865471  0.48096955  0.44926749  1
  O  O666  1  0.67707915  0.47911747  0.70033138  1
  O  O667  1  0.67639950  0.47865501  0.94884537  1
  O  O668  1  0.67764466  0.81537476  0.19961794  1
  O  O669  1  0.67712517  0.81301430  0.45091197  1
  O  O670  1  0.67910398  0.81413530  0.69819192  1
  O  O671  1  0.67671298  0.81224902  0.94872654  1
