# generated using pymatgen
data_Na2MnFe(PO4)2
_symmetry_space_group_name_H-M   'P 1'
_cell_length_a   22.34427132
_cell_length_b   20.10006985
_cell_length_c   19.44938587
_cell_angle_alpha   89.98676728
_cell_angle_beta   89.98291086
_cell_angle_gamma   89.99529381
_symmetry_Int_Tables_number   1
_chemical_formula_structural   Na2MnFe(PO4)2
_chemical_formula_sum   'Na96 Mn48 Fe48 P96 O384'
_cell_volume   8735.13503750
_cell_formula_units_Z   48
loop_
 _symmetry_equiv_pos_site_id
 _symmetry_equiv_pos_as_xyz
  1  'x, y, z'
loop_
 _atom_site_type_symbol
 _atom_site_label
 _atom_site_symmetry_multiplicity
 _atom_site_fract_x
 _atom_site_fract_y
 _atom_site_fract_z
 _atom_site_occupancy
  Na  Na0  1  0.14133856  0.25120360  0.24460322  1
  Na  Na1  1  0.14068927  0.25009301  0.49267698  1
  Na  Na2  1  0.14122978  0.25001488  0.74229066  1
  Na  Na3  1  0.14120356  0.24924874  0.99447986  1
  Na  Na4  1  0.14071566  0.58226188  0.24299417  1
  Na  Na5  1  0.14089880  0.58208174  0.49232016  1
  Na  Na6  1  0.14140407  0.58322930  0.74379947  1
  Na  Na7  1  0.14113538  0.58238436  0.99449793  1
  Na  Na8  1  0.14112378  0.91725485  0.24399312  1
  Na  Na9  1  0.14077828  0.91641257  0.49322720  1
  Na  Na10  1  0.14078510  0.91780789  0.74281217  1
  Na  Na11  1  0.14131933  0.91585953  0.99259821  1
  Na  Na12  1  0.64007536  0.24940156  0.24534656  1
  Na  Na13  1  0.63972226  0.25057440  0.49469213  1
  Na  Na14  1  0.63966943  0.24965014  0.74418169  1
  Na  Na15  1  0.64032378  0.24870124  0.99410406  1
  Na  Na16  1  0.63931106  0.58320543  0.24399172  1
  Na  Na17  1  0.63971436  0.58364498  0.49397766  1
  Na  Na18  1  0.64003099  0.58450994  0.74291478  1
  Na  Na19  1  0.63999696  0.58366456  0.99442453  1
  Na  Na20  1  0.63951076  0.91744482  0.24335527  1
  Na  Na21  1  0.63920605  0.91684315  0.49307881  1
  Na  Na22  1  0.63966160  0.91692264  0.74377267  1
  Na  Na23  1  0.63963015  0.91772354  0.99266107  1
  Na  Na24  1  0.35957427  0.08299768  0.00632061  1
  Na  Na25  1  0.35949867  0.08400860  0.25743756  1
  Na  Na26  1  0.35906464  0.08292038  0.50794804  1
  Na  Na27  1  0.35960179  0.08350755  0.75704971  1
  Na  Na28  1  0.35911542  0.41679509  0.00814358  1
  Na  Na29  1  0.35969022  0.41735669  0.25797569  1
  Na  Na30  1  0.35991531  0.41625956  0.50705982  1
  Na  Na31  1  0.35954389  0.41722656  0.75663545  1
  Na  Na32  1  0.35950819  0.74991675  0.00700811  1
  Na  Na33  1  0.36014214  0.74936041  0.25779234  1
  Na  Na34  1  0.35969268  0.75041424  0.50642182  1
  Na  Na35  1  0.35901663  0.75180140  0.75651987  1
  Na  Na36  1  0.85966289  0.08310851  0.00401572  1
  Na  Na37  1  0.85962279  0.08359478  0.25536922  1
  Na  Na38  1  0.85971414  0.08325708  0.50575580  1
  Na  Na39  1  0.85959659  0.08177705  0.75618369  1
  Na  Na40  1  0.85976121  0.41529559  0.00516943  1
  Na  Na41  1  0.86001043  0.41557894  0.25681728  1
  Na  Na42  1  0.86004631  0.41654130  0.50649419  1
  Na  Na43  1  0.85985695  0.41645776  0.75556241  1
  Na  Na44  1  0.85970132  0.75039494  0.00466304  1
  Na  Na45  1  0.85995045  0.74980919  0.25563146  1
  Na  Na46  1  0.85944101  0.74952268  0.50643756  1
  Na  Na47  1  0.85880164  0.75034513  0.75468479  1
  Na  Na48  1  0.11060526  0.08376689  0.11929287  1
  Na  Na49  1  0.11062790  0.08493469  0.36895686  1
  Na  Na50  1  0.11028041  0.08283573  0.61724561  1
  Na  Na51  1  0.11034004  0.08347135  0.86734237  1
  Na  Na52  1  0.11083582  0.41627482  0.11995892  1
  Na  Na53  1  0.11040849  0.41669876  0.36747942  1
  Na  Na54  1  0.11014340  0.41497734  0.61858129  1
  Na  Na55  1  0.11073076  0.41569872  0.86849489  1
  Na  Na56  1  0.11043159  0.74823116  0.11885242  1
  Na  Na57  1  0.10977272  0.74898595  0.36838561  1
  Na  Na58  1  0.11032038  0.75018189  0.61864670  1
  Na  Na59  1  0.11079101  0.74978514  0.86757694  1
  Na  Na60  1  0.60940366  0.08245728  0.11867336  1
  Na  Na61  1  0.60901290  0.08267754  0.36870929  1
  Na  Na62  1  0.60887988  0.08331711  0.61939419  1
  Na  Na63  1  0.60934453  0.08347568  0.86827635  1
  Na  Na64  1  0.60924311  0.41722122  0.11973150  1
  Na  Na65  1  0.60905534  0.41753350  0.36998433  1
  Na  Na66  1  0.60886904  0.41795531  0.61821466  1
  Na  Na67  1  0.60881949  0.41715836  0.86947580  1
  Na  Na68  1  0.60879879  0.75050931  0.11910635  1
  Na  Na69  1  0.60871013  0.75013155  0.36925980  1
  Na  Na70  1  0.60907904  0.75080555  0.61695106  1
  Na  Na71  1  0.60927452  0.75226257  0.86823286  1
  Na  Na72  1  0.38991587  0.24985444  0.13309044  1
  Na  Na73  1  0.38984566  0.25016332  0.38361437  1
  Na  Na74  1  0.38952414  0.25045097  0.63233206  1
  Na  Na75  1  0.38984376  0.25001965  0.88237792  1
  Na  Na76  1  0.39010819  0.58413123  0.13315110  1
  Na  Na77  1  0.39011397  0.58361340  0.38202970  1
  Na  Na78  1  0.39001330  0.58403766  0.63017515  1
  Na  Na79  1  0.39008000  0.58514165  0.88289407  1
  Na  Na80  1  0.39056570  0.91589591  0.13120946  1
  Na  Na81  1  0.39054958  0.91612570  0.38219276  1
  Na  Na82  1  0.38941852  0.91784233  0.63204351  1
  Na  Na83  1  0.38956605  0.91748329  0.88167321  1
  Na  Na84  1  0.89032931  0.24957586  0.13107940  1
  Na  Na85  1  0.89045583  0.25018378  0.38071605  1
  Na  Na86  1  0.89075924  0.24927822  0.63053852  1
  Na  Na87  1  0.89067955  0.24958534  0.88003732  1
  Na  Na88  1  0.89089455  0.58219479  0.13141337  1
  Na  Na89  1  0.89095647  0.58323368  0.38092526  1
  Na  Na90  1  0.89039598  0.58214756  0.63133018  1
  Na  Na91  1  0.89046413  0.58237633  0.87899751  1
  Na  Na92  1  0.89077764  0.91568939  0.12919498  1
  Na  Na93  1  0.89090357  0.91681708  0.38084947  1
  Na  Na94  1  0.89022093  0.91566904  0.63067761  1
  Na  Na95  1  0.89009718  0.91678548  0.88020702  1
  Mn  Mn96  1  0.00015743  0.66551599  0.74895417  1
  Mn  Mn97  1  -0.00014809  0.83336831  0.74914995  1
  Mn  Mn98  1  0.25066683  0.00094080  0.12490638  1
  Mn  Mn99  1  0.24998186  0.83339418  0.37514509  1
  Mn  Mn100  1  0.74980333  0.50007331  0.87469277  1
  Mn  Mn101  1  0.50008795  0.66743933  0.00094951  1
  Mn  Mn102  1  0.75011521  0.66766778  0.87369360  1
  Mn  Mn103  1  0.75020594  0.00075306  0.37424316  1
  Mn  Mn104  1  0.49991445  0.33406375  0.25132130  1
  Mn  Mn105  1  0.49896728  0.83502740  0.74911464  1
  Mn  Mn106  1  0.25025124  0.16684127  0.87488331  1
  Mn  Mn107  1  0.49924475  0.16622283  0.50092838  1
  Mn  Mn108  1  0.25062615  0.49942940  0.62464015  1
  Mn  Mn109  1  0.00122823  0.83232796  0.24985608  1
  Mn  Mn110  1  0.74984381  0.33173665  0.12559234  1
  Mn  Mn111  1  0.75046767  0.00091088  0.12384767  1
  Mn  Mn112  1  0.74960583  0.83338957  0.37480024  1
  Mn  Mn113  1  0.00101553  0.66645864  0.50016847  1
  Mn  Mn114  1  0.25054575  0.83266939  0.12509545  1
  Mn  Mn115  1  0.00088611  -0.00019056  -0.00048576  1
  Mn  Mn116  1  0.74891985  0.33230129  0.87509068  1
  Mn  Mn117  1  0.25033527  0.49967420  0.87554086  1
  Mn  Mn118  1  0.50002802  0.33421055  0.00139217  1
  Mn  Mn119  1  0.75014940  0.50016830  0.37550395  1
  Mn  Mn120  1  0.00105169  0.83253390  -0.00036940  1
  Mn  Mn121  1  0.74987428  0.66712216  0.12412395  1
  Mn  Mn122  1  0.00039508  -0.00016906  0.49910382  1
  Mn  Mn123  1  0.49964885  0.50107872  0.74992500  1
  Mn  Mn124  1  0.00050811  0.33330407  -0.00046196  1
  Mn  Mn125  1  0.00008913  0.49889162  0.00010212  1
  Mn  Mn126  1  0.74968929  0.66649033  0.37554095  1
  Mn  Mn127  1  0.49980692  0.16557875  0.25147521  1
  Mn  Mn128  1  0.74894457  -0.00066633  0.62514473  1
  Mn  Mn129  1  0.74964061  0.83400072  0.12423716  1
  Mn  Mn130  1  0.49973523  0.66786079  0.75024578  1
  Mn  Mn131  1  0.49978652  0.16577210  0.00127971  1
  Mn  Mn132  1  0.00105402  0.49874015  0.49984194  1
  Mn  Mn133  1  0.00048047  0.16642218  0.74885349  1
  Mn  Mn134  1  0.00055702  0.16676245  -0.00085194  1
  Mn  Mn135  1  0.00066635  0.66541123  -0.00081233  1
  Mn  Mn136  1  0.00062869  0.00007238  0.25013283  1
  Mn  Mn137  1  0.00008918  0.16750459  0.24943900  1
  Mn  Mn138  1  0.75030992  0.49958274  0.12495057  1
  Mn  Mn139  1  0.74939163  0.33264740  0.37543735  1
  Mn  Mn140  1  0.25038376  0.66754376  0.62485824  1
  Mn  Mn141  1  0.74960766  0.16635007  0.62514164  1
  Mn  Mn142  1  0.75035763  0.33362002  0.62500394  1
  Mn  Mn143  1  0.49888881  0.33374159  0.75073207  1
  Fe  Fe144  1  0.74957670  0.83375386  0.62473969  1
  Fe  Fe145  1  0.74916544  0.83337098  0.87406231  1
  Fe  Fe146  1  0.00079492  0.33328555  0.25037732  1
  Fe  Fe147  1  0.25069504  0.16718557  0.37576166  1
  Fe  Fe148  1  0.74978134  0.16608494  0.12417165  1
  Fe  Fe149  1  0.49976446  0.83389356  0.00052024  1
  Fe  Fe150  1  0.49921316  0.83397669  0.49964562  1
  Fe  Fe151  1  0.49941913  0.50060289  0.25122048  1
  Fe  Fe152  1  0.25011987  0.16670375  0.62461863  1
  Fe  Fe153  1  0.74963635  -0.00032110  0.87463910  1
  Fe  Fe154  1  0.00050108  0.33264091  0.74907575  1
  Fe  Fe155  1  0.25015258  0.16731876  0.12593512  1
  Fe  Fe156  1  0.25069291  0.49984031  0.12566449  1
  Fe  Fe157  1  0.49967662  0.50092654  0.00100416  1
  Fe  Fe158  1  0.49916840  -0.00106405  0.25014958  1
  Fe  Fe159  1  0.00016416  0.49935924  0.25017379  1
  Fe  Fe160  1  -0.00004178  0.66614773  0.24987591  1
  Fe  Fe161  1  0.24980615  0.33319448  0.62457648  1
  Fe  Fe162  1  0.49990106  0.83371251  0.25025080  1
  Fe  Fe163  1  0.25069722  0.33332477  0.37502963  1
  Fe  Fe164  1  0.25039254  0.00064727  0.37548438  1
  Fe  Fe165  1  0.25040550  0.33285900  0.87576518  1
  Fe  Fe166  1  -0.00017946  0.33336524  0.49961065  1
  Fe  Fe167  1  0.00014999  0.83301373  0.49944546  1
  Fe  Fe168  1  0.25017440  0.66632835  0.12558320  1
  Fe  Fe169  1  0.00112171  0.49868256  0.74953190  1
  Fe  Fe170  1  0.24992699  0.83344272  0.87509839  1
  Fe  Fe171  1  0.25013935  0.00028495  0.62519219  1
  Fe  Fe172  1  0.74925213  0.50036497  0.62543076  1
  Fe  Fe173  1  0.49943272  0.50093623  0.49982503  1
  Fe  Fe174  1  0.25061443  0.66668584  0.87536794  1
  Fe  Fe175  1  0.24941709  0.83419231  0.62554409  1
  Fe  Fe176  1  0.49963648  0.00052728  0.75019000  1
  Fe  Fe177  1  0.49943159  -0.00024307  -0.00013041  1
  Fe  Fe178  1  0.24961924  0.66630351  0.37518593  1
  Fe  Fe179  1  0.25021941  0.49966940  0.37471717  1
  Fe  Fe180  1  0.49979476  0.66716969  0.25059602  1
  Fe  Fe181  1  0.49965326  0.33370023  0.50105992  1
  Fe  Fe182  1  0.25099394  0.33309028  0.12606737  1
  Fe  Fe183  1  0.24957915  0.00020974  0.87467067  1
  Fe  Fe184  1  0.00017208  0.16686754  0.49959838  1
  Fe  Fe185  1  0.00025957  -0.00035200  0.74867662  1
  Fe  Fe186  1  0.49942628  0.66727626  0.49920076  1
  Fe  Fe187  1  0.74923199  0.66705795  0.62499558  1
  Fe  Fe188  1  0.49913520  -0.00026272  0.49983722  1
  Fe  Fe189  1  0.75035175  0.16628936  0.87461516  1
  Fe  Fe190  1  0.49972351  0.16677295  0.75058278  1
  Fe  Fe191  1  0.74984067  0.16639233  0.37505443  1
  P  P192  1  0.04324574  0.25039113  0.10331879  1
  P  P193  1  0.04244510  0.25134314  0.35321570  1
  P  P194  1  0.04158176  0.25021165  0.60103735  1
  P  P195  1  0.04325845  0.25086996  0.85128961  1
  P  P196  1  0.04285591  0.58233819  0.10400832  1
  P  P197  1  0.04176181  0.58307485  0.35134583  1
  P  P198  1  0.04367605  0.58182918  0.60314993  1
  P  P199  1  0.04300597  0.58127642  0.85170493  1
  P  P200  1  0.04430111  0.91603693  0.10285414  1
  P  P201  1  0.04352609  0.91626773  0.35345908  1
  P  P202  1  0.04239488  0.91556093  0.60194488  1
  P  P203  1  0.04282838  0.91778425  0.85144045  1
  P  P204  1  0.54246214  0.24980981  0.10422904  1
  P  P205  1  0.54184126  0.25018893  0.35480289  1
  P  P206  1  0.54124083  0.25088593  0.60355637  1
  P  P207  1  0.54137493  0.24923278  0.85305672  1
  P  P208  1  0.54170998  0.58264218  0.10393328  1
  P  P209  1  0.54044566  0.58391844  0.35283823  1
  P  P210  1  0.54079382  0.58448222  0.60102730  1
  P  P211  1  0.54248690  0.58417412  0.85371342  1
  P  P212  1  0.54117608  0.91678822  0.10219173  1
  P  P213  1  0.54110820  0.91646272  0.35232847  1
  P  P214  1  0.54038846  0.91758783  0.60144670  1
  P  P215  1  0.54127419  0.91854288  0.85286508  1
  P  P216  1  0.45763468  0.08122486  0.14798516  1
  P  P217  1  0.45693747  0.08145351  0.39787560  1
  P  P218  1  0.45812516  0.08349356  0.64866924  1
  P  P219  1  0.45776782  0.08237417  0.89724920  1
  P  P220  1  0.45761113  0.41865946  0.14858183  1
  P  P221  1  0.45859375  0.41725522  0.39895265  1
  P  P222  1  0.45698649  0.41733250  0.64633445  1
  P  P223  1  0.45711572  0.41852610  0.89880098  1
  P  P224  1  0.45846380  0.75073355  0.14888313  1
  P  P225  1  0.45842195  0.75061849  0.39762345  1
  P  P226  1  0.45691643  0.75060023  0.64578731  1
  P  P227  1  0.45754446  0.75216884  0.89821707  1
  P  P228  1  0.95753991  0.08308363  0.14641960  1
  P  P229  1  0.95813032  0.08504077  0.39722453  1
  P  P230  1  0.95817949  0.08197961  0.64633252  1
  P  P231  1  0.95796424  0.08294908  0.89536949  1
  P  P232  1  0.95882906  0.41581698  0.14874967  1
  P  P233  1  0.95825726  0.41536513  0.39666799  1
  P  P234  1  0.95887051  0.41560058  0.64771636  1
  P  P235  1  0.95773009  0.41615204  0.89537243  1
  P  P236  1  0.95818572  0.74821735  0.14721199  1
  P  P237  1  0.95807689  0.75027024  0.39710981  1
  P  P238  1  0.95737708  0.74977525  0.64576166  1
  P  P239  1  0.95778858  0.74944215  0.89601174  1
  P  P240  1  0.20854683  0.08530178  0.22860749  1
  P  P241  1  0.20921471  0.08381316  0.47746227  1
  P  P242  1  0.20906667  0.08356427  0.72642783  1
  P  P243  1  0.20786719  0.08244970  0.97727576  1
  P  P244  1  0.20987793  0.41652505  0.22768249  1
  P  P245  1  0.20916384  0.41610318  0.47642742  1
  P  P246  1  0.20844871  0.41534345  0.72751657  1
  P  P247  1  0.20858981  0.41478998  0.97866250  1
  P  P248  1  0.20854061  0.74831427  0.22811264  1
  P  P249  1  0.20782105  0.74907030  0.47748638  1
  P  P250  1  0.20811196  0.75191186  0.72825453  1
  P  P251  1  0.20896406  0.74928302  0.97691696  1
  P  P252  1  0.70751856  0.08472046  0.22729136  1
  P  P253  1  0.70704680  0.08439286  0.47727490  1
  P  P254  1  0.70702962  0.08280240  0.72911470  1
  P  P255  1  0.70832802  0.08372729  0.97612578  1
  P  P256  1  0.70704586  0.41597971  0.22856206  1
  P  P257  1  0.70716340  0.41719824  0.47905487  1
  P  P258  1  0.70702060  0.41765765  0.72738701  1
  P  P259  1  0.70669275  0.41621914  0.97828676  1
  P  P260  1  0.70667397  0.75028544  0.22779716  1
  P  P261  1  0.70689192  0.75008938  0.47919787  1
  P  P262  1  0.70752559  0.75105900  0.72611458  1
  P  P263  1  0.70712354  0.75140854  0.97661071  1
  P  P264  1  0.29191263  0.24984766  0.02399260  1
  P  P265  1  0.29205336  0.25017751  0.27364203  1
  P  P266  1  0.29119744  0.25003925  0.52299943  1
  P  P267  1  0.29217709  0.25164948  0.77223010  1
  P  P268  1  0.29162990  0.58344158  0.02397517  1
  P  P269  1  0.29114666  0.58320994  0.27318755  1
  P  P270  1  0.29215922  0.58328850  0.52088268  1
  P  P271  1  0.29268959  0.58470398  0.77300611  1
  P  P272  1  0.29244479  0.91637789  0.02129782  1
  P  P273  1  0.29235415  0.91833567  0.27324620  1
  P  P274  1  0.29087009  0.91692759  0.52354614  1
  P  P275  1  0.29094618  0.91713441  0.77305299  1
  P  P276  1  0.79238973  0.24793048  0.02181593  1
  P  P277  1  0.79211651  0.24788687  0.27240549  1
  P  P278  1  0.79270117  0.24942367  0.52147496  1
  P  P279  1  0.79230510  0.24859396  0.77236742  1
  P  P280  1  0.79328198  0.58335973  0.02131037  1
  P  P281  1  0.79284172  0.58337364  0.27190098  1
  P  P282  1  0.79120796  0.58336896  0.52402072  1
  P  P283  1  0.79213267  0.58367832  0.77020330  1
  P  P284  1  0.79235768  0.91716204  0.01989436  1
  P  P285  1  0.79309914  0.91688409  0.27131934  1
  P  P286  1  0.79190126  0.91578610  0.52230672  1
  P  P287  1  0.79094532  0.91600501  0.77266882  1
  O  O288  1  0.03817825  0.25083568  0.18328826  1
  O  O289  1  0.03695190  0.25100237  0.43308099  1
  O  O290  1  0.03661591  0.25035872  0.68100476  1
  O  O291  1  0.03842377  0.25034730  0.93128189  1
  O  O292  1  0.03742672  0.58287971  0.18392748  1
  O  O293  1  0.03739308  0.58277785  0.43139851  1
  O  O294  1  0.03856804  0.58123519  0.68306902  1
  O  O295  1  0.03780212  0.58146667  0.93170650  1
  O  O296  1  0.03931203  0.91592115  0.18287192  1
  O  O297  1  0.03803540  0.91575617  0.43339407  1
  O  O298  1  0.03705382  0.91649544  0.68189009  1
  O  O299  1  0.03814439  0.91740765  0.93145490  1
  O  O300  1  0.53728768  0.24965893  0.18419702  1
  O  O301  1  0.53621561  0.25058677  0.43472470  1
  O  O302  1  0.53602750  0.25034955  0.68352676  1
  O  O303  1  0.53688624  0.24904641  0.93306595  1
  O  O304  1  0.53620146  0.58275895  0.18381513  1
  O  O305  1  0.53519791  0.58441407  0.43272608  1
  O  O306  1  0.53634017  0.58442577  0.68103215  1
  O  O307  1  0.53747125  0.58385071  0.93369269  1
  O  O308  1  0.53593292  0.91650482  0.18209628  1
  O  O309  1  0.53566056  0.91664555  0.43217380  1
  O  O310  1  0.53563918  0.91792534  0.68137927  1
  O  O311  1  0.53623901  0.91808008  0.93271798  1
  O  O312  1  0.46295759  0.08131744  0.06803121  1
  O  O313  1  0.46215414  0.08129167  0.31794390  1
  O  O314  1  0.46268331  0.08335055  0.56870458  1
  O  O315  1  0.46313594  0.08312938  0.81736698  1
  O  O316  1  0.46287423  0.41873686  0.06866228  1
  O  O317  1  0.46337213  0.41781728  0.31897302  1
  O  O318  1  0.46244800  0.41700022  0.56642943  1
  O  O319  1  0.46211096  0.41813541  0.81878811  1
  O  O320  1  0.46352836  0.75079034  0.06894060  1
  O  O321  1  0.46362648  0.75121505  0.31774339  1
  O  O322  1  0.46212332  0.75022650  0.56587216  1
  O  O323  1  0.46228371  0.75205193  0.81822027  1
  O  O324  1  0.96282565  0.08313683  0.06643493  1
  O  O325  1  0.96317315  0.08487680  0.31727949  1
  O  O326  1  0.96343152  0.08281805  0.56639634  1
  O  O327  1  0.96317518  0.08256763  0.81536964  1
  O  O328  1  0.96338702  0.41612887  0.06872936  1
  O  O329  1  0.96348509  0.41565609  0.31679514  1
  O  O330  1  0.96385056  0.41524626  0.56770811  1
  O  O331  1  0.96289980  0.41611846  0.81545488  1
  O  O332  1  0.96347899  0.74843356  0.06722940  1
  O  O333  1  0.96361064  0.74933249  0.31716021  1
  O  O334  1  0.96265475  0.75036660  0.56583355  1
  O  O335  1  0.96267546  0.74953522  0.81601242  1
  O  O336  1  0.21294906  0.08308290  0.05713043  1
  O  O337  1  0.21422325  0.08512138  0.30844225  1
  O  O338  1  0.21414511  0.08357878  0.55737043  1
  O  O339  1  0.21340162  0.08339408  0.80639083  1
  O  O340  1  0.21425426  0.41503249  0.05849305  1
  O  O341  1  0.21479243  0.41711995  0.30756398  1
  O  O342  1  0.21371348  0.41546093  0.55639482  1
  O  O343  1  0.21365096  0.41540619  0.80744902  1
  O  O344  1  0.21420120  0.74879613  0.05689444  1
  O  O345  1  0.21376215  0.74825246  0.30803620  1
  O  O346  1  0.21264339  0.74978464  0.55739951  1
  O  O347  1  0.21374088  0.75189598  0.80808779  1
  O  O348  1  0.71347642  0.08417046  0.05610696  1
  O  O349  1  0.71268515  0.08453514  0.30725264  1
  O  O350  1  0.71182363  0.08360026  0.55726982  1
  O  O351  1  0.71252804  0.08261173  0.80897010  1
  O  O352  1  0.71200990  0.41597549  0.05825534  1
  O  O353  1  0.71203960  0.41593449  0.30857810  1
  O  O354  1  0.71246332  0.41781438  0.55900326  1
  O  O355  1  0.71195038  0.41730457  0.80738913  1
  O  O356  1  0.71209153  0.75112680  0.05657283  1
  O  O357  1  0.71163900  0.75021778  0.30780948  1
  O  O358  1  0.71211398  0.75006742  0.55912346  1
  O  O359  1  0.71270979  0.75134634  0.80610181  1
  O  O360  1  0.28711294  0.25059673  0.19377750  1
  O  O361  1  0.28644107  0.24934384  0.44311662  1
  O  O362  1  0.28692785  0.25163576  0.69239764  1
  O  O363  1  0.28687139  0.25001263  0.94403700  1
  O  O364  1  0.28623389  0.58342368  0.19326137  1
  O  O365  1  0.28646332  0.58309355  0.44101371  1
  O  O366  1  0.28758075  0.58453592  0.69306402  1
  O  O367  1  0.28682149  0.58338608  0.94402609  1
  O  O368  1  0.28753403  0.91808324  0.19331044  1
  O  O369  1  0.28608254  0.91756103  0.44362010  1
  O  O370  1  0.28579314  0.91702875  0.69315500  1
  O  O371  1  0.28672450  0.91611354  0.94144845  1
  O  O372  1  0.78684706  0.24769821  0.19244053  1
  O  O373  1  0.78743093  0.24914047  0.44154424  1
  O  O374  1  0.78734793  0.24923568  0.69240777  1
  O  O375  1  0.78705039  0.24817341  0.94187230  1
  O  O376  1  0.78813900  0.58327431  0.19191748  1
  O  O377  1  0.78645407  0.58337560  0.44397901  1
  O  O378  1  0.78637783  0.58378923  0.69030608  1
  O  O379  1  0.78815597  0.58347766  0.94129431  1
  O  O380  1  0.78821441  0.91707403  0.19130009  1
  O  O381  1  0.78712497  0.91634645  0.44233828  1
  O  O382  1  0.78581604  0.91567997  0.69268412  1
  O  O383  1  0.78679390  0.91708756  0.93997770  1
  O  O384  1  0.22782679  0.24981227  0.06019391  1
  O  O385  1  0.22799558  0.24959999  0.30989058  1
  O  O386  1  0.22710435  0.25033368  0.55921259  1
  O  O387  1  0.22802071  0.25169910  0.80839606  1
  O  O388  1  0.22752664  0.58384581  0.06004062  1
  O  O389  1  0.22703665  0.58281162  0.30937590  1
  O  O390  1  0.22818946  0.58336785  0.55714591  1
  O  O391  1  0.22845102  0.58471584  0.80876033  1
  O  O392  1  0.22843674  0.91655507  0.05751944  1
  O  O393  1  0.22802816  0.91817032  0.30865257  1
  O  O394  1  0.22675737  0.91665222  0.55953747  1
  O  O395  1  0.22698742  0.91672703  0.80960262  1
  O  O396  1  0.72807356  0.24785625  0.05757100  1
  O  O397  1  0.72784134  0.24777565  0.30824501  1
  O  O398  1  0.72832938  0.25001482  0.55673348  1
  O  O399  1  0.72786176  0.24769750  0.80763309  1
  O  O400  1  0.72875109  0.58313557  0.05624682  1
  O  O401  1  0.72824059  0.58328658  0.30657852  1
  O  O402  1  0.72690579  0.58335157  0.55955919  1
  O  O403  1  0.72801923  0.58391533  0.80621061  1
  O  O404  1  0.72814585  0.91747830  0.05573336  1
  O  O405  1  0.72852695  0.91712176  0.30606120  1
  O  O406  1  0.72738646  0.91531707  0.55742080  1
  O  O407  1  0.72681809  0.91616118  0.80879650  1
  O  O408  1  0.27257979  0.08564443  0.19209242  1
  O  O409  1  0.27328324  0.08412144  0.44123869  1
  O  O410  1  0.27328306  0.08374523  0.69085205  1
  O  O411  1  0.27213218  0.08206279  0.94150462  1
  O  O412  1  0.27382172  0.41616233  0.19128645  1
  O  O413  1  0.27340487  0.41722352  0.44076371  1
  O  O414  1  0.27264425  0.41484198  0.69160384  1
  O  O415  1  0.27260297  0.41478259  0.94213261  1
  O  O416  1  0.27279341  0.74810183  0.19232031  1
  O  O417  1  0.27213977  0.74882478  0.44196929  1
  O  O418  1  0.27213227  0.75241033  0.69179247  1
  O  O419  1  0.27303274  0.74966868  0.94064118  1
  O  O420  1  0.77185099  0.08511317  0.19160524  1
  O  O421  1  0.77157566  0.08486828  0.44218086  1
  O  O422  1  0.77122805  0.08255642  0.69330678  1
  O  O423  1  0.77240373  0.08354586  0.93987967  1
  O  O424  1  0.77152539  0.41569488  0.19359953  1
  O  O425  1  0.77149586  0.41644029  0.44370029  1
  O  O426  1  0.77149820  0.41827865  0.69222051  1
  O  O427  1  0.77105764  0.41592560  0.94302445  1
  O  O428  1  0.77118773  0.75049589  0.19290302  1
  O  O429  1  0.77121184  0.75008075  0.44362510  1
  O  O430  1  0.77170055  0.75089303  0.69011316  1
  O  O431  1  0.77154024  0.75190766  0.94126225  1
  O  O432  1  0.02196408  0.08347170  0.18150413  1
  O  O433  1  0.02245160  0.08475152  0.43262250  1
  O  O434  1  0.02247709  0.08165896  0.68199516  1
  O  O435  1  0.02232390  0.08326748  0.93068190  1
  O  O436  1  0.02312438  0.41556503  0.18429742  1
  O  O437  1  0.02254581  0.41469281  0.43244620  1
  O  O438  1  0.02313178  0.41532304  0.68351580  1
  O  O439  1  0.02208253  0.41633963  0.93082699  1
  O  O440  1  0.02253225  0.74758825  0.18271793  1
  O  O441  1  0.02234216  0.75116121  0.43296050  1
  O  O442  1  0.02170867  0.74967110  0.68101839  1
  O  O443  1  0.02233666  0.74921324  0.93079070  1
  O  O444  1  0.52180639  0.08097387  0.18392980  1
  O  O445  1  0.52123199  0.08170069  0.43350382  1
  O  O446  1  0.52228986  0.08283988  0.68452377  1
  O  O447  1  0.52186365  0.08191084  0.93345947  1
  O  O448  1  0.52183382  0.41872456  0.18438541  1
  O  O449  1  0.52262723  0.41667792  0.43491434  1
  O  O450  1  0.52115088  0.41711792  0.68216341  1
  O  O451  1  0.52151535  0.41903246  0.93418579  1
  O  O452  1  0.52253103  0.75106398  0.18494619  1
  O  O453  1  0.52229679  0.75030070  0.43417927  1
  O  O454  1  0.52118185  0.75108842  0.68144511  1
  O  O455  1  0.52192048  0.75206112  0.93353448  1
  O  O456  1  0.47808279  0.24991078  0.06913107  1
  O  O457  1  0.47767233  0.25006476  0.31912455  1
  O  O458  1  0.47706596  0.25105275  0.56773083  1
  O  O459  1  0.47697852  0.24946822  0.81798878  1
  O  O460  1  0.47760776  0.58274264  0.06761020  1
  O  O461  1  0.47650448  0.58360223  0.31636343  1
  O  O462  1  0.47657483  0.58488021  0.56543231  1
  O  O463  1  0.47801466  0.58439092  0.81868201  1
  O  O464  1  0.47713427  0.91682761  0.06576528  1
  O  O465  1  0.47705418  0.91627558  0.31582293  1
  O  O466  1  0.47614511  0.91772196  0.56573110  1
  O  O467  1  0.47706045  0.91905870  0.81686657  1
  O  O468  1  0.97886188  0.24994621  0.06808027  1
  O  O469  1  0.97834997  0.25196706  0.31695426  1
  O  O470  1  0.97739839  0.25043756  0.56521939  1
  O  O471  1  0.97880937  0.25087177  0.81609483  1
  O  O472  1  0.97863998  0.58250336  0.06822493  1
  O  O473  1  0.97751273  0.58334689  0.31588029  1
  O  O474  1  0.97930940  0.58224611  0.56795543  1
  O  O475  1  0.97873211  0.58078209  0.81610949  1
  O  O476  1  0.97976505  0.91602919  0.06801706  1
  O  O477  1  0.97923023  0.91605801  0.31804774  1
  O  O478  1  0.97818093  0.91512442  0.56613178  1
  O  O479  1  0.97835755  0.91830797  0.81626236  1
  O  O480  1  0.07422581  0.31373416  0.07477668  1
  O  O481  1  0.07365031  0.31460272  0.32451967  1
  O  O482  1  0.07285222  0.31344201  0.57257707  1
  O  O483  1  0.07377326  0.31445584  0.82281427  1
  O  O484  1  0.07433663  0.64530048  0.07497068  1
  O  O485  1  0.07270451  0.64666751  0.32339032  1
  O  O486  1  0.07474504  0.64546955  0.57528085  1
  O  O487  1  0.07373313  0.64514955  0.82403006  1
  O  O488  1  0.07530257  0.97951459  0.07479928  1
  O  O489  1  0.07415150  0.98028257  0.32584780  1
  O  O490  1  0.07368919  0.97893318  0.57375013  1
  O  O491  1  0.07358008  0.98122490  0.82277303  1
  O  O492  1  0.57342888  0.31337826  0.07625225  1
  O  O493  1  0.57333105  0.31331703  0.32650941  1
  O  O494  1  0.57193796  0.31456149  0.57518573  1
  O  O495  1  0.57269126  0.31278327  0.82540785  1
  O  O496  1  0.57302368  0.64623830  0.07603761  1
  O  O497  1  0.57108281  0.64758291  0.32395327  1
  O  O498  1  0.57198666  0.64782590  0.57283339  1
  O  O499  1  0.57333246  0.64785992  0.82549667  1
  O  O500  1  0.57210467  0.98033727  0.07371675  1
  O  O501  1  0.57189743  0.98009200  0.32372384  1
  O  O502  1  0.57172567  0.98082899  0.57299168  1
  O  O503  1  0.57235054  0.98178586  0.82403840  1
  O  O504  1  0.42641118  0.01798601  0.17641179  1
  O  O505  1  0.42617707  0.01810419  0.42675213  1
  O  O506  1  0.42658844  0.02032548  0.67692013  1
  O  O507  1  0.42673319  0.01894257  0.92566607  1
  O  O508  1  0.42671885  0.35475831  0.17626759  1
  O  O509  1  0.42745654  0.35364510  0.42688247  1
  O  O510  1  0.42548943  0.35429843  0.67511347  1
  O  O511  1  0.42655656  0.35461906  0.92677270  1
  O  O512  1  0.42831375  0.68662290  0.17733202  1
  O  O513  1  0.42704303  0.68711032  0.42544157  1
  O  O514  1  0.42596097  0.68731943  0.67476657  1
  O  O515  1  0.42649275  0.68862879  0.92629866  1
  O  O516  1  0.92685413  0.01939788  0.17455828  1
  O  O517  1  0.92670504  0.02147239  0.42465858  1
  O  O518  1  0.92749576  0.01823618  0.67452128  1
  O  O519  1  0.92675103  0.01978150  0.92390094  1
  O  O520  1  0.92781660  0.35224250  0.17665708  1
  O  O521  1  0.92687856  0.35233539  0.42557760  1
  O  O522  1  0.92757131  0.35227505  0.67602486  1
  O  O523  1  0.92683433  0.35266342  0.92414072  1
  O  O524  1  0.92704114  0.68498805  0.17576270  1
  O  O525  1  0.92722837  0.68666379  0.42541472  1
  O  O526  1  0.92658497  0.68596971  0.67351646  1
  O  O527  1  0.92669420  0.68594635  0.92393895  1
  O  O528  1  0.17739362  0.02173506  0.20063184  1
  O  O529  1  0.17871012  0.02001003  0.44879430  1
  O  O530  1  0.17823778  0.02008417  0.69775250  1
  O  O531  1  0.17708700  0.01893081  0.94868847  1
  O  O532  1  0.17860017  0.35298355  0.19983900  1
  O  O533  1  0.17915155  0.35222973  0.44741388  1
  O  O534  1  0.17709684  0.35236987  0.69862870  1
  O  O535  1  0.17768535  0.35141748  0.94990396  1
  O  O536  1  0.17737637  0.68519568  0.19938894  1
  O  O537  1  0.17710651  0.68539502  0.44914487  1
  O  O538  1  0.17717547  0.68812627  0.70044395  1
  O  O539  1  0.17819309  0.68566327  0.94845240  1
  O  O540  1  0.67697514  0.02077082  0.19922028  1
  O  O541  1  0.67636487  0.02074253  0.44893929  1
  O  O542  1  0.67564823  0.01958898  0.70051242  1
  O  O543  1  0.67765341  0.01975501  0.94844580  1
  O  O544  1  0.67590298  0.35253032  0.20057276  1
  O  O545  1  0.67578232  0.35377181  0.45130192  1
  O  O546  1  0.67644469  0.35374053  0.69964540  1
  O  O547  1  0.67545821  0.35277765  0.95026201  1
  O  O548  1  0.67590734  0.68669541  0.19961274  1
  O  O549  1  0.67584054  0.68663502  0.45074108  1
  O  O550  1  0.67683364  0.68716818  0.69816231  1
  O  O551  1  0.67640862  0.68765703  0.94865652  1
  O  O552  1  0.32303268  0.31320604  0.05243892  1
  O  O553  1  0.32236386  0.31407706  0.30254531  1
  O  O554  1  0.32228034  0.31364451  0.55090761  1
  O  O555  1  0.32318579  0.31475438  0.80149047  1
  O  O556  1  0.32309622  0.64667512  0.05224438  1
  O  O557  1  0.32174919  0.64688474  0.30191646  1
  O  O558  1  0.32360683  0.64658436  0.54894655  1
  O  O559  1  0.32335521  0.64832726  0.80132858  1
  O  O560  1  0.32388320  0.97970313  0.04932555  1
  O  O561  1  0.32280306  0.98189858  0.30193392  1
  O  O562  1  0.32160391  0.98042459  0.55250152  1
  O  O563  1  0.32136249  0.98114259  0.80133726  1
  O  O564  1  0.82332217  0.31164870  0.04987406  1
  O  O565  1  0.82289385  0.31184127  0.29995512  1
  O  O566  1  0.82393881  0.31287012  0.54955670  1
  O  O567  1  0.82270359  0.31246879  0.80044733  1
  O  O568  1  0.82397073  0.64703927  0.04938380  1
  O  O569  1  0.82360146  0.64688632  0.30029584  1
  O  O570  1  0.82187936  0.64717066  0.55195483  1
  O  O571  1  0.82353328  0.64708632  0.79827557  1
  O  O572  1  0.82377120  0.98044202  0.04822592  1
  O  O573  1  0.82416865  0.98030076  0.29957618  1
  O  O574  1  0.82263822  0.97949919  0.55041831  1
  O  O575  1  0.82162961  0.97986668  0.80061551  1
  O  O576  1  0.42688309  0.14512441  0.17580767  1
  O  O577  1  0.42584861  0.14507775  0.42575679  1
  O  O578  1  0.42830758  0.14775044  0.67716244  1
  O  O579  1  0.42657333  0.14578464  0.92580710  1
  O  O580  1  0.42654364  0.48180872  0.17748304  1
  O  O581  1  0.42806317  0.48109244  0.42738591  1
  O  O582  1  0.42603954  0.48102629  0.67438389  1
  O  O583  1  0.42620005  0.48196409  0.92712041  1
  O  O584  1  0.42685149  0.81385602  0.17705612  1
  O  O585  1  0.42775613  0.81427384  0.42653891  1
  O  O586  1  0.42562803  0.81402512  0.67401684  1
  O  O587  1  0.42704146  0.81574571  0.92677803  1
  O  O588  1  0.92624800  0.14640363  0.17446210  1
  O  O589  1  0.92773602  0.14867754  0.42585408  1
  O  O590  1  0.92692544  0.14534254  0.67451360  1
  O  O591  1  0.92708290  0.14669779  0.92326538  1
  O  O592  1  0.92850232  0.47969177  0.17728767  1
  O  O593  1  0.92753125  0.47915003  0.42499042  1
  O  O594  1  0.92864217  0.47969485  0.67573467  1
  O  O595  1  0.92636114  0.47927408  0.92413669  1
  O  O596  1  0.92748487  0.81213828  0.17484754  1
  O  O597  1  0.92703622  0.81386373  0.42501638  1
  O  O598  1  0.92593771  0.81283675  0.67433394  1
  O  O599  1  0.92711650  0.81306527  0.92433203  1
  O  O600  1  0.07430056  0.18686389  0.07516615  1
  O  O601  1  0.07341553  0.18772445  0.32507396  1
  O  O602  1  0.07194154  0.18607385  0.57303748  1
  O  O603  1  0.07437127  0.18740484  0.82307921  1
  O  O604  1  0.07378868  0.51861740  0.07607809  1
  O  O605  1  0.07206039  0.51908093  0.32302512  1
  O  O606  1  0.07479432  0.51861948  0.57436130  1
  O  O607  1  0.07410879  0.51787546  0.82347871  1
  O  O608  1  0.07509478  0.85242370  0.07456853  1
  O  O609  1  0.07520196  0.85332116  0.32502338  1
  O  O610  1  0.07310510  0.85182787  0.57394088  1
  O  O611  1  0.07351902  0.85395882  0.82363866  1
  O  O612  1  0.57348423  0.18637709  0.07602922  1
  O  O613  1  0.57281303  0.18645316  0.32704827  1
  O  O614  1  0.57261424  0.18746125  0.57559312  1
  O  O615  1  0.57156429  0.18555581  0.82395119  1
  O  O616  1  0.57257188  0.51929689  0.07508861  1
  O  O617  1  0.57174989  0.52034007  0.32502885  1
  O  O618  1  0.57099977  0.52040408  0.57276654  1
  O  O619  1  0.57358044  0.52099168  0.82488661  1
  O  O620  1  0.57199099  0.85313908  0.07360889  1
  O  O621  1  0.57228796  0.85299473  0.32410936  1
  O  O622  1  0.57060229  0.85359628  0.57294684  1
  O  O623  1  0.57208014  0.85495708  0.82426171  1
  O  O624  1  0.32250055  0.18592906  0.05209853  1
  O  O625  1  0.32361239  0.18701587  0.30199217  1
  O  O626  1  0.32184840  0.18646119  0.55217264  1
  O  O627  1  0.32312436  0.18786547  0.80027292  1
  O  O628  1  0.32179095  0.51937198  0.05243883  1
  O  O629  1  0.32235480  0.51973202  0.30149330  1
  O  O630  1  0.32333257  0.51986592  0.54924262  1
  O  O631  1  0.32367344  0.52106409  0.80089612  1
  O  O632  1  0.32361811  0.85300466  0.04988935  1
  O  O633  1  0.32342744  0.85465648  0.30101348  1
  O  O634  1  0.32166834  0.85313559  0.55141345  1
  O  O635  1  0.32244339  0.85392044  0.80149169  1
  O  O636  1  0.82331550  0.18456306  0.05025555  1
  O  O637  1  0.82315994  0.18472249  0.30126368  1
  O  O638  1  0.82362646  0.18602820  0.54992260  1
  O  O639  1  0.82347093  0.18516309  0.80033209  1
  O  O640  1  0.82437362  0.51988504  0.04941466  1
  O  O641  1  0.82382700  0.51996332  0.30034536  1
  O  O642  1  0.82204627  0.51962095  0.55197970  1
  O  O643  1  0.82336127  0.52030605  0.79845910  1
  O  O644  1  0.82349630  0.85375959  0.04831634  1
  O  O645  1  0.82392510  0.85337453  0.29956444  1
  O  O646  1  0.82274426  0.85234427  0.55071794  1
  O  O647  1  0.82203145  0.85251742  0.80086218  1
  O  O648  1  0.17758609  0.14873365  0.19992050  1
  O  O649  1  0.17797601  0.14724250  0.44916716  1
  O  O650  1  0.17841352  0.14730160  0.69787803  1
  O  O651  1  0.17688365  0.14597812  0.94892873  1
  O  O652  1  0.17923700  0.48013097  0.19863653  1
  O  O653  1  0.17762045  0.47944258  0.44846931  1
  O  O654  1  0.17799125  0.47941292  0.69967010  1
  O  O655  1  0.17738475  0.47840633  0.95060473  1
  O  O656  1  0.17788811  0.81230627  0.20037888  1
  O  O657  1  0.17675444  0.81245095  0.44900899  1
  O  O658  1  0.17684801  0.81507487  0.69937715  1
  O  O659  1  0.17797579  0.81301539  0.94906993  1
  O  O660  1  0.67623298  0.14778409  0.19864332  1
  O  O661  1  0.67629603  0.14799775  0.44919718  1
  O  O662  1  0.67592350  0.14623533  0.70078864  1
  O  O663  1  0.67726228  0.14712741  0.94770355  1
  O  O664  1  0.67624756  0.47961013  0.20056458  1
  O  O665  1  0.67625766  0.48061041  0.45051477  1
  O  O666  1  0.67595433  0.48104464  0.69900098  1
  O  O667  1  0.67579865  0.47980140  0.95034252  1
  O  O668  1  0.67558350  0.81371788  0.19965178  1
  O  O669  1  0.67573020  0.81340788  0.45067458  1
  O  O670  1  0.67647287  0.81454117  0.69783433  1
  O  O671  1  0.67616680  0.81483969  0.94823683  1
