# generated using pymatgen
data_Na2MnFe(PO4)2
_symmetry_space_group_name_H-M   'P 1'
_cell_length_a   22.34222138
_cell_length_b   20.09470010
_cell_length_c   19.45217083
_cell_angle_alpha   90.03033016
_cell_angle_beta   90.07434951
_cell_angle_gamma   90.01195338
_symmetry_Int_Tables_number   1
_chemical_formula_structural   Na2MnFe(PO4)2
_chemical_formula_sum   'Na96 Mn48 Fe48 P96 O384'
_cell_volume   8733.24248179
_cell_formula_units_Z   48
loop_
 _symmetry_equiv_pos_site_id
 _symmetry_equiv_pos_as_xyz
  1  'x, y, z'
loop_
 _atom_site_type_symbol
 _atom_site_label
 _atom_site_symmetry_multiplicity
 _atom_site_fract_x
 _atom_site_fract_y
 _atom_site_fract_z
 _atom_site_occupancy
  Na  Na0  1  0.14024236  0.25068158  0.24426493  1
  Na  Na1  1  0.13989627  0.25029707  0.49409136  1
  Na  Na2  1  0.14004112  0.25248989  0.74417097  1
  Na  Na3  1  0.14001001  0.25094649  0.99410139  1
  Na  Na4  1  0.13945584  0.58301625  0.24258477  1
  Na  Na5  1  0.13934280  0.58357208  0.49300933  1
  Na  Na6  1  0.13952659  0.58438183  0.74271559  1
  Na  Na7  1  0.13943425  0.58297598  0.99355733  1
  Na  Na8  1  0.14056922  0.91494255  0.24390619  1
  Na  Na9  1  0.14076244  0.91492059  0.49403920  1
  Na  Na10  1  0.14044752  0.91684878  0.74495990  1
  Na  Na11  1  0.14008830  0.91633979  0.99394084  1
  Na  Na12  1  0.64008887  0.24997442  0.24478955  1
  Na  Na13  1  0.64020031  0.24872291  0.49283489  1
  Na  Na14  1  0.64050968  0.24912971  0.74267780  1
  Na  Na15  1  0.64026746  0.24776718  0.99346883  1
  Na  Na16  1  0.63954444  0.58284872  0.24270412  1
  Na  Na17  1  0.64025150  0.58104085  0.49320325  1
  Na  Na18  1  0.63982458  0.58313763  0.74429079  1
  Na  Na19  1  0.63931633  0.58349285  0.99351875  1
  Na  Na20  1  0.64069977  0.91696980  0.24354395  1
  Na  Na21  1  0.64033004  0.91834706  0.49373098  1
  Na  Na22  1  0.64067539  0.91869927  0.74361509  1
  Na  Na23  1  0.64038855  0.91620278  0.99262581  1
  Na  Na24  1  0.36017759  0.08490366  0.00568353  1
  Na  Na25  1  0.35958308  0.08269579  0.25657589  1
  Na  Na26  1  0.36040301  0.08231939  0.50723274  1
  Na  Na27  1  0.36063429  0.08468752  0.75639409  1
  Na  Na28  1  0.35940441  0.41769692  0.00700400  1
  Na  Na29  1  0.36016423  0.41755880  0.25600168  1
  Na  Na30  1  0.36043634  0.41708913  0.50603560  1
  Na  Na31  1  0.35999346  0.41824018  0.75555937  1
  Na  Na32  1  0.36064827  0.74927250  0.00793404  1
  Na  Na33  1  0.36034660  0.74929022  0.25614277  1
  Na  Na34  1  0.35942203  0.74923661  0.50442539  1
  Na  Na35  1  0.35965710  0.75050792  0.75579673  1
  Na  Na36  1  0.86009520  0.08296755  0.00613436  1
  Na  Na37  1  0.85953179  0.08444084  0.25607941  1
  Na  Na38  1  0.85958118  0.08362906  0.50602242  1
  Na  Na39  1  0.85968412  0.08337737  0.75589881  1
  Na  Na40  1  0.85932328  0.41728376  0.00622291  1
  Na  Na41  1  0.85965747  0.41630799  0.25695216  1
  Na  Na42  1  0.86019215  0.41522254  0.50725594  1
  Na  Na43  1  0.86018417  0.41699391  0.75679419  1
  Na  Na44  1  0.86014176  0.74948410  0.00676847  1
  Na  Na45  1  0.85987596  0.74955232  0.25587486  1
  Na  Na46  1  0.85942728  0.74907297  0.50635521  1
  Na  Na47  1  0.85965052  0.75015642  0.75661657  1
  Na  Na48  1  0.10903921  0.08268986  0.11845023  1
  Na  Na49  1  0.10951787  0.08388752  0.36974739  1
  Na  Na50  1  0.10961958  0.08450627  0.61920422  1
  Na  Na51  1  0.10936014  0.08423228  0.86991342  1
  Na  Na52  1  0.10936354  0.41761735  0.11795355  1
  Na  Na53  1  0.10901066  0.41767236  0.36883275  1
  Na  Na54  1  0.10882805  0.41771885  0.61853151  1
  Na  Na55  1  0.10908278  0.41801470  0.86851525  1
  Na  Na56  1  0.10919713  0.74870479  0.11835511  1
  Na  Na57  1  0.10967510  0.74818616  0.36821898  1
  Na  Na58  1  0.10948783  0.74879304  0.61786863  1
  Na  Na59  1  0.10938265  0.74923905  0.86940307  1
  Na  Na60  1  0.60984629  0.08288702  0.11819644  1
  Na  Na61  1  0.61010387  0.08379338  0.36883103  1
  Na  Na62  1  0.61000721  0.08447101  0.61779749  1
  Na  Na63  1  0.61005704  0.08382608  0.86723486  1
  Na  Na64  1  0.60895192  0.41611824  0.11930775  1
  Na  Na65  1  0.60933397  0.41667702  0.36895110  1
  Na  Na66  1  0.60942515  0.41625240  0.61818285  1
  Na  Na67  1  0.60896069  0.41646819  0.86875666  1
  Na  Na68  1  0.60940647  0.74836519  0.11804339  1
  Na  Na69  1  0.60934920  0.74913761  0.36773018  1
  Na  Na70  1  0.60931707  0.74983518  0.61900685  1
  Na  Na71  1  0.60944213  0.74942335  0.86916535  1
  Na  Na72  1  0.39053640  0.25084294  0.13096505  1
  Na  Na73  1  0.39101015  0.25052033  0.38176505  1
  Na  Na74  1  0.39120345  0.25050339  0.63134258  1
  Na  Na75  1  0.39076620  0.25104462  0.88130822  1
  Na  Na76  1  0.39041090  0.58323569  0.13243511  1
  Na  Na77  1  0.39033355  0.58298497  0.38014567  1
  Na  Na78  1  0.39038135  0.58270876  0.63004460  1
  Na  Na79  1  0.39069436  0.58370563  0.88207909  1
  Na  Na80  1  0.39122798  0.91517423  0.13154185  1
  Na  Na81  1  0.39085485  0.91611339  0.38131732  1
  Na  Na82  1  0.39060540  0.91782064  0.63107629  1
  Na  Na83  1  0.39129992  0.91736287  0.88118359  1
  Na  Na84  1  0.88998220  0.24938068  0.13150795  1
  Na  Na85  1  0.89031676  0.25082801  0.38286033  1
  Na  Na86  1  0.89034965  0.25040237  0.63082145  1
  Na  Na87  1  0.89039087  0.25034202  0.88152970  1
  Na  Na88  1  0.89004819  0.58362840  0.13078399  1
  Na  Na89  1  0.89063897  0.58226251  0.38106583  1
  Na  Na90  1  0.89035764  0.58214070  0.63178509  1
  Na  Na91  1  0.89031901  0.58431710  0.88117177  1
  Na  Na92  1  0.89062197  0.91605537  0.13053527  1
  Na  Na93  1  0.89043758  0.91677501  0.38177691  1
  Na  Na94  1  0.89044029  0.91628758  0.63121280  1
  Na  Na95  1  0.89105100  0.91703702  0.88250102  1
  Mn  Mn96  1  0.50011499  0.66567568  0.49901965  1
  Mn  Mn97  1  0.49934980  0.16696954  0.25040754  1
  Mn  Mn98  1  0.75024888  0.83296136  0.12457738  1
  Mn  Mn99  1  0.75012877  0.00089249  0.12435475  1
  Mn  Mn100  1  0.25006028  0.66701960  0.62434997  1
  Mn  Mn101  1  0.49976064  0.83385531  0.49985696  1
  Mn  Mn102  1  0.49989580  0.83409782  0.74975755  1
  Mn  Mn103  1  0.74986552  0.33247540  0.62546387  1
  Mn  Mn104  1  0.25011039  0.66674125  0.87458715  1
  Mn  Mn105  1  0.75038967  0.83331628  0.87476421  1
  Mn  Mn106  1  0.74953043  0.83456095  0.62573919  1
  Mn  Mn107  1  0.24961130  -0.00151446  0.37607863  1
  Mn  Mn108  1  0.49948193  0.66566526  0.74984481  1
  Mn  Mn109  1  0.74994082  0.33195037  0.12544154  1
  Mn  Mn110  1  0.50000279  0.33350030  0.74983174  1
  Mn  Mn111  1  0.24971376  -0.00072753  0.62561309  1
  Mn  Mn112  1  0.25033869  0.16753742  0.62577539  1
  Mn  Mn113  1  0.75051600  0.49855264  0.37463746  1
  Mn  Mn114  1  -0.00022096  -0.00034938  0.25019331  1
  Mn  Mn115  1  0.25017308  0.33391951  0.37484638  1
  Mn  Mn116  1  0.24940515  0.16770410  0.12552704  1
  Mn  Mn117  1  0.00023706  0.83195948  0.25036688  1
  Mn  Mn118  1  0.25058831  0.83331569  0.87557020  1
  Mn  Mn119  1  -0.00042251  0.16809995  0.75009149  1
  Mn  Mn120  1  0.00063460  0.83204300  0.75077427  1
  Mn  Mn121  1  0.50029524  0.00001539  -0.00006635  1
  Mn  Mn122  1  0.24902287  0.50069738  0.37417289  1
  Mn  Mn123  1  0.74928936  0.83423442  0.37553912  1
  Mn  Mn124  1  0.49985730  -0.00080536  0.24908714  1
  Mn  Mn125  1  -0.00086893  0.33441760  0.00043930  1
  Mn  Mn126  1  0.74939212  0.33212364  0.87514795  1
  Mn  Mn127  1  0.50006241  0.33316714  -0.00027183  1
  Mn  Mn128  1  0.74909086  0.66608444  0.62535639  1
  Mn  Mn129  1  0.00004665  0.83172166  0.50068006  1
  Mn  Mn130  1  0.00082423  0.00021066  0.50075915  1
  Mn  Mn131  1  0.25037565  0.33485827  0.62446881  1
  Mn  Mn132  1  0.24970645  0.16874066  0.87593532  1
  Mn  Mn133  1  0.25025266  -0.00024809  0.12561982  1
  Mn  Mn134  1  0.25058458  0.16638430  0.37484292  1
  Mn  Mn135  1  0.25059002  0.00068319  0.87492464  1
  Mn  Mn136  1  0.00025613  0.33442671  0.25048523  1
  Mn  Mn137  1  -0.00009027  0.16698034  0.25045813  1
  Mn  Mn138  1  0.25058015  0.83224955  0.12497964  1
  Mn  Mn139  1  0.74901238  0.50014822  0.12555532  1
  Mn  Mn140  1  0.74946032  0.50056860  0.87611032  1
  Mn  Mn141  1  0.25048115  0.50017301  0.87512797  1
  Mn  Mn142  1  0.74957477  0.66614135  0.37582233  1
  Mn  Mn143  1  0.00018703  0.00018477  0.75088860  1
  Fe  Fe144  1  0.00010835  0.50060682  0.74927886  1
  Fe  Fe145  1  0.25013352  0.83283941  0.62461365  1
  Fe  Fe146  1  -0.00052233  0.50012985  0.50028168  1
  Fe  Fe147  1  0.74959544  0.66673760  0.12510622  1
  Fe  Fe148  1  0.50053711  0.83282532  0.00036775  1
  Fe  Fe149  1  0.25038062  0.33402689  0.12495838  1
  Fe  Fe150  1  0.74995458  0.49936826  0.62542658  1
  Fe  Fe151  1  0.50009726  0.49955915  0.24986520  1
  Fe  Fe152  1  -0.00004149  0.33409026  0.75021519  1
  Fe  Fe153  1  0.75044955  0.16606228  0.62411547  1
  Fe  Fe154  1  -0.00079716  0.50047559  0.24962158  1
  Fe  Fe155  1  0.74988414  0.16647608  0.12515981  1
  Fe  Fe156  1  0.50045666  0.49968313  0.49920612  1
  Fe  Fe157  1  -0.00061141  0.66615633  0.75006415  1
  Fe  Fe158  1  0.50073181  0.16691514  0.74922108  1
  Fe  Fe159  1  0.24978483  0.33478820  0.87506035  1
  Fe  Fe160  1  -0.00011133  0.16754525  0.50045437  1
  Fe  Fe161  1  0.49984226  0.16674983  0.50013101  1
  Fe  Fe162  1  -0.00064567  0.66571774  0.24900707  1
  Fe  Fe163  1  0.75070740  0.00087459  0.62433710  1
  Fe  Fe164  1  -0.00083828  0.50063541  -0.00092855  1
  Fe  Fe165  1  0.50096874  0.83268204  0.25004575  1
  Fe  Fe166  1  0.25001875  0.66632878  0.37452248  1
  Fe  Fe167  1  0.75050326  0.16558671  0.87403868  1
  Fe  Fe168  1  0.50023785  0.66609012  0.24951543  1
  Fe  Fe169  1  0.50012151  0.16657251  -0.00026404  1
  Fe  Fe170  1  0.50070936  0.00040071  0.49998652  1
  Fe  Fe171  1  0.50014646  0.33385738  0.50008638  1
  Fe  Fe172  1  0.50046047  0.00105535  0.75020764  1
  Fe  Fe173  1  0.00002338  0.16737524  0.00042836  1
  Fe  Fe174  1  0.74993241  0.66679417  0.87487735  1
  Fe  Fe175  1  0.00022001  -0.00005594  0.00047787  1
  Fe  Fe176  1  0.49955886  0.49972083  0.00060074  1
  Fe  Fe177  1  0.75054820  0.00036111  0.87438804  1
  Fe  Fe178  1  0.49973391  0.66625886  0.00032893  1
  Fe  Fe179  1  0.74969507  0.33227114  0.37563728  1
  Fe  Fe180  1  0.50018774  0.33347340  0.25048389  1
  Fe  Fe181  1  0.00007288  0.83255966  0.00017426  1
  Fe  Fe182  1  0.24948726  0.50004904  0.12458902  1
  Fe  Fe183  1  -0.00069322  0.66546652  0.49948523  1
  Fe  Fe184  1  0.00014615  0.33431187  0.50045785  1
  Fe  Fe185  1  0.75068069  0.00069165  0.37452974  1
  Fe  Fe186  1  -0.00015656  0.66601855  -0.00053077  1
  Fe  Fe187  1  0.50013158  0.49982182  0.74990147  1
  Fe  Fe188  1  0.24942106  0.66606204  0.12560763  1
  Fe  Fe189  1  0.75027484  0.16646480  0.37507340  1
  Fe  Fe190  1  0.25012316  0.83200798  0.37431659  1
  Fe  Fe191  1  0.24971377  0.50076065  0.62457071  1
  P  P192  1  0.04200625  0.24978784  0.10264403  1
  P  P193  1  0.04250056  0.25089943  0.35438337  1
  P  P194  1  0.04112686  0.25117336  0.60212322  1
  P  P195  1  0.04179669  0.25200222  0.85314695  1
  P  P196  1  0.04063191  0.58300486  0.10153532  1
  P  P197  1  0.04100430  0.58313601  0.35152636  1
  P  P198  1  0.04096025  0.58330616  0.60188703  1
  P  P199  1  0.04122495  0.58350914  0.85173049  1
  P  P200  1  0.04140947  0.91571394  0.10165336  1
  P  P201  1  0.04287551  0.91599523  0.35349085  1
  P  P202  1  0.04316356  0.91587924  0.60372726  1
  P  P203  1  0.04257195  0.91626021  0.85470032  1
  P  P204  1  0.54220968  0.24894879  0.10254115  1
  P  P205  1  0.54175200  0.25153523  0.35354352  1
  P  P206  1  0.54144757  0.25014776  0.60149329  1
  P  P207  1  0.54238377  0.24890734  0.85214956  1
  P  P208  1  0.54079734  0.58286378  0.10236123  1
  P  P209  1  0.54141784  0.58245270  0.35119205  1
  P  P210  1  0.54232704  0.58142437  0.60217254  1
  P  P211  1  0.54160844  0.58171954  0.85336185  1
  P  P212  1  0.54273327  0.91469085  0.10254814  1
  P  P213  1  0.54257280  0.91594742  0.35240889  1
  P  P214  1  0.54220745  0.91880057  0.60278328  1
  P  P215  1  0.54254715  0.91808575  0.85253484  1
  P  P216  1  0.45715627  0.08357352  0.14640854  1
  P  P217  1  0.45875464  0.08316702  0.39854658  1
  P  P218  1  0.45916183  0.08374541  0.64759835  1
  P  P219  1  0.45849304  0.08481061  0.89658887  1
  P  P220  1  0.45877065  0.41656880  0.14836936  1
  P  P221  1  0.45863794  0.41659642  0.39759263  1
  P  P222  1  0.45831322  0.41785234  0.64665155  1
  P  P223  1  0.45763793  0.41807853  0.89762447  1
  P  P224  1  0.45938637  0.74955549  0.14782395  1
  P  P225  1  0.45801275  0.74971959  0.39565373  1
  P  P226  1  0.45719019  0.74989944  0.64673978  1
  P  P227  1  0.45874215  0.75010383  0.89876280  1
  P  P228  1  0.95749373  0.08320247  0.14617891  1
  P  P229  1  0.95797253  0.08470350  0.39824557  1
  P  P230  1  0.95769407  0.08400428  0.64685155  1
  P  P231  1  0.95903018  0.08391596  0.89896833  1
  P  P232  1  0.95725468  0.41844334  0.14726147  1
  P  P233  1  0.95854930  0.41742621  0.39849434  1
  P  P234  1  0.95856767  0.41669261  0.64795231  1
  P  P235  1  0.95734112  0.41844182  0.89658948  1
  P  P236  1  0.95787087  0.74846774  0.14653501  1
  P  P237  1  0.95753720  0.74754789  0.39717377  1
  P  P238  1  0.95754725  0.74777719  0.64742781  1
  P  P239  1  0.95853023  0.74941567  0.89832231  1
  P  P240  1  0.20680667  0.08309402  0.22855984  1
  P  P241  1  0.20736142  0.08305993  0.47867415  1
  P  P242  1  0.20720315  0.08411691  0.72866675  1
  P  P243  1  0.20724222  0.08410579  0.97850359  1
  P  P244  1  0.20827686  0.41688562  0.22616085  1
  P  P245  1  0.20700148  0.41757809  0.47808369  1
  P  P246  1  0.20746848  0.41877582  0.72735630  1
  P  P247  1  0.20757149  0.41614673  0.97819638  1
  P  P248  1  0.20771728  0.74831955  0.22799867  1
  P  P249  1  0.20838617  0.74954933  0.47628354  1
  P  P250  1  0.20736527  0.75124193  0.72703450  1
  P  P251  1  0.20757891  0.74915043  0.97877527  1
  P  P252  1  0.70778291  0.08496520  0.22789820  1
  P  P253  1  0.70904038  0.08321119  0.47671147  1
  P  P254  1  0.70895890  0.08354775  0.72640397  1
  P  P255  1  0.70849948  0.08315268  0.97609476  1
  P  P256  1  0.70711850  0.41538159  0.22880511  1
  P  P257  1  0.70813103  0.41466532  0.47801016  1
  P  P258  1  0.70767816  0.41752380  0.72770490  1
  P  P259  1  0.70663938  0.41587258  0.97845051  1
  P  P260  1  0.70751051  0.74918252  0.22739251  1
  P  P261  1  0.70644459  0.75018061  0.47854741  1
  P  P262  1  0.70686194  0.75022862  0.72872140  1
  P  P263  1  0.70811189  0.74832814  0.97765516  1
  P  P264  1  0.29214076  0.25242721  0.02242143  1
  P  P265  1  0.29323414  0.25086908  0.27141387  1
  P  P266  1  0.29336351  0.25031121  0.52200147  1
  P  P267  1  0.29254711  0.25286344  0.77292027  1
  P  P268  1  0.29130654  0.58352403  0.02385714  1
  P  P269  1  0.29153606  0.58458278  0.27126512  1
  P  P270  1  0.29205306  0.58260677  0.52169842  1
  P  P271  1  0.29290665  0.58340907  0.77122127  1
  P  P272  1  0.29355755  0.91673999  0.02224474  1
  P  P273  1  0.29267884  0.91468094  0.27291099  1
  P  P274  1  0.29233257  0.91436417  0.52224703  1
  P  P275  1  0.29335690  0.91638339  0.77152884  1
  P  P276  1  0.79212121  0.24763706  0.02212757  1
  P  P277  1  0.79182761  0.24962101  0.27372603  1
  P  P278  1  0.79179539  0.24841632  0.52182494  1
  P  P279  1  0.79221454  0.24822922  0.77203256  1
  P  P280  1  0.79145360  0.58469739  0.02268873  1
  P  P281  1  0.79215191  0.58357592  0.27163603  1
  P  P282  1  0.79200540  0.58123104  0.52303794  1
  P  P283  1  0.79186483  0.58408823  0.77261638  1
  P  P284  1  0.79266850  0.91688764  0.02118582  1
  P  P285  1  0.79254455  0.91808529  0.27250359  1
  P  P286  1  0.79238220  0.91838526  0.52221532  1
  P  P287  1  0.79280238  0.91861344  0.77220191  1
  O  O288  1  0.03707429  0.25005690  0.18260073  1
  O  O289  1  0.03717017  0.25094730  0.43427653  1
  O  O290  1  0.03614448  0.25196883  0.68207058  1
  O  O291  1  0.03640881  0.25147030  0.93303285  1
  O  O292  1  0.03556091  0.58332675  0.18136371  1
  O  O293  1  0.03595146  0.58318823  0.43136620  1
  O  O294  1  0.03612951  0.58344690  0.68172593  1
  O  O295  1  0.03631096  0.58310597  0.93157744  1
  O  O296  1  0.03653836  0.91591914  0.18164551  1
  O  O297  1  0.03792052  0.91591343  0.43343984  1
  O  O298  1  0.03799055  0.91573200  0.68370017  1
  O  O299  1  0.03699091  0.91611496  0.93456775  1
  O  O300  1  0.53687810  0.24965457  0.18242205  1
  O  O301  1  0.53617764  0.25159400  0.43335137  1
  O  O302  1  0.53677578  0.24949854  0.68147390  1
  O  O303  1  0.53734262  0.24880628  0.93206445  1
  O  O304  1  0.53601548  0.58350077  0.18224596  1
  O  O305  1  0.53680119  0.58213125  0.43114080  1
  O  O306  1  0.53704290  0.58146998  0.68210162  1
  O  O307  1  0.53604176  0.58192345  0.93319619  1
  O  O308  1  0.53733143  0.91454650  0.18244603  1
  O  O309  1  0.53732807  0.91686458  0.43233521  1
  O  O310  1  0.53678249  0.91920537  0.68266947  1
  O  O311  1  0.53761526  0.91759617  0.93244435  1
  O  O312  1  0.46243688  0.08386266  0.06650091  1
  O  O313  1  0.46314804  0.08339058  0.31856220  1
  O  O314  1  0.46419669  0.08355764  0.56767955  1
  O  O315  1  0.46407715  0.08450839  0.81671431  1
  O  O316  1  0.46379744  0.41690441  0.06845281  1
  O  O317  1  0.46381771  0.41622147  0.31773121  1
  O  O318  1  0.46392769  0.41736676  0.56683425  1
  O  O319  1  0.46289450  0.41818814  0.81772482  1
  O  O320  1  0.46437547  0.74955516  0.06789292  1
  O  O321  1  0.46375437  0.74970613  0.31580698  1
  O  O322  1  0.46243063  0.74983908  0.56684142  1
  O  O323  1  0.46318364  0.74979430  0.81878813  1
  O  O324  1  0.96303551  0.08341418  0.06629885  1
  O  O325  1  0.96292169  0.08430565  0.31825678  1
  O  O326  1  0.96313901  0.08453405  0.56698648  1
  O  O327  1  0.96378498  0.08376294  0.81898983  1
  O  O328  1  0.96227010  0.41839438  0.06733198  1
  O  O329  1  0.96300331  0.41756766  0.31853756  1
  O  O330  1  0.96351806  0.41684030  0.56808512  1
  O  O331  1  0.96291119  0.41783522  0.81679333  1
  O  O332  1  0.96333407  0.74898814  0.06671689  1
  O  O333  1  0.96286564  0.74762703  0.31722807  1
  O  O334  1  0.96272007  0.74764782  0.56747530  1
  O  O335  1  0.96335251  0.74884446  0.81837611  1
  O  O336  1  0.21220801  0.08415529  0.05849107  1
  O  O337  1  0.21205388  0.08282266  0.30854979  1
  O  O338  1  0.21243007  0.08312664  0.55866893  1
  O  O339  1  0.21230770  0.08436950  0.80865821  1
  O  O340  1  0.21292666  0.41643493  0.05807636  1
  O  O341  1  0.21271484  0.41733717  0.30615893  1
  O  O342  1  0.21205576  0.41840804  0.55799924  1
  O  O343  1  0.21261584  0.41799977  0.80730253  1
  O  O344  1  0.21261717  0.74842046  0.05872668  1
  O  O345  1  0.21297526  0.74847922  0.30789681  1
  O  O346  1  0.21354506  0.75019328  0.55624154  1
  O  O347  1  0.21249291  0.75075757  0.80699681  1
  O  O348  1  0.71301165  0.08363452  0.05607880  1
  O  O349  1  0.71318891  0.08470851  0.30773617  1
  O  O350  1  0.71451176  0.08314510  0.55655965  1
  O  O351  1  0.71435254  0.08346882  0.80628435  1
  O  O352  1  0.71182382  0.41583987  0.05839599  1
  O  O353  1  0.71251141  0.41481395  0.30874197  1
  O  O354  1  0.71332750  0.41561063  0.55796661  1
  O  O355  1  0.71261498  0.41717794  0.80766085  1
  O  O356  1  0.71351193  0.74803300  0.05762451  1
  O  O357  1  0.71211729  0.74954167  0.30740711  1
  O  O358  1  0.71135255  0.75025788  0.55853407  1
  O  O359  1  0.71240196  0.74980259  0.80866186  1
  O  O360  1  0.28791916  0.25136634  0.19144984  1
  O  O361  1  0.28848849  0.25011715  0.44202600  1
  O  O362  1  0.28763665  0.25234201  0.69294412  1
  O  O363  1  0.28665891  0.25295873  0.94249044  1
  O  O364  1  0.28613024  0.58439383  0.19139354  1
  O  O365  1  0.28673794  0.58321694  0.44177248  1
  O  O366  1  0.28776507  0.58312459  0.69128530  1
  O  O367  1  0.28721130  0.58317963  0.94379632  1
  O  O368  1  0.28771591  0.91514630  0.19294828  1
  O  O369  1  0.28690016  0.91410815  0.44229798  1
  O  O370  1  0.28785228  0.91568567  0.69156890  1
  O  O371  1  0.28865503  0.91681874  0.94225522  1
  O  O372  1  0.78697812  0.24930364  0.19373252  1
  O  O373  1  0.78631431  0.24886628  0.44197155  1
  O  O374  1  0.78694035  0.24825663  0.69207662  1
  O  O375  1  0.78686256  0.24749002  0.94218294  1
  O  O376  1  0.78655463  0.58417659  0.19172855  1
  O  O377  1  0.78704030  0.58128864  0.44306255  1
  O  O378  1  0.78649235  0.58318666  0.69271290  1
  O  O379  1  0.78650109  0.58496898  0.94272365  1
  O  O380  1  0.78725513  0.91767811  0.19253012  1
  O  O381  1  0.78699508  0.91839834  0.44226689  1
  O  O382  1  0.78743231  0.91880348  0.69224195  1
  O  O383  1  0.78763307  0.91713494  0.94124336  1
  O  O384  1  0.22790855  0.25269555  0.05820990  1
  O  O385  1  0.22883063  0.25027305  0.30652091  1
  O  O386  1  0.22884016  0.25066020  0.55671039  1
  O  O387  1  0.22808075  0.25320968  0.80806314  1
  O  O388  1  0.22682412  0.58397377  0.05869260  1
  O  O389  1  0.22737584  0.58524187  0.30724430  1
  O  O390  1  0.22783187  0.58238183  0.55752955  1
  O  O391  1  0.22848162  0.58339502  0.80627053  1
  O  O392  1  0.22900595  0.91624107  0.05688528  1
  O  O393  1  0.22825089  0.91429611  0.30806563  1
  O  O394  1  0.22810030  0.91435454  0.55803849  1
  O  O395  1  0.22903143  0.91659016  0.80686262  1
  O  O396  1  0.72786813  0.24776742  0.05787710  1
  O  O397  1  0.72758994  0.24971958  0.30950666  1
  O  O398  1  0.72774960  0.24819568  0.55809034  1
  O  O399  1  0.72793200  0.24792361  0.80762257  1
  O  O400  1  0.72711323  0.58453259  0.05809668  1
  O  O401  1  0.72791313  0.58267385  0.30710371  1
  O  O402  1  0.72759445  0.58089060  0.55822383  1
  O  O403  1  0.72764210  0.58488402  0.80843260  1
  O  O404  1  0.72836837  0.91684248  0.05647100  1
  O  O405  1  0.72822149  0.91886952  0.30799833  1
  O  O406  1  0.72815985  0.91879234  0.55801667  1
  O  O407  1  0.72855359  0.91846644  0.80787439  1
  O  O408  1  0.27130401  0.08365740  0.19376958  1
  O  O409  1  0.27181888  0.08254630  0.44374695  1
  O  O410  1  0.27167655  0.08373231  0.69383864  1
  O  O411  1  0.27168926  0.08463811  0.94357093  1
  O  O412  1  0.27263512  0.41648507  0.19093935  1
  O  O413  1  0.27139837  0.41775137  0.44301736  1
  O  O414  1  0.27180082  0.41959643  0.69178730  1
  O  O415  1  0.27183969  0.41561128  0.94229436  1
  O  O416  1  0.27200436  0.74776630  0.19231628  1
  O  O417  1  0.27248956  0.74922200  0.44010034  1
  O  O418  1  0.27177829  0.75133448  0.69176426  1
  O  O419  1  0.27206621  0.74933480  0.94385544  1
  O  O420  1  0.77196575  0.08508442  0.19185501  1
  O  O421  1  0.77297995  0.08328467  0.44009218  1
  O  O422  1  0.77301596  0.08373535  0.69002727  1
  O  O423  1  0.77284707  0.08270190  0.94052109  1
  O  O424  1  0.77137589  0.41608172  0.19340161  1
  O  O425  1  0.77237302  0.41415715  0.44230061  1
  O  O426  1  0.77202684  0.41728589  0.69236254  1
  O  O427  1  0.77102459  0.41597345  0.94342592  1
  O  O428  1  0.77196771  0.74888224  0.19237684  1
  O  O429  1  0.77094648  0.75028656  0.44379940  1
  O  O430  1  0.77111097  0.75023150  0.69331188  1
  O  O431  1  0.77232582  0.74833016  0.94186116  1
  O  O432  1  0.02169037  0.08320711  0.18211963  1
  O  O433  1  0.02229125  0.08521588  0.43380616  1
  O  O434  1  0.02190112  0.08425910  0.68256115  1
  O  O435  1  0.02309020  0.08437513  0.93502298  1
  O  O436  1  0.02159471  0.41895202  0.18298658  1
  O  O437  1  0.02273950  0.41764849  0.43425263  1
  O  O438  1  0.02258870  0.41629238  0.68441845  1
  O  O439  1  0.02139767  0.41870871  0.93306374  1
  O  O440  1  0.02198068  0.74800209  0.18285960  1
  O  O441  1  0.02179513  0.74729936  0.43305618  1
  O  O442  1  0.02188814  0.74745244  0.68313351  1
  O  O443  1  0.02266800  0.75003120  0.93435468  1
  O  O444  1  0.52147972  0.08348366  0.18184540  1
  O  O445  1  0.52306303  0.08277433  0.43410303  1
  O  O446  1  0.52328177  0.08380779  0.68394776  1
  O  O447  1  0.52257029  0.08489240  0.93305252  1
  O  O448  1  0.52284737  0.41623357  0.18463682  1
  O  O449  1  0.52272199  0.41660503  0.43410025  1
  O  O450  1  0.52233093  0.41811815  0.68327748  1
  O  O451  1  0.52188388  0.41823086  0.93351873  1
  O  O452  1  0.52340484  0.74975136  0.18426682  1
  O  O453  1  0.52206047  0.74984353  0.43188367  1
  O  O454  1  0.52148129  0.74970721  0.68220932  1
  O  O455  1  0.52300373  0.75011209  0.93440285  1
  O  O456  1  0.47801391  0.24844188  0.06643291  1
  O  O457  1  0.47772138  0.25191202  0.31700080  1
  O  O458  1  0.47729943  0.25075462  0.56563949  1
  O  O459  1  0.47813417  0.24883453  0.81632475  1
  O  O460  1  0.47671798  0.58249621  0.06607051  1
  O  O461  1  0.47724484  0.58274255  0.31528393  1
  O  O462  1  0.47808947  0.58131680  0.56623098  1
  O  O463  1  0.47752923  0.58110641  0.81686294  1
  O  O464  1  0.47849844  0.91495221  0.06665263  1
  O  O465  1  0.47831295  0.91486810  0.31654208  1
  O  O466  1  0.47802775  0.91893592  0.56668342  1
  O  O467  1  0.47824478  0.91857323  0.81686045  1
  O  O468  1  0.97764414  0.24937794  0.06712583  1
  O  O469  1  0.97824015  0.25109635  0.31860043  1
  O  O470  1  0.97704480  0.25040655  0.56597643  1
  O  O471  1  0.97756923  0.25273571  0.81714318  1
  O  O472  1  0.97661597  0.58266436  0.06503891  1
  O  O473  1  0.97687680  0.58287630  0.31508846  1
  O  O474  1  0.97680006  0.58355719  0.56566576  1
  O  O475  1  0.97711333  0.58387705  0.81544652  1
  O  O476  1  0.97729241  0.91529993  0.06566783  1
  O  O477  1  0.97839251  0.91573528  0.31846249  1
  O  O478  1  0.97876444  0.91601248  0.56852727  1
  O  O479  1  0.97841952  0.91596236  0.81862342  1
  O  O480  1  0.07268650  0.31367499  0.07503609  1
  O  O481  1  0.07375397  0.31424970  0.32583668  1
  O  O482  1  0.07156295  0.31492606  0.57338429  1
  O  O483  1  0.07283254  0.31542618  0.82484900  1
  O  O484  1  0.07125933  0.64667840  0.07272448  1
  O  O485  1  0.07176519  0.64664755  0.32272314  1
  O  O486  1  0.07223787  0.64649937  0.57310151  1
  O  O487  1  0.07248034  0.64697916  0.82354955  1
  O  O488  1  0.07172354  0.97974028  0.07345889  1
  O  O489  1  0.07363231  0.97962778  0.32542342  1
  O  O490  1  0.07435488  0.97938427  0.57605817  1
  O  O491  1  0.07363170  0.97985477  0.82659975  1
  O  O492  1  0.57319636  0.31250619  0.07439663  1
  O  O493  1  0.57292654  0.31468286  0.32464800  1
  O  O494  1  0.57268270  0.31376368  0.57388336  1
  O  O495  1  0.57314753  0.31290187  0.82452922  1
  O  O496  1  0.57134393  0.64648094  0.07322572  1
  O  O497  1  0.57234469  0.64612989  0.32307714  1
  O  O498  1  0.57325101  0.64525665  0.57448944  1
  O  O499  1  0.57234940  0.64558363  0.82533607  1
  O  O500  1  0.57387980  0.97846361  0.07507245  1
  O  O501  1  0.57316716  0.97963004  0.32392832  1
  O  O502  1  0.57339191  0.98188653  0.57383078  1
  O  O503  1  0.57333013  0.98163642  0.82403561  1
  O  O504  1  0.42630210  0.01978748  0.17434743  1
  O  O505  1  0.42768702  0.01964190  0.42654647  1
  O  O506  1  0.42815022  0.02032910  0.67628716  1
  O  O507  1  0.42709926  0.02138658  0.92463580  1
  O  O508  1  0.42800077  0.35285145  0.17642241  1
  O  O509  1  0.42753797  0.35336078  0.42653466  1
  O  O510  1  0.42729471  0.35419336  0.67483481  1
  O  O511  1  0.42706834  0.35399461  0.92520931  1
  O  O512  1  0.42867195  0.68571409  0.17609555  1
  O  O513  1  0.42681710  0.68616755  0.42364067  1
  O  O514  1  0.42599647  0.68644626  0.67470918  1
  O  O515  1  0.42816593  0.68632973  0.92729806  1
  O  O516  1  0.92636597  0.01968553  0.17441682  1
  O  O517  1  0.92719856  0.02086646  0.42587300  1
  O  O518  1  0.92694506  0.02019145  0.67471691  1
  O  O519  1  0.92875330  0.01985774  0.92706199  1
  O  O520  1  0.92673772  0.35444910  0.17520266  1
  O  O521  1  0.92824107  0.35355068  0.42719130  1
  O  O522  1  0.92714178  0.35339638  0.67626646  1
  O  O523  1  0.92599930  0.35512483  0.92506806  1
  O  O524  1  0.92678318  0.68507714  0.17500262  1
  O  O525  1  0.92632770  0.68434146  0.42569282  1
  O  O526  1  0.92634192  0.68467621  0.67617059  1
  O  O527  1  0.92812485  0.68562357  0.92694684  1
  O  O528  1  0.17617595  0.01934676  0.20033047  1
  O  O529  1  0.17599651  0.01961023  0.45078654  1
  O  O530  1  0.17593530  0.02069549  0.70065553  1
  O  O531  1  0.17664013  0.02036199  0.95043133  1
  O  O532  1  0.17714601  0.35337725  0.19820994  1
  O  O533  1  0.17645420  0.35359232  0.45026611  1
  O  O534  1  0.17666774  0.35513647  0.69898386  1
  O  O535  1  0.17636752  0.35301201  0.94925794  1
  O  O536  1  0.17647103  0.68515304  0.19902662  1
  O  O537  1  0.17768863  0.68550793  0.44860529  1
  O  O538  1  0.17642847  0.68757652  0.69888390  1
  O  O539  1  0.17634978  0.68606567  0.94973568  1
  O  O540  1  0.67658587  0.02146842  0.19950884  1
  O  O541  1  0.67811323  0.01968690  0.44807194  1
  O  O542  1  0.67814002  0.01991164  0.69790523  1
  O  O543  1  0.67776478  0.01934163  0.94789019  1
  O  O544  1  0.67614849  0.35206082  0.20016234  1
  O  O545  1  0.67736138  0.35091357  0.44997689  1
  O  O546  1  0.67640952  0.35394530  0.69988566  1
  O  O547  1  0.67571146  0.35233183  0.95020860  1
  O  O548  1  0.67673838  0.68560536  0.19887267  1
  O  O549  1  0.67561469  0.68646727  0.45049885  1
  O  O550  1  0.67529829  0.68710213  0.70034641  1
  O  O551  1  0.67696564  0.68517438  0.94878987  1
  O  O552  1  0.32348530  0.31547998  0.05131828  1
  O  O553  1  0.32407945  0.31431602  0.30005883  1
  O  O554  1  0.32439212  0.31387998  0.55002401  1
  O  O555  1  0.32327886  0.31650892  0.80113701  1
  O  O556  1  0.32253544  0.64681577  0.05220744  1
  O  O557  1  0.32295186  0.64756998  0.30027558  1
  O  O558  1  0.32340961  0.64608370  0.54965447  1
  O  O559  1  0.32375153  0.64715130  0.79941785  1
  O  O560  1  0.32428644  0.98037048  0.05048320  1
  O  O561  1  0.32360113  0.97834507  0.30102206  1
  O  O562  1  0.32321234  0.97830150  0.54989912  1
  O  O563  1  0.32430423  0.98020836  0.79919887  1
  O  O564  1  0.82319909  0.31149793  0.04975837  1
  O  O565  1  0.82246410  0.31350164  0.30198565  1
  O  O566  1  0.82304887  0.31185382  0.55020159  1
  O  O567  1  0.82291858  0.31216350  0.79992638  1
  O  O568  1  0.82233062  0.64794943  0.05177123  1
  O  O569  1  0.82303016  0.64693309  0.30035695  1
  O  O570  1  0.82272473  0.64513146  0.55072027  1
  O  O571  1  0.82283424  0.64775510  0.80067793  1
  O  O572  1  0.82394382  0.98007339  0.04971633  1
  O  O573  1  0.82373651  0.98150841  0.30062903  1
  O  O574  1  0.82372811  0.98153659  0.55076794  1
  O  O575  1  0.82374174  0.98188543  0.80112206  1
  O  O576  1  0.42577907  0.14662462  0.17500751  1
  O  O577  1  0.42853388  0.14716372  0.42699155  1
  O  O578  1  0.42826727  0.14748266  0.67586190  1
  O  O579  1  0.42761624  0.14833910  0.92512152  1
  O  O580  1  0.42792656  0.48020194  0.17670932  1
  O  O581  1  0.42783362  0.48048920  0.42556779  1
  O  O582  1  0.42715194  0.48113433  0.67510844  1
  O  O583  1  0.42633410  0.48100983  0.92669640  1
  O  O584  1  0.42825297  0.81296626  0.17632147  1
  O  O585  1  0.42657026  0.81292164  0.42403212  1
  O  O586  1  0.42642834  0.81353432  0.67482093  1
  O  O587  1  0.42801716  0.81383689  0.92682409  1
  O  O588  1  0.92623431  0.14648730  0.17472617  1
  O  O589  1  0.92715630  0.14827483  0.42646998  1
  O  O590  1  0.92616199  0.14710653  0.67531078  1
  O  O591  1  0.92785188  0.14755198  0.92662225  1
  O  O592  1  0.92599235  0.48151816  0.17594779  1
  O  O593  1  0.92732101  0.48073350  0.42698469  1
  O  O594  1  0.92827280  0.48064349  0.67658554  1
  O  O595  1  0.92637510  0.48197731  0.92494157  1
  O  O596  1  0.92674737  0.81197553  0.17491300  1
  O  O597  1  0.92667743  0.81137241  0.42506130  1
  O  O598  1  0.92687066  0.81172826  0.67523392  1
  O  O599  1  0.92730077  0.81291422  0.92628285  1
  O  O600  1  0.07290561  0.18637141  0.07419927  1
  O  O601  1  0.07368998  0.18755026  0.32596763  1
  O  O602  1  0.07239536  0.18752404  0.57452067  1
  O  O603  1  0.07266538  0.18837505  0.82495863  1
  O  O604  1  0.07181614  0.51959829  0.07313088  1
  O  O605  1  0.07199865  0.51959852  0.32293712  1
  O  O606  1  0.07134378  0.51942976  0.57324963  1
  O  O607  1  0.07172340  0.51984425  0.82269023  1
  O  O608  1  0.07278825  0.85222626  0.07401016  1
  O  O609  1  0.07392693  0.85254659  0.32527558  1
  O  O610  1  0.07397188  0.85231451  0.57544145  1
  O  O611  1  0.07404725  0.85302111  0.82630688  1
  O  O612  1  0.57304990  0.18535640  0.07426312  1
  O  O613  1  0.57267813  0.18768246  0.32581463  1
  O  O614  1  0.57182163  0.18641543  0.57250021  1
  O  O615  1  0.57351444  0.18587056  0.82308749  1
  O  O616  1  0.57202476  0.51926112  0.07448105  1
  O  O617  1  0.57220064  0.51882579  0.32277221  1
  O  O618  1  0.57332977  0.51821556  0.57329630  1
  O  O619  1  0.57302033  0.51862590  0.82466852  1
  O  O620  1  0.57355413  0.85136431  0.07370222  1
  O  O621  1  0.57384427  0.85249869  0.32441958  1
  O  O622  1  0.57300413  0.85474957  0.57549229  1
  O  O623  1  0.57348251  0.85445744  0.82440994  1
  O  O624  1  0.32285758  0.18837627  0.04976734  1
  O  O625  1  0.32450181  0.18733917  0.29930609  1
  O  O626  1  0.32416830  0.18684146  0.55046183  1
  O  O627  1  0.32336299  0.18918615  0.80102783  1
  O  O628  1  0.32128120  0.51943414  0.05251396  1
  O  O629  1  0.32232703  0.52072045  0.29918216  1
  O  O630  1  0.32270530  0.51898158  0.55007003  1
  O  O631  1  0.32420526  0.52043118  0.80015304  1
  O  O632  1  0.32471110  0.85331975  0.05042514  1
  O  O633  1  0.32343038  0.85104076  0.30098305  1
  O  O634  1  0.32334295  0.85105272  0.55080978  1
  O  O635  1  0.32463868  0.85323957  0.80021039  1
  O  O636  1  0.82283901  0.18440107  0.05125933  1
  O  O637  1  0.82281344  0.18618559  0.30217344  1
  O  O638  1  0.82283428  0.18498303  0.55018625  1
  O  O639  1  0.82342173  0.18506360  0.80066770  1
  O  O640  1  0.82236131  0.52076546  0.05018277  1
  O  O641  1  0.82368738  0.52007217  0.29921047  1
  O  O642  1  0.82282386  0.51778908  0.55166924  1
  O  O643  1  0.82279662  0.52058532  0.80097122  1
  O  O644  1  0.82350889  0.85319440  0.04931178  1
  O  O645  1  0.82308579  0.85420278  0.30050861  1
  O  O646  1  0.82306678  0.85443409  0.55006869  1
  O  O647  1  0.82388003  0.85481627  0.79977127  1
  O  O648  1  0.17545276  0.14647114  0.20066184  1
  O  O649  1  0.17672003  0.14672075  0.45049876  1
  O  O650  1  0.17641322  0.14782337  0.70064284  1
  O  O651  1  0.17594686  0.14749481  0.95046774  1
  O  O652  1  0.17804839  0.48085588  0.19758880  1
  O  O653  1  0.17546706  0.48043940  0.44908213  1
  O  O654  1  0.17650566  0.48225770  0.69903728  1
  O  O655  1  0.17684811  0.47994167  0.94994089  1
  O  O656  1  0.17687908  0.81205615  0.19986413  1
  O  O657  1  0.17739704  0.81287281  0.44759012  1
  O  O658  1  0.17665283  0.81471877  0.69863772  1
  O  O659  1  0.17677739  0.81293983  0.95104348  1
  O  O660  1  0.67701223  0.14842512  0.19904301  1
  O  O661  1  0.67794539  0.14684852  0.44867890  1
  O  O662  1  0.67787925  0.14702564  0.69785559  1
  O  O663  1  0.67793332  0.14667391  0.94718144  1
  O  O664  1  0.67574062  0.47891085  0.20113338  1
  O  O665  1  0.67696414  0.47798261  0.44951859  1
  O  O666  1  0.67726395  0.48120988  0.69923798  1
  O  O667  1  0.67555714  0.47938153  0.95053260  1
  O  O668  1  0.67679304  0.81288835  0.19921681  1
  O  O669  1  0.67548966  0.81363467  0.45027719  1
  O  O670  1  0.67597393  0.81403261  0.70098737  1
  O  O671  1  0.67721509  0.81224450  0.95018910  1
