# generated using pymatgen
data_Na2MnFe(PO4)2
_symmetry_space_group_name_H-M   'P 1'
_cell_length_a   22.34046413
_cell_length_b   20.08776696
_cell_length_c   19.45135774
_cell_angle_alpha   89.93076731
_cell_angle_beta   90.02980662
_cell_angle_gamma   89.95508971
_symmetry_Int_Tables_number   1
_chemical_formula_structural   Na2MnFe(PO4)2
_chemical_formula_sum   'Na96 Mn48 Fe48 P96 O384'
_cell_volume   8729.17629734
_cell_formula_units_Z   48
loop_
 _symmetry_equiv_pos_site_id
 _symmetry_equiv_pos_as_xyz
  1  'x, y, z'
loop_
 _atom_site_type_symbol
 _atom_site_label
 _atom_site_symmetry_multiplicity
 _atom_site_fract_x
 _atom_site_fract_y
 _atom_site_fract_z
 _atom_site_occupancy
  Na  Na0  1  0.13988214  0.25163131  0.24245794  1
  Na  Na1  1  0.14041238  0.24971378  0.49419252  1
  Na  Na2  1  0.14015002  0.25018189  0.74420074  1
  Na  Na3  1  0.13989470  0.25072665  0.99350310  1
  Na  Na4  1  0.14021988  0.58565827  0.24348578  1
  Na  Na5  1  0.13990519  0.58595403  0.49458653  1
  Na  Na6  1  0.13977545  0.58342164  0.74408489  1
  Na  Na7  1  0.14015716  0.58434350  0.99375869  1
  Na  Na8  1  0.14029635  0.91829668  0.24470603  1
  Na  Na9  1  0.13986907  0.91763167  0.49471325  1
  Na  Na10  1  0.13965108  0.91540875  0.74345235  1
  Na  Na11  1  0.14009121  0.91650401  0.99384500  1
  Na  Na12  1  0.64018997  0.25096301  0.24307138  1
  Na  Na13  1  0.64061247  0.25146499  0.49326291  1
  Na  Na14  1  0.64076810  0.24960693  0.74310210  1
  Na  Na15  1  0.63994973  0.24871844  0.99276010  1
  Na  Na16  1  0.64085835  0.58260339  0.24432035  1
  Na  Na17  1  0.64052869  0.58248514  0.49376621  1
  Na  Na18  1  0.64058229  0.58308260  0.74312565  1
  Na  Na19  1  0.64052477  0.58154693  0.99431246  1
  Na  Na20  1  0.64050909  0.91558420  0.24311593  1
  Na  Na21  1  0.64020579  0.91710303  0.49491394  1
  Na  Na22  1  0.64009238  0.91697542  0.74328189  1
  Na  Na23  1  0.64025305  0.91545345  0.99281528  1
  Na  Na24  1  0.35970625  0.08259029  0.00562118  1
  Na  Na25  1  0.35942611  0.08376975  0.25600177  1
  Na  Na26  1  0.36009628  0.08266853  0.50563069  1
  Na  Na27  1  0.36018977  0.08172337  0.75613327  1
  Na  Na28  1  0.35973629  0.41586937  0.00613016  1
  Na  Na29  1  0.35948668  0.41688660  0.25532746  1
  Na  Na30  1  0.36003192  0.41739877  0.50582751  1
  Na  Na31  1  0.36015219  0.41688444  0.75607640  1
  Na  Na32  1  0.36014831  0.75004429  0.00657799  1
  Na  Na33  1  0.36035643  0.75166808  0.25656106  1
  Na  Na34  1  0.36003338  0.75164207  0.50592731  1
  Na  Na35  1  0.35977573  0.74928606  0.75644839  1
  Na  Na36  1  0.85979227  0.08293856  0.00567915  1
  Na  Na37  1  0.85932222  0.08459933  0.25544318  1
  Na  Na38  1  0.85930850  0.08292666  0.50743726  1
  Na  Na39  1  0.85950865  0.08306364  0.75734487  1
  Na  Na40  1  0.85931933  0.41501055  0.00618859  1
  Na  Na41  1  0.85959815  0.41662992  0.25576293  1
  Na  Na42  1  0.85965656  0.41680741  0.50607500  1
  Na  Na43  1  0.85970371  0.41646045  0.75729453  1
  Na  Na44  1  0.85964835  0.74750734  0.00620585  1
  Na  Na45  1  0.85994286  0.74790364  0.25626594  1
  Na  Na46  1  0.85973183  0.74934607  0.50790552  1
  Na  Na47  1  0.85965669  0.75049880  0.75723155  1
  Na  Na48  1  0.10917271  0.08474102  0.11797536  1
  Na  Na49  1  0.10922678  0.08346173  0.36933375  1
  Na  Na50  1  0.10950656  0.08261308  0.61915702  1
  Na  Na51  1  0.10916471  0.08314332  0.86887325  1
  Na  Na52  1  0.10914212  0.41717101  0.11790889  1
  Na  Na53  1  0.10941527  0.41812115  0.36843969  1
  Na  Na54  1  0.10951224  0.41824429  0.62017307  1
  Na  Na55  1  0.10922656  0.41749272  0.86893451  1
  Na  Na56  1  0.10963673  0.75107392  0.11875371  1
  Na  Na57  1  0.10958656  0.75082026  0.36948168  1
  Na  Na58  1  0.10926677  0.75102124  0.61945451  1
  Na  Na59  1  0.10911591  0.75018316  0.86808525  1
  Na  Na60  1  0.60960856  0.08378820  0.11787070  1
  Na  Na61  1  0.60977409  0.08267242  0.36846895  1
  Na  Na62  1  0.60975216  0.08396670  0.61930662  1
  Na  Na63  1  0.60979485  0.08209938  0.86725622  1
  Na  Na64  1  0.60982828  0.41608431  0.11904806  1
  Na  Na65  1  0.61015190  0.41601758  0.36820188  1
  Na  Na66  1  0.61039162  0.41779750  0.61795495  1
  Na  Na67  1  0.60982687  0.41473607  0.86790569  1
  Na  Na68  1  0.60997523  0.74867559  0.11939053  1
  Na  Na69  1  0.60967562  0.74925778  0.36932260  1
  Na  Na70  1  0.60942212  0.75184368  0.61931574  1
  Na  Na71  1  0.60953980  0.74990923  0.86856671  1
  Na  Na72  1  0.39052105  0.24954161  0.13109593  1
  Na  Na73  1  0.39075946  0.24924479  0.37988506  1
  Na  Na74  1  0.39120382  0.25040911  0.63076364  1
  Na  Na75  1  0.39074438  0.24897732  0.88055187  1
  Na  Na76  1  0.39050513  0.58289467  0.13149606  1
  Na  Na77  1  0.39083367  0.58331568  0.38065590  1
  Na  Na78  1  0.39074101  0.58505434  0.63130996  1
  Na  Na79  1  0.39064488  0.58223280  0.88134684  1
  Na  Na80  1  0.39049029  0.91562550  0.13193794  1
  Na  Na81  1  0.39050042  0.91582267  0.38120894  1
  Na  Na82  1  0.39021195  0.91826010  0.63154823  1
  Na  Na83  1  0.39028096  0.91606779  0.88071529  1
  Na  Na84  1  0.88964159  0.24948019  0.13017375  1
  Na  Na85  1  0.89031855  0.25067136  0.38080079  1
  Na  Na86  1  0.89048721  0.25079087  0.63236244  1
  Na  Na87  1  0.89023467  0.24954833  0.88212469  1
  Na  Na88  1  0.88984090  0.58256131  0.13164418  1
  Na  Na89  1  0.89035324  0.58303951  0.38088621  1
  Na  Na90  1  0.89066575  0.58352724  0.63253549  1
  Na  Na91  1  0.89003642  0.58285451  0.88171422  1
  Na  Na92  1  0.89046592  0.91638992  0.13025603  1
  Na  Na93  1  0.89015467  0.91591054  0.38217918  1
  Na  Na94  1  0.89011610  0.91649090  0.63288682  1
  Na  Na95  1  0.89019775  0.91687218  0.88086388  1
  Mn  Mn96  1  0.49978890  0.16661225  -0.00074892  1
  Mn  Mn97  1  0.24989000  0.50134636  0.62502718  1
  Mn  Mn98  1  -0.00016830  0.16678277  0.75059813  1
  Mn  Mn99  1  0.50000996  0.83373547  0.50012906  1
  Mn  Mn100  1  0.74974194  0.33266785  0.12470554  1
  Mn  Mn101  1  -0.00049478  0.83304769  -0.00027274  1
  Mn  Mn102  1  0.50014282  0.49919595  0.25028771  1
  Mn  Mn103  1  0.74950219  0.16814241  0.37607086  1
  Mn  Mn104  1  0.75022199  0.83299366  0.37515333  1
  Mn  Mn105  1  0.74998959  0.00030675  0.12426697  1
  Mn  Mn106  1  0.25070361  0.33358930  0.87504652  1
  Mn  Mn107  1  0.75046462  0.16724958  0.62531311  1
  Mn  Mn108  1  0.74967639  0.49944946  0.87501195  1
  Mn  Mn109  1  0.74986528  0.66651927  0.62509923  1
  Mn  Mn110  1  0.25072558  0.16538694  0.62423988  1
  Mn  Mn111  1  0.00009293  0.83258149  0.25039317  1
  Mn  Mn112  1  0.75079904  0.83161814  0.12424280  1
  Mn  Mn113  1  0.75028724  0.00030700  0.37488341  1
  Mn  Mn114  1  -0.00013340  0.50144224  0.49989311  1
  Mn  Mn115  1  0.25015533  0.66627934  0.87597603  1
  Mn  Mn116  1  0.24980187  0.50187303  0.37530263  1
  Mn  Mn117  1  0.74967007  0.83264618  0.87531241  1
  Mn  Mn118  1  -0.00067761  0.16739948  0.24943844  1
  Mn  Mn119  1  0.25018746  0.83323047  0.62484612  1
  Mn  Mn120  1  0.00019815  0.16625815  0.50100953  1
  Mn  Mn121  1  0.75001278  0.66512545  0.37651393  1
  Mn  Mn122  1  0.24923822  -0.00184694  0.87630037  1
  Mn  Mn123  1  0.50021250  0.50043902  0.49916984  1
  Mn  Mn124  1  0.24965849  0.33430070  0.37429193  1
  Mn  Mn125  1  0.24980266  0.16566679  0.87430888  1
  Mn  Mn126  1  0.25011762  0.33363917  0.62482264  1
  Mn  Mn127  1  -0.00064647  0.83334733  0.50073656  1
  Mn  Mn128  1  0.50049848  0.66664704  0.00019544  1
  Mn  Mn129  1  0.50033219  0.66722960  0.75061229  1
  Mn  Mn130  1  0.25091943  0.66910203  0.37365957  1
  Mn  Mn131  1  0.24960080  0.33419316  0.12429348  1
  Mn  Mn132  1  0.49997872  -0.00125107  -0.00045712  1
  Mn  Mn133  1  0.25019228  0.66792236  0.12463863  1
  Mn  Mn134  1  -0.00044473  0.50020505  0.00017651  1
  Mn  Mn135  1  0.50036618  0.16668732  0.49948937  1
  Mn  Mn136  1  0.50035736  0.49841128  0.00088390  1
  Mn  Mn137  1  0.25011849  0.00023994  0.12508835  1
  Mn  Mn138  1  0.25010032  0.16649142  0.37464319  1
  Mn  Mn139  1  -0.00087448  0.00021256  0.24996970  1
  Mn  Mn140  1  0.50029725  -0.00112363  0.24930984  1
  Mn  Mn141  1  0.00017311  0.33400871  0.50067907  1
  Mn  Mn142  1  0.50036009  0.33352151  0.74938093  1
  Mn  Mn143  1  0.00028837  0.50043327  0.24965797  1
  Fe  Fe144  1  -0.00018598  0.66726449  0.50090188  1
  Fe  Fe145  1  0.50009443  0.50013433  0.74951686  1
  Fe  Fe146  1  0.74982999  0.16603833  0.87412896  1
  Fe  Fe147  1  0.00034003  0.33367525  0.75087724  1
  Fe  Fe148  1  0.50016680  0.00029990  0.49999523  1
  Fe  Fe149  1  0.24962092  0.00056736  0.37464648  1
  Fe  Fe150  1  0.25019330  0.66725857  0.62515139  1
  Fe  Fe151  1  0.75054869  0.49928622  0.37506142  1
  Fe  Fe152  1  0.49939491  0.83404680  0.74951341  1
  Fe  Fe153  1  0.25021060  0.83438729  0.12571485  1
  Fe  Fe154  1  0.75039964  0.33405595  0.37444849  1
  Fe  Fe155  1  -0.00014172  0.33329587  0.24952900  1
  Fe  Fe156  1  0.74963847  0.33269608  0.87506933  1
  Fe  Fe157  1  0.50033003  0.33338625  0.49955506  1
  Fe  Fe158  1  0.24964661  0.83501703  0.37585318  1
  Fe  Fe159  1  0.74978080  0.66583596  0.87504278  1
  Fe  Fe160  1  0.75027781  0.49920659  0.62489058  1
  Fe  Fe161  1  -0.00030857  0.66695945  0.75030368  1
  Fe  Fe162  1  0.24948770  0.16703290  0.12505858  1
  Fe  Fe163  1  -0.00018442  0.66653741  -0.00061584  1
  Fe  Fe164  1  0.50040113  0.16615505  0.24956541  1
  Fe  Fe165  1  0.74967083  0.49904453  0.12488706  1
  Fe  Fe166  1  0.50018701  0.00011182  0.74991142  1
  Fe  Fe167  1  0.74966870  0.00002242  0.62563078  1
  Fe  Fe168  1  0.50043848  0.66648601  0.25018655  1
  Fe  Fe169  1  -0.00033242  0.50056899  0.75080984  1
  Fe  Fe170  1  -0.00071959  -0.00012392  0.50056610  1
  Fe  Fe171  1  0.75013091  -0.00031065  0.87461254  1
  Fe  Fe172  1  0.49992733  0.33242398  0.24956833  1
  Fe  Fe173  1  0.75054343  0.33364878  0.62492315  1
  Fe  Fe174  1  0.00030473  -0.00017852  -0.00024120  1
  Fe  Fe175  1  0.49999409  0.66707391  0.50017894  1
  Fe  Fe176  1  -0.00035709  0.00027692  0.75053057  1
  Fe  Fe177  1  0.74991240  0.83356482  0.62621715  1
  Fe  Fe178  1  0.50017086  0.83283952  0.00022372  1
  Fe  Fe179  1  -0.00041066  0.83354628  0.75035084  1
  Fe  Fe180  1  0.50082512  0.83242009  0.25064843  1
  Fe  Fe181  1  0.50036287  0.16668790  0.74937539  1
  Fe  Fe182  1  -0.00005248  0.16703867  -0.00043059  1
  Fe  Fe183  1  0.24990754  0.83237850  0.87448619  1
  Fe  Fe184  1  0.50032982  0.33260749  -0.00050551  1
  Fe  Fe185  1  0.74935751  0.16624786  0.12387536  1
  Fe  Fe186  1  0.24998775  0.50082239  0.12472895  1
  Fe  Fe187  1  0.24983701  -0.00076972  0.62515310  1
  Fe  Fe188  1  -0.00054591  0.33348853  -0.00055002  1
  Fe  Fe189  1  0.25004193  0.50031193  0.87476572  1
  Fe  Fe190  1  0.75016318  0.66482740  0.12570643  1
  Fe  Fe191  1  -0.00021157  0.66684473  0.25007588  1
  P  P192  1  0.04081554  0.25085778  0.10132089  1
  P  P193  1  0.04232898  0.25122357  0.35225671  1
  P  P194  1  0.04291629  0.25051105  0.60427772  1
  P  P195  1  0.04188678  0.25126332  0.85348704  1
  P  P196  1  0.04189654  0.58513342  0.10251003  1
  P  P197  1  0.04245769  0.58533782  0.35276712  1
  P  P198  1  0.04172930  0.58537264  0.60381071  1
  P  P199  1  0.04101155  0.58398494  0.85211976  1
  P  P200  1  0.04216852  0.91749602  0.10220466  1
  P  P201  1  0.04204769  0.91682987  0.35383719  1
  P  P202  1  0.04139431  0.91804534  0.60363186  1
  P  P203  1  0.04103663  0.91708173  0.85204775  1
  P  P204  1  0.54209920  0.25083342  0.10269364  1
  P  P205  1  0.54179191  0.24950371  0.35146989  1
  P  P206  1  0.54266579  0.25128080  0.60221239  1
  P  P207  1  0.54260949  0.24849202  0.85188538  1
  P  P208  1  0.54268523  0.58305984  0.10391222  1
  P  P209  1  0.54233828  0.58439134  0.35271229  1
  P  P210  1  0.54227007  0.58491100  0.60257510  1
  P  P211  1  0.54257659  0.58149084  0.85241554  1
  P  P212  1  0.54267683  0.91447862  0.10273855  1
  P  P213  1  0.54279422  0.91512667  0.35266424  1
  P  P214  1  0.54168798  0.91871919  0.60327706  1
  P  P215  1  0.54152108  0.91596151  0.85158751  1
  P  P216  1  0.45782257  0.08393602  0.14731067  1
  P  P217  1  0.45828083  0.08191652  0.39679417  1
  P  P218  1  0.45885880  0.08363383  0.64788936  1
  P  P219  1  0.45758697  0.08252675  0.89567158  1
  P  P220  1  0.45796068  0.41456872  0.14721893  1
  P  P221  1  0.45808110  0.41485261  0.39677335  1
  P  P222  1  0.45808720  0.41831294  0.64670444  1
  P  P223  1  0.45799825  0.41501766  0.89709842  1
  P  P224  1  0.45892036  0.75002798  0.14840244  1
  P  P225  1  0.45829582  0.74870617  0.39702150  1
  P  P226  1  0.45767646  0.75158823  0.64745198  1
  P  P227  1  0.45813202  0.75132347  0.89739429  1
  P  P228  1  0.95723314  0.08367503  0.14552839  1
  P  P229  1  0.95700151  0.08251491  0.39817346  1
  P  P230  1  0.95736420  0.08212804  0.64799075  1
  P  P231  1  0.95880959  0.08295625  0.89820751  1
  P  P232  1  0.95767037  0.41531278  0.14700290  1
  P  P233  1  0.95745865  0.41701376  0.39657561  1
  P  P234  1  0.95887889  0.41719034  0.64932674  1
  P  P235  1  0.95763625  0.41588659  0.89697277  1
  P  P236  1  0.95760498  0.74846324  0.14706704  1
  P  P237  1  0.95738108  0.74840410  0.39789890  1
  P  P238  1  0.95821363  0.75004260  0.64881565  1
  P  P239  1  0.95765915  0.74864542  0.89657632  1
  P  P240  1  0.20720507  0.08465398  0.22752322  1
  P  P241  1  0.20769772  0.08176934  0.47772056  1
  P  P242  1  0.20763129  0.08120716  0.72740706  1
  P  P243  1  0.20690957  0.08333409  0.97877804  1
  P  P244  1  0.20712521  0.41904652  0.22688969  1
  P  P245  1  0.20693137  0.41783369  0.47804341  1
  P  P246  1  0.20754688  0.41743840  0.72863976  1
  P  P247  1  0.20790363  0.41867136  0.97752373  1
  P  P248  1  0.20783414  0.75284459  0.22782206  1
  P  P249  1  0.20783785  0.75188354  0.47776066  1
  P  P250  1  0.20777532  0.74869615  0.72783901  1
  P  P251  1  0.20767053  0.75162628  0.97788232  1
  P  P252  1  0.70747424  0.08490465  0.22707378  1
  P  P253  1  0.70732447  0.08330400  0.47897813  1
  P  P254  1  0.70832400  0.08243845  0.72813276  1
  P  P255  1  0.70835179  0.08304381  0.97601888  1
  P  P256  1  0.70798882  0.41744606  0.22793865  1
  P  P257  1  0.70880624  0.41652473  0.47703628  1
  P  P258  1  0.70880380  0.41598208  0.72678893  1
  P  P259  1  0.70752859  0.41494230  0.97745333  1
  P  P260  1  0.70824421  0.74776175  0.22752454  1
  P  P261  1  0.70758244  0.75016464  0.47924545  1
  P  P262  1  0.70765052  0.75073425  0.72808206  1
  P  P263  1  0.70794149  0.74703435  0.97799700  1
  P  P264  1  0.29220112  0.24870402  0.02250107  1
  P  P265  1  0.29228867  0.25035133  0.27084497  1
  P  P266  1  0.29329025  0.24993538  0.52142750  1
  P  P267  1  0.29322473  0.24950678  0.77156232  1
  P  P268  1  0.29244536  0.58235908  0.02230095  1
  P  P269  1  0.29309967  0.58422364  0.27083363  1
  P  P270  1  0.29272929  0.58607210  0.52234864  1
  P  P271  1  0.29254568  0.58276047  0.77247961  1
  P  P272  1  0.29251946  0.91500062  0.02257907  1
  P  P273  1  0.29159680  0.91728179  0.27341196  1
  P  P274  1  0.29214201  0.91826682  0.52189979  1
  P  P275  1  0.29188127  0.91501854  0.77241219  1
  P  P276  1  0.79135715  0.24807665  0.02116068  1
  P  P277  1  0.79192359  0.25126640  0.27213420  1
  P  P278  1  0.79270841  0.25203710  0.52254539  1
  P  P279  1  0.79154610  0.25021589  0.77323805  1
  P  P280  1  0.79136772  0.58213699  0.02323790  1
  P  P281  1  0.79213402  0.58148942  0.27226658  1
  P  P282  1  0.79243294  0.58124644  0.52298150  1
  P  P283  1  0.79195612  0.58392821  0.77247151  1
  P  P284  1  0.79254257  0.91639225  0.02095975  1
  P  P285  1  0.79303768  0.91650289  0.27169573  1
  P  P286  1  0.79147684  0.91650353  0.52433484  1
  P  P287  1  0.79157567  0.91744336  0.77206916  1
  O  O288  1  0.03605145  0.25099553  0.18131613  1
  O  O289  1  0.03742579  0.25065991  0.43224262  1
  O  O290  1  0.03756658  0.25076340  0.68422136  1
  O  O291  1  0.03627641  0.25101015  0.93333219  1
  O  O292  1  0.03662763  0.58503624  0.18243157  1
  O  O293  1  0.03725809  0.58525275  0.43274342  1
  O  O294  1  0.03614980  0.58495445  0.68364657  1
  O  O295  1  0.03622062  0.58374970  0.93208630  1
  O  O296  1  0.03689573  0.91686068  0.18210922  1
  O  O297  1  0.03660936  0.91700384  0.43377082  1
  O  O298  1  0.03612719  0.91783794  0.68351200  1
  O  O299  1  0.03619216  0.91699021  0.93201593  1
  O  O300  1  0.53663786  0.25036519  0.18255914  1
  O  O301  1  0.53679499  0.25003992  0.43145933  1
  O  O302  1  0.53740923  0.25062187  0.68209087  1
  O  O303  1  0.53751556  0.24902612  0.93179772  1
  O  O304  1  0.53730278  0.58352658  0.18380015  1
  O  O305  1  0.53698402  0.58462497  0.43264362  1
  O  O306  1  0.53690921  0.58408383  0.68250732  1
  O  O307  1  0.53745869  0.58142755  0.93236748  1
  O  O308  1  0.53762991  0.91450466  0.18269840  1
  O  O309  1  0.53746524  0.91587780  0.43255696  1
  O  O310  1  0.53610822  0.91867333  0.68312942  1
  O  O311  1  0.53668039  0.91545599  0.93158679  1
  O  O312  1  0.46277921  0.08373925  0.06734242  1
  O  O313  1  0.46354077  0.08238810  0.31689572  1
  O  O314  1  0.46393932  0.08333645  0.56791620  1
  O  O315  1  0.46297871  0.08255643  0.81577861  1
  O  O316  1  0.46330839  0.41436346  0.06728009  1
  O  O317  1  0.46338880  0.41466429  0.31684184  1
  O  O318  1  0.46319506  0.41795903  0.56678427  1
  O  O319  1  0.46324849  0.41607337  0.81717717  1
  O  O320  1  0.46391403  0.75066532  0.06839728  1
  O  O321  1  0.46391851  0.74879325  0.31717127  1
  O  O322  1  0.46296463  0.75092865  0.56756890  1
  O  O323  1  0.46324003  0.75147923  0.81745931  1
  O  O324  1  0.96294134  0.08364321  0.06569757  1
  O  O325  1  0.96194738  0.08315548  0.31816440  1
  O  O326  1  0.96247223  0.08212037  0.56805655  1
  O  O327  1  0.96364165  0.08291301  0.81822142  1
  O  O328  1  0.96300398  0.41552533  0.06705571  1
  O  O329  1  0.96265760  0.41679964  0.31663369  1
  O  O330  1  0.96374661  0.41771887  0.56935620  1
  O  O331  1  0.96325945  0.41624301  0.81716196  1
  O  O332  1  0.96276707  0.74858875  0.06710088  1
  O  O333  1  0.96265185  0.74840825  0.31794964  1
  O  O334  1  0.96281970  0.75026530  0.56883315  1
  O  O335  1  0.96326922  0.74901084  0.81674143  1
  O  O336  1  0.21217072  0.08409774  0.05870589  1
  O  O337  1  0.21247427  0.08395268  0.30747697  1
  O  O338  1  0.21302285  0.08143314  0.55766764  1
  O  O339  1  0.21254657  0.08126496  0.80740011  1
  O  O340  1  0.21315016  0.41880750  0.05749122  1
  O  O341  1  0.21212917  0.41864949  0.30686345  1
  O  O342  1  0.21214828  0.41764564  0.55801515  1
  O  O343  1  0.21284520  0.41769540  0.80859230  1
  O  O344  1  0.21287901  0.75200914  0.05781124  1
  O  O345  1  0.21316465  0.75308856  0.30775551  1
  O  O346  1  0.21311233  0.75072624  0.55769741  1
  O  O347  1  0.21280409  0.74907486  0.80779018  1
  O  O348  1  0.71326498  0.08362227  0.05601353  1
  O  O349  1  0.71259485  0.08478366  0.30705000  1
  O  O350  1  0.71272341  0.08288589  0.55890645  1
  O  O351  1  0.71385851  0.08242118  0.80800892  1
  O  O352  1  0.71273171  0.41553837  0.05733767  1
  O  O353  1  0.71355274  0.41719830  0.30777180  1
  O  O354  1  0.71404883  0.41626837  0.55694494  1
  O  O355  1  0.71344398  0.41567844  0.80677681  1
  O  O356  1  0.71354606  0.74664822  0.05790700  1
  O  O357  1  0.71303706  0.74809430  0.30752072  1
  O  O358  1  0.71297365  0.75090345  0.55916855  1
  O  O359  1  0.71274628  0.75007878  0.80802579  1
  O  O360  1  0.28685874  0.25000332  0.19090481  1
  O  O361  1  0.28801139  0.25008277  0.44144459  1
  O  O362  1  0.28829016  0.24961242  0.69159603  1
  O  O363  1  0.28718306  0.24895247  0.94252768  1
  O  O364  1  0.28775591  0.58364276  0.19088669  1
  O  O365  1  0.28786416  0.58612410  0.44234389  1
  O  O366  1  0.28733641  0.58388731  0.69254454  1
  O  O367  1  0.28729555  0.58225362  0.94232756  1
  O  O368  1  0.28670918  0.91682889  0.19342394  1
  O  O369  1  0.28674888  0.91826078  0.44204782  1
  O  O370  1  0.28672369  0.91591795  0.69249714  1
  O  O371  1  0.28721586  0.91457138  0.94265993  1
  O  O372  1  0.78666003  0.25037074  0.19223110  1
  O  O373  1  0.78742926  0.25227585  0.44261101  1
  O  O374  1  0.78683435  0.25101328  0.69323282  1
  O  O375  1  0.78593252  0.24834054  0.94131919  1
  O  O376  1  0.78651118  0.58180695  0.19240403  1
  O  O377  1  0.78741427  0.58101677  0.44303162  1
  O  O378  1  0.78694688  0.58353357  0.69260738  1
  O  O379  1  0.78631233  0.58287291  0.94326610  1
  O  O380  1  0.78801679  0.91627572  0.19171313  1
  O  O381  1  0.78688937  0.91655198  0.44427599  1
  O  O382  1  0.78602661  0.91730469  0.69219155  1
  O  O383  1  0.78707931  0.91678545  0.94102494  1
  O  O384  1  0.22779583  0.24888516  0.05786535  1
  O  O385  1  0.22800470  0.25028054  0.30629821  1
  O  O386  1  0.22886816  0.24963503  0.55647051  1
  O  O387  1  0.22874434  0.25008794  0.80645665  1
  O  O388  1  0.22812491  0.58297971  0.05782308  1
  O  O389  1  0.22876770  0.58501284  0.30617557  1
  O  O390  1  0.22826513  0.58612165  0.55754309  1
  O  O391  1  0.22823785  0.58223816  0.80821385  1
  O  O392  1  0.22819131  0.91545665  0.05816230  1
  O  O393  1  0.22738559  0.91749616  0.30937987  1
  O  O394  1  0.22798917  0.91816053  0.55807641  1
  O  O395  1  0.22755022  0.91431393  0.80805241  1
  O  O396  1  0.72730680  0.24817094  0.05748303  1
  O  O397  1  0.72771003  0.25209645  0.30803883  1
  O  O398  1  0.72839797  0.25188979  0.55815294  1
  O  O399  1  0.72730048  0.24957397  0.80893306  1
  O  O400  1  0.72726511  0.58174909  0.05935153  1
  O  O401  1  0.72812560  0.58094231  0.30878430  1
  O  O402  1  0.72808127  0.58148211  0.55841074  1
  O  O403  1  0.72765810  0.58405168  0.80815831  1
  O  O404  1  0.72835964  0.91590323  0.05656825  1
  O  O405  1  0.72854557  0.91660395  0.30663112  1
  O  O406  1  0.72717100  0.91639599  0.55985962  1
  O  O407  1  0.72751981  0.91760191  0.80831320  1
  O  O408  1  0.27153008  0.08526197  0.19185522  1
  O  O409  1  0.27193505  0.08172206  0.44190003  1
  O  O410  1  0.27205759  0.08074687  0.69210003  1
  O  O411  1  0.27125176  0.08248121  0.94351068  1
  O  O412  1  0.27154117  0.41865803  0.19161905  1
  O  O413  1  0.27141065  0.41773185  0.44307217  1
  O  O414  1  0.27185503  0.41747069  0.69325392  1
  O  O415  1  0.27220377  0.41878770  0.94185092  1
  O  O416  1  0.27212600  0.75254386  0.19208908  1
  O  O417  1  0.27210074  0.75293994  0.44197771  1
  O  O418  1  0.27209262  0.74865221  0.69224957  1
  O  O419  1  0.27201108  0.75136474  0.94228965  1
  O  O420  1  0.77177849  0.08498881  0.19147805  1
  O  O421  1  0.77160334  0.08385581  0.44350836  1
  O  O422  1  0.77236374  0.08231231  0.69189546  1
  O  O423  1  0.77255213  0.08295734  0.94009598  1
  O  O424  1  0.77198383  0.41758278  0.19146726  1
  O  O425  1  0.77288905  0.41653663  0.44063440  1
  O  O426  1  0.77311010  0.41591053  0.69117345  1
  O  O427  1  0.77176321  0.41489539  0.94168555  1
  O  O428  1  0.77259407  0.74761652  0.19215614  1
  O  O429  1  0.77187841  0.74954178  0.44382689  1
  O  O430  1  0.77193032  0.75098907  0.69249171  1
  O  O431  1  0.77208084  0.74745518  0.94197865  1
  O  O432  1  0.02133235  0.08384380  0.18166979  1
  O  O433  1  0.02143253  0.08181929  0.43358658  1
  O  O434  1  0.02168943  0.08231052  0.68363325  1
  O  O435  1  0.02289922  0.08267631  0.93420033  1
  O  O436  1  0.02189130  0.41517959  0.18294726  1
  O  O437  1  0.02176345  0.41750390  0.43203508  1
  O  O438  1  0.02301398  0.41677486  0.68518069  1
  O  O439  1  0.02168758  0.41590210  0.93337835  1
  O  O440  1  0.02191557  0.74826810  0.18284360  1
  O  O441  1  0.02164499  0.74887062  0.43373600  1
  O  O442  1  0.02242210  0.74963522  0.68456875  1
  O  O443  1  0.02175573  0.74841881  0.93292997  1
  O  O444  1  0.52219700  0.08377277  0.18270137  1
  O  O445  1  0.52247491  0.08185387  0.43279202  1
  O  O446  1  0.52294358  0.08363610  0.68414626  1
  O  O447  1  0.52177020  0.08249989  0.93152209  1
  O  O448  1  0.52216967  0.41477476  0.18309170  1
  O  O449  1  0.52234555  0.41526575  0.43261704  1
  O  O450  1  0.52238769  0.41841662  0.68246490  1
  O  O451  1  0.52232758  0.41429563  0.93284918  1
  O  O452  1  0.52311254  0.74992254  0.18441349  1
  O  O453  1  0.52230324  0.74860277  0.43353948  1
  O  O454  1  0.52190150  0.75203026  0.68337987  1
  O  O455  1  0.52242751  0.75127035  0.93312348  1
  O  O456  1  0.47796531  0.25143411  0.06638872  1
  O  O457  1  0.47765687  0.24890121  0.31539149  1
  O  O458  1  0.47844338  0.25148416  0.56630083  1
  O  O459  1  0.47835828  0.24847804  0.81613500  1
  O  O460  1  0.47848236  0.58282188  0.06822215  1
  O  O461  1  0.47815492  0.58414140  0.31679056  1
  O  O462  1  0.47807586  0.58500167  0.56654803  1
  O  O463  1  0.47825571  0.58174747  0.81680582  1
  O  O464  1  0.47828135  0.91447774  0.06721267  1
  O  O465  1  0.47852522  0.91469508  0.31681490  1
  O  O466  1  0.47767282  0.91874032  0.56680420  1
  O  O467  1  0.47733064  0.91621240  0.81557667  1
  O  O468  1  0.97669409  0.25095937  0.06532529  1
  O  O469  1  0.97787589  0.25182268  0.31682743  1
  O  O470  1  0.97856741  0.25013627  0.56888004  1
  O  O471  1  0.97777384  0.25149411  0.81724564  1
  O  O472  1  0.97761900  0.58511272  0.06667477  1
  O  O473  1  0.97817837  0.58501245  0.31696203  1
  O  O474  1  0.97761391  0.58544824  0.56744899  1
  O  O475  1  0.97681289  0.58460802  0.81634659  1
  O  O476  1  0.97791548  0.91792605  0.06641779  1
  O  O477  1  0.97776857  0.91628166  0.31832175  1
  O  O478  1  0.97723717  0.91808116  0.56745149  1
  O  O479  1  0.97688606  0.91741195  0.81607136  1
  O  O480  1  0.07217633  0.31416081  0.07300256  1
  O  O481  1  0.07316761  0.31470563  0.32377167  1
  O  O482  1  0.07401612  0.31383870  0.57585048  1
  O  O483  1  0.07296003  0.31466628  0.82492974  1
  O  O484  1  0.07296187  0.64832129  0.07368964  1
  O  O485  1  0.07318154  0.64880355  0.32410602  1
  O  O486  1  0.07245512  0.64897320  0.57517482  1
  O  O487  1  0.07270709  0.64706697  0.82391865  1
  O  O488  1  0.07315742  0.98102798  0.07415822  1
  O  O489  1  0.07303210  0.98022415  0.32536117  1
  O  O490  1  0.07217289  0.98142082  0.57463547  1
  O  O491  1  0.07245636  0.98036690  0.82389467  1
  O  O492  1  0.57330236  0.31412725  0.07405926  1
  O  O493  1  0.57243489  0.31318992  0.32297117  1
  O  O494  1  0.57315388  0.31510433  0.57387030  1
  O  O495  1  0.57395443  0.31186062  0.82375133  1
  O  O496  1  0.57381610  0.64627597  0.07518921  1
  O  O497  1  0.57325056  0.64768953  0.32389047  1
  O  O498  1  0.57273402  0.64889412  0.57470641  1
  O  O499  1  0.57365571  0.64529706  0.82496410  1
  O  O500  1  0.57343054  0.97838178  0.07474852  1
  O  O501  1  0.57395512  0.97847377  0.32421580  1
  O  O502  1  0.57261683  0.98208324  0.57440224  1
  O  O503  1  0.57214226  0.97993313  0.82365214  1
  O  O504  1  0.42663264  0.02024940  0.17490521  1
  O  O505  1  0.42780188  0.01815415  0.42529582  1
  O  O506  1  0.42773159  0.02028036  0.67640318  1
  O  O507  1  0.42638507  0.01916642  0.92429666  1
  O  O508  1  0.42700637  0.35128356  0.17594907  1
  O  O509  1  0.42744322  0.35143671  0.42568793  1
  O  O510  1  0.42682320  0.35484053  0.67471090  1
  O  O511  1  0.42722484  0.35121491  0.92500973  1
  O  O512  1  0.42829569  0.68594679  0.17601646  1
  O  O513  1  0.42723257  0.68539005  0.42578370  1
  O  O514  1  0.42668257  0.68816463  0.67595870  1
  O  O515  1  0.42737198  0.68728892  0.92506350  1
  O  O516  1  0.92597794  0.02027378  0.17385896  1
  O  O517  1  0.92608097  0.01897447  0.42639855  1
  O  O518  1  0.92658330  0.01883013  0.67696162  1
  O  O519  1  0.92749001  0.01961656  0.92639536  1
  O  O520  1  0.92664786  0.35196104  0.17545505  1
  O  O521  1  0.92649414  0.35364891  0.42517831  1
  O  O522  1  0.92778071  0.35353855  0.67710788  1
  O  O523  1  0.92670820  0.35239990  0.92550403  1
  O  O524  1  0.92656029  0.68523885  0.17584373  1
  O  O525  1  0.92678686  0.68492711  0.42676618  1
  O  O526  1  0.92664651  0.68686098  0.67696017  1
  O  O527  1  0.92663842  0.68526824  0.92521293  1
  O  O528  1  0.17637280  0.02098751  0.19947645  1
  O  O529  1  0.17662292  0.01869649  0.44874340  1
  O  O530  1  0.17671602  0.01778970  0.69905878  1
  O  O531  1  0.17573369  0.01962167  0.95127742  1
  O  O532  1  0.17585025  0.35562748  0.19884160  1
  O  O533  1  0.17583034  0.35447856  0.44975649  1
  O  O534  1  0.17661276  0.35380650  0.70068315  1
  O  O535  1  0.17723562  0.35460523  0.95007997  1
  O  O536  1  0.17684157  0.68911953  0.20007130  1
  O  O537  1  0.17701533  0.68854182  0.44900085  1
  O  O538  1  0.17732992  0.68503617  0.69929654  1
  O  O539  1  0.17672233  0.68769967  0.95051705  1
  O  O540  1  0.67648447  0.02117637  0.19934893  1
  O  O541  1  0.67636992  0.02003200  0.45027637  1
  O  O542  1  0.67719503  0.01915261  0.69950739  1
  O  O543  1  0.67775180  0.01895125  0.94845727  1
  O  O544  1  0.67678026  0.35395360  0.19985739  1
  O  O545  1  0.67788652  0.35309416  0.44824055  1
  O  O546  1  0.67757784  0.35281396  0.69811981  1
  O  O547  1  0.67704361  0.35121124  0.94908314  1
  O  O548  1  0.67762769  0.68407660  0.19929283  1
  O  O549  1  0.67651312  0.68637701  0.45182054  1
  O  O550  1  0.67637767  0.68741534  0.69987944  1
  O  O551  1  0.67712552  0.68377459  0.94905282  1
  O  O552  1  0.32326945  0.31242602  0.05003585  1
  O  O553  1  0.32307735  0.31415498  0.29864846  1
  O  O554  1  0.32420257  0.31339385  0.54962547  1
  O  O555  1  0.32458889  0.31270740  0.79989349  1
  O  O556  1  0.32372330  0.64609970  0.04972450  1
  O  O557  1  0.32439352  0.64779039  0.29845171  1
  O  O558  1  0.32327511  0.64955539  0.55109535  1
  O  O559  1  0.32366056  0.64609330  0.80099952  1
  O  O560  1  0.32363802  0.97879853  0.05007985  1
  O  O561  1  0.32221587  0.98129800  0.30105621  1
  O  O562  1  0.32298939  0.98152781  0.55097286  1
  O  O563  1  0.32286338  0.97835268  0.80096704  1
  O  O564  1  0.82269516  0.31151465  0.04923274  1
  O  O565  1  0.82293507  0.31486737  0.30004393  1
  O  O566  1  0.82372187  0.31517735  0.55147435  1
  O  O567  1  0.82195767  0.31377851  0.80225704  1
  O  O568  1  0.82222173  0.64551335  0.05203598  1
  O  O569  1  0.82300972  0.64512284  0.30057556  1
  O  O570  1  0.82344113  0.64500621  0.55057778  1
  O  O571  1  0.82245980  0.64758136  0.80102758  1
  O  O572  1  0.82362787  0.97970403  0.04930619  1
  O  O573  1  0.82387045  0.98014714  0.29974050  1
  O  O574  1  0.82196709  0.98035579  0.55247085  1
  O  O575  1  0.82265580  0.98079868  0.80063773  1
  O  O576  1  0.42735163  0.14754046  0.17588793  1
  O  O577  1  0.42687579  0.14528620  0.42486416  1
  O  O578  1  0.42833100  0.14774093  0.67561905  1
  O  O579  1  0.42625019  0.14588363  0.92395939  1
  O  O580  1  0.42686457  0.47839651  0.17471324  1
  O  O581  1  0.42682235  0.47863774  0.42416366  1
  O  O582  1  0.42753706  0.48201453  0.67525800  1
  O  O583  1  0.42698866  0.47839158  0.92573204  1
  O  O584  1  0.42791653  0.81337541  0.17721779  1
  O  O585  1  0.42709462  0.81236572  0.42491596  1
  O  O586  1  0.42678365  0.81531531  0.67535660  1
  O  O587  1  0.42714682  0.81448426  0.92629605  1
  O  O588  1  0.92589156  0.14703686  0.17395230  1
  O  O589  1  0.92638635  0.14635938  0.42621341  1
  O  O590  1  0.92625538  0.14589397  0.67572052  1
  O  O591  1  0.92857290  0.14719258  0.92618353  1
  O  O592  1  0.92682939  0.47921589  0.17465323  1
  O  O593  1  0.92628413  0.48051300  0.42474875  1
  O  O594  1  0.92839930  0.48108261  0.67771513  1
  O  O595  1  0.92624125  0.47936142  0.92503788  1
  O  O596  1  0.92686077  0.81242252  0.17481923  1
  O  O597  1  0.92596124  0.81193395  0.42570009  1
  O  O598  1  0.92815421  0.81419852  0.67733122  1
  O  O599  1  0.92647567  0.81229521  0.92445381  1
  O  O600  1  0.07119402  0.18680617  0.07304446  1
  O  O601  1  0.07293570  0.18737297  0.32420403  1
  O  O602  1  0.07401555  0.18687831  0.57630517  1
  O  O603  1  0.07313409  0.18763962  0.82559633  1
  O  O604  1  0.07275002  0.52122410  0.07483926  1
  O  O605  1  0.07364448  0.52171855  0.32484388  1
  O  O606  1  0.07309702  0.52195922  0.57562497  1
  O  O607  1  0.07099856  0.51973779  0.82371810  1
  O  O608  1  0.07302281  0.85380483  0.07415281  1
  O  O609  1  0.07334420  0.85332658  0.32588534  1
  O  O610  1  0.07265808  0.85441082  0.57574084  1
  O  O611  1  0.07118832  0.85291576  0.82368464  1
  O  O612  1  0.57298762  0.18710940  0.07450853  1
  O  O613  1  0.57271458  0.18567009  0.32362030  1
  O  O614  1  0.57399305  0.18790075  0.57412671  1
  O  O615  1  0.57309759  0.18473353  0.82346342  1
  O  O616  1  0.57382178  0.51936991  0.07628733  1
  O  O617  1  0.57345825  0.52048849  0.32547893  1
  O  O618  1  0.57373076  0.52167953  0.57424531  1
  O  O619  1  0.57320605  0.51796903  0.82376069  1
  O  O620  1  0.57363731  0.85121971  0.07401275  1
  O  O621  1  0.57360489  0.85138393  0.32465070  1
  O  O622  1  0.57297269  0.85508276  0.57554218  1
  O  O623  1  0.57251946  0.85256901  0.82297482  1
  O  O624  1  0.32279486  0.18504247  0.05098404  1
  O  O625  1  0.32384484  0.18720119  0.29928680  1
  O  O626  1  0.32441504  0.18626179  0.54930319  1
  O  O627  1  0.32374425  0.18559115  0.79956571  1
  O  O628  1  0.32307803  0.51887110  0.05121126  1
  O  O629  1  0.32403530  0.52085366  0.29965773  1
  O  O630  1  0.32370771  0.52222176  0.54999136  1
  O  O631  1  0.32338943  0.51904032  0.80057457  1
  O  O632  1  0.32336017  0.85177980  0.05181661  1
  O  O633  1  0.32248192  0.85382888  0.30218497  1
  O  O634  1  0.32343810  0.85464524  0.54991878  1
  O  O635  1  0.32263860  0.85117417  0.80041851  1
  O  O636  1  0.82208638  0.18450187  0.04996974  1
  O  O637  1  0.82286934  0.18774943  0.30073864  1
  O  O638  1  0.82369837  0.18818841  0.55038409  1
  O  O639  1  0.82264005  0.18633496  0.80086133  1
  O  O640  1  0.82216353  0.51807931  0.05083760  1
  O  O641  1  0.82347145  0.51815830  0.30073036  1
  O  O642  1  0.82323135  0.51788660  0.55208761  1
  O  O643  1  0.82310034  0.52040584  0.80072107  1
  O  O644  1  0.82391421  0.85272673  0.04859894  1
  O  O645  1  0.82399513  0.85297666  0.30011492  1
  O  O646  1  0.82236198  0.85278028  0.55263830  1
  O  O647  1  0.82280840  0.85381661  0.80006406  1
  O  O648  1  0.17622143  0.14823260  0.19920191  1
  O  O649  1  0.17674324  0.14579161  0.45025612  1
  O  O650  1  0.17696677  0.14517832  0.69960166  1
  O  O651  1  0.17590893  0.14653913  0.94973455  1
  O  O652  1  0.17674818  0.48290292  0.19850813  1
  O  O653  1  0.17607743  0.48168470  0.45027814  1
  O  O654  1  0.17619249  0.48075198  0.70022840  1
  O  O655  1  0.17672383  0.48190038  0.94874658  1
  O  O656  1  0.17692657  0.81625987  0.19916264  1
  O  O657  1  0.17675172  0.81568516  0.45013823  1
  O  O658  1  0.17650577  0.81214013  0.69960718  1
  O  O659  1  0.17671563  0.81474762  0.94853264  1
  O  O660  1  0.67677319  0.14845056  0.19838366  1
  O  O661  1  0.67607870  0.14700304  0.45120984  1
  O  O662  1  0.67715799  0.14617017  0.70024085  1
  O  O663  1  0.67722438  0.14638538  0.94726424  1
  O  O664  1  0.67692521  0.48085958  0.19924432  1
  O  O665  1  0.67787660  0.48026628  0.44878289  1
  O  O666  1  0.67859183  0.48018064  0.69844560  1
  O  O667  1  0.67612200  0.47830622  0.94918532  1
  O  O668  1  0.67722930  0.81139191  0.19937832  1
  O  O669  1  0.67643023  0.81336024  0.45032886  1
  O  O670  1  0.67701575  0.81454958  0.69978686  1
  O  O671  1  0.67667982  0.81091054  0.95064256  1
