# generated using pymatgen
data_Na2MnFe(PO4)2
_symmetry_space_group_name_H-M   'P 1'
_cell_length_a   22.33812898
_cell_length_b   20.09018609
_cell_length_c   19.45413633
_cell_angle_alpha   89.96318633
_cell_angle_beta   89.94394998
_cell_angle_gamma   89.96033659
_symmetry_Int_Tables_number   1
_chemical_formula_structural   Na2MnFe(PO4)2
_chemical_formula_sum   'Na96 Mn48 Fe48 P96 O384'
_cell_volume   8730.56414198
_cell_formula_units_Z   48
loop_
 _symmetry_equiv_pos_site_id
 _symmetry_equiv_pos_as_xyz
  1  'x, y, z'
loop_
 _atom_site_type_symbol
 _atom_site_label
 _atom_site_symmetry_multiplicity
 _atom_site_fract_x
 _atom_site_fract_y
 _atom_site_fract_z
 _atom_site_occupancy
  Na  Na0  1  0.14054275  0.25194942  0.24470785  1
  Na  Na1  1  0.13989755  0.25016302  0.49382045  1
  Na  Na2  1  0.14091087  0.24992214  0.74289256  1
  Na  Na3  1  0.14068432  0.25127725  0.99311107  1
  Na  Na4  1  0.14092797  0.58535040  0.24323763  1
  Na  Na5  1  0.14086550  0.58364775  0.49414416  1
  Na  Na6  1  0.14117108  0.58380138  0.74332224  1
  Na  Na7  1  0.14119363  0.58479135  0.99308371  1
  Na  Na8  1  0.14037754  0.91583424  0.24308698  1
  Na  Na9  1  0.14081531  0.91545616  0.49412731  1
  Na  Na10  1  0.14127358  0.91634599  0.74375528  1
  Na  Na11  1  0.14052151  0.91572711  0.99303716  1
  Na  Na12  1  0.64044943  0.24908661  0.24460688  1
  Na  Na13  1  0.63999820  0.24913646  0.49402462  1
  Na  Na14  1  0.64050717  0.25112488  0.74308330  1
  Na  Na15  1  0.64070399  0.25098566  0.99342598  1
  Na  Na16  1  0.63956643  0.58295610  0.24363903  1
  Na  Na17  1  0.63974960  0.58393982  0.49277158  1
  Na  Na18  1  0.64080226  0.58316781  0.74370594  1
  Na  Na19  1  0.64045147  0.58333873  0.99476874  1
  Na  Na20  1  0.64019993  0.91600575  0.24405804  1
  Na  Na21  1  0.64117301  0.91670098  0.49230958  1
  Na  Na22  1  0.64048811  0.91700138  0.74330728  1
  Na  Na23  1  0.63984136  0.91653085  0.99334570  1
  Na  Na24  1  0.35972689  0.08257073  0.00631859  1
  Na  Na25  1  0.35953687  0.08264393  0.25646992  1
  Na  Na26  1  0.35889858  0.08285241  0.50660738  1
  Na  Na27  1  0.35944511  0.08268179  0.75676344  1
  Na  Na28  1  0.35929728  0.41829057  0.00643317  1
  Na  Na29  1  0.35940969  0.41883851  0.25756060  1
  Na  Na30  1  0.35928459  0.41609283  0.50834706  1
  Na  Na31  1  0.35941624  0.41598779  0.75623145  1
  Na  Na32  1  0.35980718  0.74900841  0.00696356  1
  Na  Na33  1  0.35984663  0.74942656  0.25622752  1
  Na  Na34  1  0.35971171  0.74842324  0.50654339  1
  Na  Na35  1  0.35973242  0.74847914  0.75602736  1
  Na  Na36  1  0.85930478  0.08390023  0.00518035  1
  Na  Na37  1  0.85941688  0.08233956  0.25716713  1
  Na  Na38  1  0.85945664  0.08384020  0.50627534  1
  Na  Na39  1  0.85968215  0.08464259  0.75586077  1
  Na  Na40  1  0.85956086  0.41719903  0.00567592  1
  Na  Na41  1  0.85913777  0.41603903  0.25608081  1
  Na  Na42  1  0.85914171  0.41668173  0.50680541  1
  Na  Na43  1  0.85926576  0.41700972  0.75593649  1
  Na  Na44  1  0.85994241  0.75055909  0.00580199  1
  Na  Na45  1  0.85925543  0.74986319  0.25670042  1
  Na  Na46  1  0.85923898  0.75013570  0.50591400  1
  Na  Na47  1  0.85932076  0.74949490  0.75613635  1
  Na  Na48  1  0.10938320  0.08314059  0.11860474  1
  Na  Na49  1  0.10962159  0.08423685  0.36958038  1
  Na  Na50  1  0.10998426  0.08469991  0.61943168  1
  Na  Na51  1  0.10993808  0.08405846  0.86854649  1
  Na  Na52  1  0.10988149  0.41781376  0.11892697  1
  Na  Na53  1  0.10985487  0.41704499  0.36933131  1
  Na  Na54  1  0.11007278  0.41618719  0.61782149  1
  Na  Na55  1  0.10984901  0.41707498  0.86801709  1
  Na  Na56  1  0.11048316  0.75000578  0.11821678  1
  Na  Na57  1  0.11055499  0.75106543  0.36779286  1
  Na  Na58  1  0.11074706  0.74987709  0.61897122  1
  Na  Na59  1  0.11056202  0.75140687  0.86794953  1
  Na  Na60  1  0.60952719  0.08172662  0.11938371  1
  Na  Na61  1  0.60987263  0.08291980  0.36894640  1
  Na  Na62  1  0.61004601  0.08313691  0.61748831  1
  Na  Na63  1  0.60962965  0.08260643  0.86805057  1
  Na  Na64  1  0.60952332  0.41736199  0.11869002  1
  Na  Na65  1  0.60886801  0.41726605  0.36951398  1
  Na  Na66  1  0.60915714  0.41709180  0.61862448  1
  Na  Na67  1  0.61028805  0.41673354  0.86858751  1
  Na  Na68  1  0.60961033  0.74968081  0.11890103  1
  Na  Na69  1  0.60998385  0.74927081  0.36785552  1
  Na  Na70  1  0.60988421  0.74821757  0.61672384  1
  Na  Na71  1  0.60979713  0.74951009  0.86975646  1
  Na  Na72  1  0.39068116  0.24996107  0.13164897  1
  Na  Na73  1  0.38983677  0.25118786  0.38269585  1
  Na  Na74  1  0.38950610  0.25001786  0.63187666  1
  Na  Na75  1  0.39024280  0.24913046  0.88086006  1
  Na  Na76  1  0.38966899  0.58369912  0.13212241  1
  Na  Na77  1  0.39030741  0.58371143  0.38233783  1
  Na  Na78  1  0.38965371  0.58191455  0.63174583  1
  Na  Na79  1  0.38958301  0.58342966  0.88213818  1
  Na  Na80  1  0.39019352  0.91502803  0.13096020  1
  Na  Na81  1  0.39007239  0.91521658  0.38115800  1
  Na  Na82  1  0.39053575  0.91473439  0.63047451  1
  Na  Na83  1  0.39076393  0.91467053  0.88211107  1
  Na  Na84  1  0.89017888  0.25014466  0.13065936  1
  Na  Na85  1  0.89016145  0.24962328  0.38160427  1
  Na  Na86  1  0.89005885  0.24895215  0.63105289  1
  Na  Na87  1  0.89023793  0.25026670  0.88074637  1
  Na  Na88  1  0.89042298  0.58384962  0.13081087  1
  Na  Na89  1  0.89001145  0.58411448  0.38123080  1
  Na  Na90  1  0.88961750  0.58342342  0.63134848  1
  Na  Na91  1  0.89050546  0.58384845  0.88106734  1
  Na  Na92  1  0.89060514  0.91575461  0.13122254  1
  Na  Na93  1  0.89004254  0.91821836  0.38178087  1
  Na  Na94  1  0.89022560  0.91772893  0.63151622  1
  Na  Na95  1  0.89031604  0.91799995  0.87985976  1
  Mn  Mn96  1  -0.00037878  0.16714159  -0.00007913  1
  Mn  Mn97  1  0.49886512  0.16691629  0.49966316  1
  Mn  Mn98  1  0.74975793  0.66597489  0.87489744  1
  Mn  Mn99  1  0.00052471  0.16658539  0.25001775  1
  Mn  Mn100  1  -0.00010201  0.33359444  0.25014264  1
  Mn  Mn101  1  0.25037188  -0.00045152  0.87474616  1
  Mn  Mn102  1  0.75004359  -0.00049888  0.12544029  1
  Mn  Mn103  1  0.49940983  0.50066785  -0.00014086  1
  Mn  Mn104  1  0.24937910  -0.00136109  0.37569132  1
  Mn  Mn105  1  0.74994536  0.49993618  0.12520387  1
  Mn  Mn106  1  0.74985539  0.83380172  0.62433761  1
  Mn  Mn107  1  -0.00041962  -0.00028115  -0.00056940  1
  Mn  Mn108  1  0.74976110  0.33359472  0.62494020  1
  Mn  Mn109  1  0.00007811  0.83375828  0.25012727  1
  Mn  Mn110  1  0.25011916  0.33371878  0.87491595  1
  Mn  Mn111  1  0.50028568  0.49917355  0.75033766  1
  Mn  Mn112  1  0.50033920  0.83194527  0.75028185  1
  Mn  Mn113  1  0.50089331  0.16540217  0.00059664  1
  Mn  Mn114  1  0.00054493  0.50010799  0.50000432  1
  Mn  Mn115  1  0.00081688  0.49998840  -0.00018557  1
  Mn  Mn116  1  0.50008561  0.83269278  0.24988207  1
  Mn  Mn117  1  -0.00067764  0.50077694  0.24963611  1
  Mn  Mn118  1  0.74935490  0.33216553  0.37616572  1
  Mn  Mn119  1  0.24972952  0.16749747  0.37575261  1
  Mn  Mn120  1  0.25014251  0.16755094  0.12569476  1
  Mn  Mn121  1  0.24962544  -0.00077651  0.12519808  1
  Mn  Mn122  1  0.74936181  0.50030424  0.37500922  1
  Mn  Mn123  1  0.25005956  0.50053935  0.37578982  1
  Mn  Mn124  1  -0.00041238  0.50062060  0.74939613  1
  Mn  Mn125  1  0.49985747  0.66601491  0.74973179  1
  Mn  Mn126  1  0.74967792  0.83400412  0.87453211  1
  Mn  Mn127  1  0.00050068  0.66788901  -0.00012907  1
  Mn  Mn128  1  0.00079349  0.00154164  0.50100527  1
  Mn  Mn129  1  0.49968017  0.16685380  0.74961636  1
  Mn  Mn130  1  0.00013985  0.66724825  0.49975422  1
  Mn  Mn131  1  0.25070314  0.33549037  0.12412129  1
  Mn  Mn132  1  0.74927632  0.16719705  0.87468550  1
  Mn  Mn133  1  0.75051795  0.83272466  0.12496228  1
  Mn  Mn134  1  0.50048458  -0.00112054  0.74964779  1
  Mn  Mn135  1  0.49923207  -0.00105307  0.49977311  1
  Mn  Mn136  1  0.49988237  0.33326106  0.00061636  1
  Mn  Mn137  1  0.49994118  0.16578508  0.25070399  1
  Mn  Mn138  1  0.25044101  -0.00106686  0.62541362  1
  Mn  Mn139  1  0.50004763  0.33427344  0.25092843  1
  Mn  Mn140  1  0.00004155  0.83395288  0.74976882  1
  Mn  Mn141  1  0.74935486  0.16701936  0.12500744  1
  Mn  Mn142  1  0.00007715  0.83407507  0.50004857  1
  Mn  Mn143  1  -0.00014111  0.33264877  0.74902262  1
  Fe  Fe144  1  0.75000943  0.66656430  0.12499376  1
  Fe  Fe145  1  0.00019168  0.33339382  -0.00041365  1
  Fe  Fe146  1  -0.00004034  0.00024765  0.25000405  1
  Fe  Fe147  1  0.24948462  0.33287489  0.62586710  1
  Fe  Fe148  1  0.49973838  0.66625625  0.25032252  1
  Fe  Fe149  1  0.75026796  0.16591338  0.37486655  1
  Fe  Fe150  1  0.49933731  0.49998700  0.49995037  1
  Fe  Fe151  1  0.25029469  0.83258678  0.12420798  1
  Fe  Fe152  1  0.00010923  0.66729786  0.24957474  1
  Fe  Fe153  1  0.25052721  0.83213651  0.62474770  1
  Fe  Fe154  1  0.74997937  0.83292825  0.37510394  1
  Fe  Fe155  1  0.25018096  0.33402567  0.37598641  1
  Fe  Fe156  1  0.50054526  0.66617361  0.00093554  1
  Fe  Fe157  1  0.25035137  0.83199515  0.37452834  1
  Fe  Fe158  1  0.25027204  0.66642237  0.62531177  1
  Fe  Fe159  1  0.49985302  0.33308201  0.74993461  1
  Fe  Fe160  1  0.24975550  0.16632848  0.62525998  1
  Fe  Fe161  1  -0.00071528  0.33319145  0.49980922  1
  Fe  Fe162  1  0.75001912  0.33334242  0.12500317  1
  Fe  Fe163  1  0.25047141  0.66626878  0.87510108  1
  Fe  Fe164  1  0.74987264  0.00070586  0.87409642  1
  Fe  Fe165  1  0.49958951  -0.00108874  0.24985051  1
  Fe  Fe166  1  0.50073308  0.83247877  0.49943759  1
  Fe  Fe167  1  0.75009948  0.33426254  0.87432852  1
  Fe  Fe168  1  0.24983893  0.49997530  0.62549009  1
  Fe  Fe169  1  0.74993273  0.66643748  0.37494154  1
  Fe  Fe170  1  0.74983761  0.66695885  0.62468941  1
  Fe  Fe171  1  -0.00046642  0.16684928  0.50009932  1
  Fe  Fe172  1  0.50021228  0.83244170  0.00076805  1
  Fe  Fe173  1  0.25021594  0.16673030  0.87500346  1
  Fe  Fe174  1  0.00088872  0.00081226  0.75020511  1
  Fe  Fe175  1  0.49981480  0.66582709  0.49936096  1
  Fe  Fe176  1  0.74936994  0.50062297  0.62532114  1
  Fe  Fe177  1  0.75006804  0.00081754  0.62400722  1
  Fe  Fe178  1  0.00026702  0.66774043  0.75014135  1
  Fe  Fe179  1  0.00074392  0.16719384  0.75005112  1
  Fe  Fe180  1  0.74972420  -0.00002867  0.37542486  1
  Fe  Fe181  1  0.24980532  0.50049231  0.87480194  1
  Fe  Fe182  1  0.75053308  0.50012558  0.87505210  1
  Fe  Fe183  1  0.49943652  0.50050176  0.25052543  1
  Fe  Fe184  1  0.25091453  0.83231630  0.87438084  1
  Fe  Fe185  1  0.00025209  0.83376682  -0.00034204  1
  Fe  Fe186  1  0.24997952  0.66705485  0.37483637  1
  Fe  Fe187  1  0.74980242  0.16653940  0.62485884  1
  Fe  Fe188  1  0.25037663  0.66741095  0.12446720  1
  Fe  Fe189  1  0.49991549  -0.00093030  -0.00006717  1
  Fe  Fe190  1  0.49983552  0.33374537  0.50035970  1
  Fe  Fe191  1  0.24975182  0.50154233  0.12568098  1
  P  P192  1  0.04270939  0.25136062  0.10220504  1
  P  P193  1  0.04248455  0.25024215  0.35416322  1
  P  P194  1  0.04114431  0.24968485  0.60152885  1
  P  P195  1  0.04275245  0.24946487  0.85240071  1
  P  P196  1  0.04309971  0.58416433  0.10309584  1
  P  P197  1  0.04244964  0.58498821  0.35195402  1
  P  P198  1  0.04289349  0.58413131  0.60354928  1
  P  P199  1  0.04251919  0.58522902  0.85197891  1
  P  P200  1  0.04237576  0.91565270  0.10239863  1
  P  P201  1  0.04255605  0.91865135  0.35245201  1
  P  P202  1  0.04309159  0.91747178  0.60390683  1
  P  P203  1  0.04274579  0.91803935  0.85236320  1
  P  P204  1  0.54311254  0.24965212  0.10370501  1
  P  P205  1  0.54236083  0.25044593  0.35400865  1
  P  P206  1  0.54152360  0.25129298  0.60263247  1
  P  P207  1  0.54250263  0.25080891  0.85236815  1
  P  P208  1  0.54197708  0.58418106  0.10374234  1
  P  P209  1  0.54091661  0.58326225  0.35240614  1
  P  P210  1  0.54086302  0.58256862  0.60111920  1
  P  P211  1  0.54278753  0.58335712  0.85354652  1
  P  P212  1  0.54134689  0.91640787  0.10193841  1
  P  P213  1  0.54197293  0.91675215  0.35253604  1
  P  P214  1  0.54306581  0.91454366  0.60168815  1
  P  P215  1  0.54275995  0.91562626  0.85403209  1
  P  P216  1  0.45770231  0.08099770  0.14744884  1
  P  P217  1  0.45647477  0.08247964  0.39643525  1
  P  P218  1  0.45688179  0.08261833  0.64682148  1
  P  P219  1  0.45783017  0.08159088  0.89771649  1
  P  P220  1  0.45742324  0.41835027  0.14822686  1
  P  P221  1  0.45792308  0.41731156  0.39873202  1
  P  P222  1  0.45763257  0.41514162  0.64714299  1
  P  P223  1  0.45713251  0.41609203  0.89671825  1
  P  P224  1  0.45825299  0.74833839  0.14722459  1
  P  P225  1  0.45899153  0.74935030  0.39811200  1
  P  P226  1  0.45771503  0.74918014  0.64572415  1
  P  P227  1  0.45874274  0.74894743  0.89928372  1
  P  P228  1  0.95735828  0.08224293  0.14762081  1
  P  P229  1  0.95774000  0.08445747  0.39752410  1
  P  P230  1  0.95897694  0.08423749  0.64859968  1
  P  P231  1  0.95743301  0.08388693  0.89580988  1
  P  P232  1  0.95699777  0.41656524  0.14624111  1
  P  P233  1  0.95732109  0.41608054  0.39782780  1
  P  P234  1  0.95714919  0.41629309  0.64595552  1
  P  P235  1  0.95810798  0.41569710  0.89721064  1
  P  P236  1  0.95780203  0.74954263  0.14724619  1
  P  P237  1  0.95735208  0.75067321  0.39624448  1
  P  P238  1  0.95757635  0.74936800  0.64754541  1
  P  P239  1  0.95795094  0.75189863  0.89693119  1
  P  P240  1  0.20697435  0.08344044  0.22851753  1
  P  P241  1  0.20732616  0.08315189  0.47913591  1
  P  P242  1  0.20845203  0.08411129  0.72801485  1
  P  P243  1  0.20797792  0.08428950  0.97737451  1
  P  P244  1  0.20795320  0.41891654  0.22790196  1
  P  P245  1  0.20797772  0.41566691  0.47883043  1
  P  P246  1  0.20850037  0.41710266  0.72696733  1
  P  P247  1  0.20778857  0.41907910  0.97743620  1
  P  P248  1  0.20900893  0.75032956  0.22658231  1
  P  P249  1  0.20874462  0.74946459  0.47710145  1
  P  P250  1  0.20925721  0.74970999  0.72724073  1
  P  P251  1  0.20933863  0.74988526  0.97656441  1
  P  P252  1  0.70735339  0.08287823  0.22910780  1
  P  P253  1  0.70843911  0.08342234  0.47716415  1
  P  P254  1  0.70833346  0.08347676  0.72627390  1
  P  P255  1  0.70730081  0.08229266  0.97699089  1
  P  P256  1  0.70734568  0.41502964  0.22757302  1
  P  P257  1  0.70702775  0.41716215  0.47889019  1
  P  P258  1  0.70777177  0.41818003  0.72795599  1
  P  P259  1  0.70869706  0.41696293  0.97677045  1
  P  P260  1  0.70778762  0.74827471  0.22812555  1
  P  P261  1  0.70871712  0.74963069  0.47660588  1
  P  P262  1  0.70752438  0.74913477  0.72677978  1
  P  P263  1  0.70748877  0.74974180  0.97830603  1
  P  P264  1  0.29305076  0.25034793  0.02145456  1
  P  P265  1  0.29245536  0.25230487  0.27325786  1
  P  P266  1  0.29087196  0.25013153  0.52387474  1
  P  P267  1  0.29179807  0.24867478  0.77199775  1
  P  P268  1  0.29140264  0.58362421  0.02305775  1
  P  P269  1  0.29210907  0.58511990  0.27261493  1
  P  P270  1  0.29115698  0.58303971  0.52376295  1
  P  P271  1  0.29154098  0.58301673  0.77288590  1
  P  P272  1  0.29203210  0.91476903  0.02190634  1
  P  P273  1  0.29191517  0.91450704  0.27224235  1
  P  P274  1  0.29230359  0.91403301  0.52213357  1
  P  P275  1  0.29279568  0.91444887  0.77213644  1
  P  P276  1  0.79184965  0.25179645  0.02193544  1
  P  P277  1  0.79218696  0.24880124  0.27259672  1
  P  P278  1  0.79176095  0.24818949  0.52237685  1
  P  P279  1  0.79193936  0.25144434  0.77214558  1
  P  P280  1  0.79251471  0.58428047  0.02241754  1
  P  P281  1  0.79179758  0.58442711  0.27221369  1
  P  P282  1  0.79076991  0.58400456  0.52307251  1
  P  P283  1  0.79229898  0.58194566  0.77173669  1
  P  P284  1  0.79280042  0.91699414  0.02126542  1
  P  P285  1  0.79113083  0.91628729  0.27393731  1
  P  P286  1  0.79219013  0.91841929  0.52160694  1
  P  P287  1  0.79187810  0.91881639  0.77140741  1
  O  O288  1  0.03776346  0.25087116  0.18219066  1
  O  O289  1  0.03681742  0.25029963  0.43404212  1
  O  O290  1  0.03652025  0.24921784  0.68153244  1
  O  O291  1  0.03770739  0.25028361  0.93232640  1
  O  O292  1  0.03771037  0.58462730  0.18299659  1
  O  O293  1  0.03756931  0.58450294  0.43194689  1
  O  O294  1  0.03758013  0.58466676  0.68346224  1
  O  O295  1  0.03754299  0.58488491  0.93194097  1
  O  O296  1  0.03721658  0.91621991  0.18232737  1
  O  O297  1  0.03778314  0.91829641  0.43244504  1
  O  O298  1  0.03787823  0.91771145  0.68381457  1
  O  O299  1  0.03749845  0.91708905  0.93227342  1
  O  O300  1  0.53783564  0.24969959  0.18364050  1
  O  O301  1  0.53683833  0.25099234  0.43393583  1
  O  O302  1  0.53631789  0.25129355  0.68260545  1
  O  O303  1  0.53775475  0.25025453  0.93237586  1
  O  O304  1  0.53656725  0.58376302  0.18361697  1
  O  O305  1  0.53572036  0.58315828  0.43227904  1
  O  O306  1  0.53666968  0.58272593  0.68110446  1
  O  O307  1  0.53782970  0.58390583  0.93349188  1
  O  O308  1  0.53654138  0.91654203  0.18192488  1
  O  O309  1  0.53672092  0.91581329  0.43240384  1
  O  O310  1  0.53830508  0.91465048  0.68169372  1
  O  O311  1  0.53729107  0.91586207  0.93390269  1
  O  O312  1  0.46338793  0.08092947  0.06751992  1
  O  O313  1  0.46173970  0.08201836  0.31649644  1
  O  O314  1  0.46151679  0.08280491  0.56682466  1
  O  O315  1  0.46294006  0.08216109  0.81774025  1
  O  O316  1  0.46242331  0.41810685  0.06827825  1
  O  O317  1  0.46301556  0.41804550  0.31879662  1
  O  O318  1  0.46278490  0.41546608  0.56726685  1
  O  O319  1  0.46241144  0.41556937  0.81677963  1
  O  O320  1  0.46366061  0.74853513  0.06741461  1
  O  O321  1  0.46359892  0.74872440  0.31814301  1
  O  O322  1  0.46287198  0.74937377  0.56585757  1
  O  O323  1  0.46316485  0.74911806  0.81924071  1
  O  O324  1  0.96226638  0.08261428  0.06763787  1
  O  O325  1  0.96291515  0.08356432  0.31763193  1
  O  O326  1  0.96410573  0.08490331  0.56864808  1
  O  O327  1  0.96309896  0.08396810  0.81597283  1
  O  O328  1  0.96253523  0.41614148  0.06632574  1
  O  O329  1  0.96203034  0.41656171  0.31782805  1
  O  O330  1  0.96234168  0.41597576  0.56603038  1
  O  O331  1  0.96307533  0.41608314  0.81723184  1
  O  O332  1  0.96303415  0.75049581  0.06731474  1
  O  O333  1  0.96239150  0.75014673  0.31629117  1
  O  O334  1  0.96251953  0.74982060  0.56756543  1
  O  O335  1  0.96306420  0.75100417  0.81698150  1
  O  O336  1  0.21292804  0.08390436  0.05735581  1
  O  O337  1  0.21196309  0.08322688  0.30850241  1
  O  O338  1  0.21301011  0.08335708  0.55904751  1
  O  O339  1  0.21396997  0.08440261  0.80792614  1
  O  O340  1  0.21313433  0.41937540  0.05732192  1
  O  O341  1  0.21316764  0.41820027  0.30780626  1
  O  O342  1  0.21313463  0.41579509  0.55867466  1
  O  O343  1  0.21312766  0.41720696  0.80690133  1
  O  O344  1  0.21423036  0.74985933  0.05640645  1
  O  O345  1  0.21365490  0.75024427  0.30642957  1
  O  O346  1  0.21378954  0.74938086  0.55693296  1
  O  O347  1  0.21446254  0.74968264  0.80705137  1
  O  O348  1  0.71228178  0.08253070  0.05691342  1
  O  O349  1  0.71281055  0.08290816  0.30898965  1
  O  O350  1  0.71367429  0.08342734  0.55706104  1
  O  O351  1  0.71319839  0.08325596  0.80623021  1
  O  O352  1  0.71381375  0.41638395  0.05671913  1
  O  O353  1  0.71223177  0.41534526  0.30753104  1
  O  O354  1  0.71242387  0.41799308  0.55876002  1
  O  O355  1  0.71337984  0.41785685  0.80781207  1
  O  O356  1  0.71285555  0.74934674  0.05820810  1
  O  O357  1  0.71316302  0.74840136  0.30798839  1
  O  O358  1  0.71349276  0.74972063  0.55655012  1
  O  O359  1  0.71250771  0.74935333  0.80669489  1
  O  O360  1  0.28754962  0.25234346  0.19329890  1
  O  O361  1  0.28623081  0.25112786  0.44392293  1
  O  O362  1  0.28612173  0.24858624  0.69215594  1
  O  O363  1  0.28766750  0.24964634  0.94151733  1
  O  O364  1  0.28705677  0.58483820  0.19282046  1
  O  O365  1  0.28659904  0.58325598  0.44389063  1
  O  O366  1  0.28634153  0.58316555  0.69307723  1
  O  O367  1  0.28659569  0.58351664  0.94320788  1
  O  O368  1  0.28667952  0.91463262  0.19229098  1
  O  O369  1  0.28670396  0.91409832  0.44224294  1
  O  O370  1  0.28723800  0.91439993  0.69224164  1
  O  O371  1  0.28697823  0.91489522  0.94197270  1
  O  O372  1  0.78686790  0.24971079  0.19267725  1
  O  O373  1  0.78651191  0.24762697  0.44249527  1
  O  O374  1  0.78677498  0.25068812  0.69227284  1
  O  O375  1  0.78645628  0.25202191  0.94201414  1
  O  O376  1  0.78680945  0.58433326  0.19229657  1
  O  O377  1  0.78577521  0.58447090  0.44310983  1
  O  O378  1  0.78672352  0.58219752  0.69190206  1
  O  O379  1  0.78733399  0.58343194  0.94250639  1
  O  O380  1  0.78646485  0.91577729  0.19395839  1
  O  O381  1  0.78672316  0.91822367  0.44178856  1
  O  O382  1  0.78651496  0.91887634  0.69148806  1
  O  O383  1  0.78767160  0.91745351  0.94133376  1
  O  O384  1  0.22872236  0.25109435  0.05691614  1
  O  O385  1  0.22806378  0.25250792  0.30877458  1
  O  O386  1  0.22667660  0.24944357  0.55970858  1
  O  O387  1  0.22775353  0.24877697  0.80846845  1
  O  O388  1  0.22735172  0.58338853  0.05944027  1
  O  O389  1  0.22789302  0.58516848  0.30865930  1
  O  O390  1  0.22702450  0.58300307  0.55970585  1
  O  O391  1  0.22750459  0.58310222  0.80942552  1
  O  O392  1  0.22775921  0.91445069  0.05771429  1
  O  O393  1  0.22767390  0.91408941  0.30815511  1
  O  O394  1  0.22820982  0.91433260  0.55838481  1
  O  O395  1  0.22859324  0.91452521  0.80815846  1
  O  O396  1  0.72765039  0.25179642  0.05801150  1
  O  O397  1  0.72791066  0.24799041  0.30847445  1
  O  O398  1  0.72756038  0.24866201  0.55830162  1
  O  O399  1  0.72766427  0.25204391  0.80793022  1
  O  O400  1  0.72825056  0.58482823  0.05834281  1
  O  O401  1  0.72742523  0.58465297  0.30778497  1
  O  O402  1  0.72659018  0.58426372  0.55912392  1
  O  O403  1  0.72815359  0.58130045  0.80801847  1
  O  O404  1  0.72842941  0.91636428  0.05664737  1
  O  O405  1  0.72693959  0.91684802  0.30972728  1
  O  O406  1  0.72800618  0.91846787  0.55773299  1
  O  O407  1  0.72770829  0.91872800  0.80750496  1
  O  O408  1  0.27145397  0.08323713  0.19347987  1
  O  O409  1  0.27147739  0.08292926  0.44328842  1
  O  O410  1  0.27253722  0.08394502  0.69182357  1
  O  O411  1  0.27231916  0.08424833  0.94183187  1
  O  O412  1  0.27223707  0.41969388  0.19200607  1
  O  O413  1  0.27219272  0.41570798  0.44274767  1
  O  O414  1  0.27265591  0.41699052  0.69111336  1
  O  O415  1  0.27203215  0.41887433  0.94147944  1
  O  O416  1  0.27315554  0.75073009  0.19039358  1
  O  O417  1  0.27288228  0.74943439  0.44070490  1
  O  O418  1  0.27323980  0.74988176  0.69065048  1
  O  O419  1  0.27348352  0.74987394  0.94035161  1
  O  O420  1  0.77154407  0.08340507  0.19320928  1
  O  O421  1  0.77248622  0.08311012  0.44064962  1
  O  O422  1  0.77261044  0.08340967  0.69041744  1
  O  O423  1  0.77163582  0.08249968  0.94137522  1
  O  O424  1  0.77172612  0.41507373  0.19207727  1
  O  O425  1  0.77128579  0.41670401  0.44330603  1
  O  O426  1  0.77183885  0.41825388  0.69159333  1
  O  O427  1  0.77280717  0.41704401  0.94041181  1
  O  O428  1  0.77202217  0.74789332  0.19196428  1
  O  O429  1  0.77287743  0.74919043  0.44069371  1
  O  O430  1  0.77191196  0.74898658  0.69132033  1
  O  O431  1  0.77168802  0.74999700  0.94256360  1
  O  O432  1  0.02184218  0.08181173  0.18278647  1
  O  O433  1  0.02202817  0.08564060  0.43319723  1
  O  O434  1  0.02314518  0.08428283  0.68465304  1
  O  O435  1  0.02157579  0.08379609  0.93169305  1
  O  O436  1  0.02131426  0.41724815  0.18164035  1
  O  O437  1  0.02181281  0.41567259  0.43276879  1
  O  O438  1  0.02148899  0.41660669  0.68118305  1
  O  O439  1  0.02247212  0.41529101  0.93260453  1
  O  O440  1  0.02210565  0.74919188  0.18290000  1
  O  O441  1  0.02183970  0.75083907  0.43119346  1
  O  O442  1  0.02203078  0.74926298  0.68267846  1
  O  O443  1  0.02232219  0.75244635  0.93238498  1
  O  O444  1  0.52186109  0.08088836  0.18349737  1
  O  O445  1  0.52082612  0.08279833  0.43164946  1
  O  O446  1  0.52148382  0.08297651  0.68135494  1
  O  O447  1  0.52221081  0.08086082  0.93311969  1
  O  O448  1  0.52179858  0.41875423  0.18357175  1
  O  O449  1  0.52214176  0.41705835  0.43451821  1
  O  O450  1  0.52187937  0.41476498  0.68305952  1
  O  O451  1  0.52148370  0.41678856  0.93197410  1
  O  O452  1  0.52229809  0.74804658  0.18347158  1
  O  O453  1  0.52321969  0.74973148  0.43376154  1
  O  O454  1  0.52207122  0.74897666  0.68114197  1
  O  O455  1  0.52299251  0.74849332  0.93476570  1
  O  O456  1  0.47869852  0.24925994  0.06865554  1
  O  O457  1  0.47810826  0.25032412  0.31856890  1
  O  O458  1  0.47722685  0.25144515  0.56705364  1
  O  O459  1  0.47802981  0.25106268  0.81723801  1
  O  O460  1  0.47777998  0.58474765  0.06771219  1
  O  O461  1  0.47684384  0.58315258  0.31609627  1
  O  O462  1  0.47647732  0.58251525  0.56601578  1
  O  O463  1  0.47831685  0.58279493  0.81859050  1
  O  O464  1  0.47722561  0.91679127  0.06603508  1
  O  O465  1  0.47773928  0.91720841  0.31673367  1
  O  O466  1  0.47851674  0.91380160  0.56676203  1
  O  O467  1  0.47853968  0.91564433  0.81823026  1
  O  O468  1  0.97825082  0.25190680  0.06694878  1
  O  O469  1  0.97830242  0.24987150  0.31835324  1
  O  O470  1  0.97689475  0.24942343  0.56580437  1
  O  O471  1  0.97836190  0.24872896  0.81699422  1
  O  O472  1  0.97881476  0.58393228  0.06772148  1
  O  O473  1  0.97797784  0.58552513  0.31679961  1
  O  O474  1  0.97854561  0.58369791  0.56829236  1
  O  O475  1  0.97811108  0.58556985  0.81672449  1
  O  O476  1  0.97803885  0.91513248  0.06681558  1
  O  O477  1  0.97810844  0.91858679  0.31725521  1
  O  O478  1  0.97873143  0.91759629  0.56865106  1
  O  O479  1  0.97848811  0.91866418  0.81671091  1
  O  O480  1  0.07351799  0.31487034  0.07378856  1
  O  O481  1  0.07353144  0.31375332  0.32573099  1
  O  O482  1  0.07123707  0.31396837  0.57355645  1
  O  O483  1  0.07366811  0.31292616  0.82371274  1
  O  O484  1  0.07440480  0.64735904  0.07451998  1
  O  O485  1  0.07325392  0.64853438  0.32355284  1
  O  O486  1  0.07409413  0.64732310  0.57488341  1
  O  O487  1  0.07324280  0.64888938  0.82372971  1
  O  O488  1  0.07346052  0.97911958  0.07411842  1
  O  O489  1  0.07293614  0.98235329  0.32393896  1
  O  O490  1  0.07453012  0.98067755  0.57569930  1
  O  O491  1  0.07356383  0.98175169  0.82425789  1
  O  O492  1  0.57378450  0.31338004  0.07556988  1
  O  O493  1  0.57376174  0.31367350  0.32565367  1
  O  O494  1  0.57261588  0.31455941  0.57395302  1
  O  O495  1  0.57308918  0.31443254  0.82390995  1
  O  O496  1  0.57314029  0.64747278  0.07508082  1
  O  O497  1  0.57171587  0.64696066  0.32401035  1
  O  O498  1  0.57133138  0.64627855  0.57226965  1
  O  O499  1  0.57370972  0.64662488  0.82461896  1
  O  O500  1  0.57290847  0.97946897  0.07345664  1
  O  O501  1  0.57274338  0.98039988  0.32438165  1
  O  O502  1  0.57337175  0.97864285  0.57386806  1
  O  O503  1  0.57398610  0.97886602  0.82516366  1
  O  O504  1  0.42663074  0.01763977  0.17595090  1
  O  O505  1  0.42525494  0.01924322  0.42497286  1
  O  O506  1  0.42635973  0.01878006  0.67486866  1
  O  O507  1  0.42669357  0.01815271  0.92580972  1
  O  O508  1  0.42660790  0.35455073  0.17607053  1
  O  O509  1  0.42726251  0.35341771  0.42670573  1
  O  O510  1  0.42668981  0.35185131  0.67611270  1
  O  O511  1  0.42620425  0.35276248  0.92541094  1
  O  O512  1  0.42707570  0.68518482  0.17621319  1
  O  O513  1  0.42845040  0.68566042  0.42704426  1
  O  O514  1  0.42655489  0.68572889  0.67425842  1
  O  O515  1  0.42758148  0.68547136  0.92737795  1
  O  O516  1  0.92668714  0.01862708  0.17608006  1
  O  O517  1  0.92718221  0.02082617  0.42623772  1
  O  O518  1  0.92860258  0.02002918  0.67622134  1
  O  O519  1  0.92609117  0.02056385  0.92416749  1
  O  O520  1  0.92601796  0.35326009  0.17493254  1
  O  O521  1  0.92658432  0.35247534  0.42624394  1
  O  O522  1  0.92598478  0.35295272  0.67433506  1
  O  O523  1  0.92740002  0.35210469  0.92552779  1
  O  O524  1  0.92726520  0.68572186  0.17542897  1
  O  O525  1  0.92608962  0.68751099  0.42488723  1
  O  O526  1  0.92704837  0.68575028  0.67607870  1
  O  O527  1  0.92683106  0.68846217  0.92529837  1
  O  O528  1  0.17595358  0.02005983  0.20016798  1
  O  O529  1  0.17614339  0.01953604  0.45146907  1
  O  O530  1  0.17740592  0.02019635  0.70087826  1
  O  O531  1  0.17691090  0.02066124  0.94953110  1
  O  O532  1  0.17710078  0.35540437  0.19948596  1
  O  O533  1  0.17728256  0.35225050  0.44990355  1
  O  O534  1  0.17791608  0.35316761  0.69875992  1
  O  O535  1  0.17683906  0.35524909  0.94985223  1
  O  O536  1  0.17875796  0.68649157  0.19769060  1
  O  O537  1  0.17798343  0.68585720  0.44839690  1
  O  O538  1  0.17868484  0.68594310  0.69864262  1
  O  O539  1  0.17874218  0.68614949  0.94788570  1
  O  O540  1  0.67650886  0.01920946  0.20092588  1
  O  O541  1  0.67723715  0.01992772  0.44895003  1
  O  O542  1  0.67717455  0.02025899  0.69763218  1
  O  O543  1  0.67690252  0.01873119  0.94830476  1
  O  O544  1  0.67678512  0.35149066  0.19911977  1
  O  O545  1  0.67595874  0.35337602  0.45163051  1
  O  O546  1  0.67643434  0.35473190  0.69992975  1
  O  O547  1  0.67755369  0.35368989  0.94814665  1
  O  O548  1  0.67668505  0.68513471  0.19922739  1
  O  O549  1  0.67720765  0.68645906  0.44841986  1
  O  O550  1  0.67684020  0.68552788  0.69840981  1
  O  O551  1  0.67622793  0.68646388  0.95007065  1
  O  O552  1  0.32429143  0.31404070  0.04891418  1
  O  O553  1  0.32312631  0.31576393  0.30197830  1
  O  O554  1  0.32126030  0.31369222  0.55311885  1
  O  O555  1  0.32302987  0.31237864  0.79955572  1
  O  O556  1  0.32183472  0.64752566  0.05162968  1
  O  O557  1  0.32281021  0.64860359  0.30149029  1
  O  O558  1  0.32189669  0.64661635  0.55230948  1
  O  O559  1  0.32243407  0.64656654  0.80155370  1
  O  O560  1  0.32265353  0.97863960  0.04985241  1
  O  O561  1  0.32261987  0.97833349  0.30015116  1
  O  O562  1  0.32360641  0.97766669  0.54969522  1
  O  O563  1  0.32380225  0.97825485  0.79963475  1
  O  O564  1  0.82280037  0.31496368  0.05083208  1
  O  O565  1  0.82306350  0.31229631  0.30108755  1
  O  O566  1  0.82296455  0.31198273  0.54952346  1
  O  O567  1  0.82295115  0.31497968  0.80021159  1
  O  O568  1  0.82337490  0.64789229  0.05044210  1
  O  O569  1  0.82291500  0.64748109  0.30110859  1
  O  O570  1  0.82203075  0.64736046  0.55148206  1
  O  O571  1  0.82309343  0.64576891  0.79969061  1
  O  O572  1  0.82374272  0.98031538  0.04992034  1
  O  O573  1  0.82243216  0.97976129  0.30153707  1
  O  O574  1  0.82318069  0.98173416  0.55036850  1
  O  O575  1  0.82270963  0.98214768  0.80009846  1
  O  O576  1  0.42662797  0.14486771  0.17499237  1
  O  O577  1  0.42532495  0.14613425  0.42432799  1
  O  O578  1  0.42568284  0.14593804  0.67516647  1
  O  O579  1  0.42722964  0.14544474  0.92580687  1
  O  O580  1  0.42648786  0.48179330  0.17666690  1
  O  O581  1  0.42691642  0.48076991  0.42741448  1
  O  O582  1  0.42674090  0.47889209  0.67534641  1
  O  O583  1  0.42579112  0.47965508  0.92455300  1
  O  O584  1  0.42725117  0.81209205  0.17526859  1
  O  O585  1  0.42805317  0.81308038  0.42594608  1
  O  O586  1  0.42666222  0.81239830  0.67479550  1
  O  O587  1  0.42861649  0.81299169  0.92779979  1
  O  O588  1  0.92659719  0.14604763  0.17551433  1
  O  O589  1  0.92646494  0.14781174  0.42577697  1
  O  O590  1  0.92777393  0.14755579  0.67710544  1
  O  O591  1  0.92611869  0.14722703  0.92435383  1
  O  O592  1  0.92564498  0.48010184  0.17415727  1
  O  O593  1  0.92639966  0.47981725  0.42577836  1
  O  O594  1  0.92603995  0.47984003  0.67409098  1
  O  O595  1  0.92729317  0.47954614  0.92496942  1
  O  O596  1  0.92639141  0.81282128  0.17561603  1
  O  O597  1  0.92659217  0.81445545  0.42435410  1
  O  O598  1  0.92640784  0.81299877  0.67528874  1
  O  O599  1  0.92725696  0.81565108  0.92510150  1
  O  O600  1  0.07339647  0.18747398  0.07435586  1
  O  O601  1  0.07400939  0.18702964  0.32575270  1
  O  O602  1  0.07244945  0.18646088  0.57304663  1
  O  O603  1  0.07367514  0.18592071  0.82402904  1
  O  O604  1  0.07414152  0.52054494  0.07507174  1
  O  O605  1  0.07317434  0.52110896  0.32418894  1
  O  O606  1  0.07401953  0.52050085  0.57560741  1
  O  O607  1  0.07335532  0.52144116  0.82414494  1
  O  O608  1  0.07303747  0.85194818  0.07393365  1
  O  O609  1  0.07371667  0.85507879  0.32450375  1
  O  O610  1  0.07380432  0.85369293  0.57566623  1
  O  O611  1  0.07395719  0.85466372  0.82402283  1
  O  O612  1  0.57440362  0.18624873  0.07562917  1
  O  O613  1  0.57341074  0.18671575  0.32633423  1
  O  O614  1  0.57242716  0.18739561  0.57491126  1
  O  O615  1  0.57342597  0.18711483  0.82427637  1
  O  O616  1  0.57296666  0.52058804  0.07532566  1
  O  O617  1  0.57200972  0.51972211  0.32397135  1
  O  O618  1  0.57173758  0.51892766  0.57300941  1
  O  O619  1  0.57390326  0.51982567  0.82540494  1
  O  O620  1  0.57144911  0.85202834  0.07392980  1
  O  O621  1  0.57304696  0.85327122  0.32412816  1
  O  O622  1  0.57417531  0.85135184  0.57286091  1
  O  O623  1  0.57388543  0.85207867  0.82579798  1
  O  O624  1  0.32405952  0.18708034  0.05034705  1
  O  O625  1  0.32330871  0.18838918  0.30086940  1
  O  O626  1  0.32205510  0.18628311  0.55128719  1
  O  O627  1  0.32285666  0.18531884  0.80079337  1
  O  O628  1  0.32264806  0.52034814  0.05180384  1
  O  O629  1  0.32332066  0.52174175  0.30121672  1
  O  O630  1  0.32192492  0.51927299  0.55210601  1
  O  O631  1  0.32249787  0.51936005  0.80121432  1
  O  O632  1  0.32321839  0.85148147  0.05045393  1
  O  O633  1  0.32321695  0.85123370  0.30074735  1
  O  O634  1  0.32317833  0.85055454  0.55057706  1
  O  O635  1  0.32387949  0.85113918  0.80076488  1
  O  O636  1  0.82275314  0.18774451  0.04934231  1
  O  O637  1  0.82321312  0.18514213  0.30055027  1
  O  O638  1  0.82251602  0.18486685  0.55151088  1
  O  O639  1  0.82284083  0.18788056  0.80054721  1
  O  O640  1  0.82349878  0.52070966  0.05068984  1
  O  O641  1  0.82248642  0.52041345  0.30009819  1
  O  O642  1  0.82128064  0.51995129  0.55097536  1
  O  O643  1  0.82366939  0.51884431  0.80063045  1
  O  O644  1  0.82401044  0.85347094  0.04942797  1
  O  O645  1  0.82135045  0.85220282  0.30227412  1
  O  O646  1  0.82340516  0.85477917  0.54966197  1
  O  O647  1  0.82291200  0.85485252  0.79879932  1
  O  O648  1  0.17618424  0.14722887  0.20063962  1
  O  O649  1  0.17609876  0.14651060  0.45090057  1
  O  O650  1  0.17735790  0.14737137  0.69921564  1
  O  O651  1  0.17734809  0.14801338  0.94911963  1
  O  O652  1  0.17692944  0.48254306  0.19984408  1
  O  O653  1  0.17672699  0.47922671  0.45065300  1
  O  O654  1  0.17742267  0.48053402  0.69845669  1
  O  O655  1  0.17679734  0.48230720  0.94852174  1
  O  O656  1  0.17757702  0.81354243  0.19788568  1
  O  O657  1  0.17770984  0.81297368  0.44851174  1
  O  O658  1  0.17794236  0.81310009  0.69878470  1
  O  O659  1  0.17819451  0.81329407  0.94797695  1
  O  O660  1  0.67573465  0.14598245  0.20058213  1
  O  O661  1  0.67763661  0.14713678  0.44880921  1
  O  O662  1  0.67784018  0.14761406  0.69830763  1
  O  O663  1  0.67612680  0.14601182  0.94930028  1
  O  O664  1  0.67636187  0.47878483  0.19972602  1
  O  O665  1  0.67586174  0.48030582  0.44992268  1
  O  O666  1  0.67676992  0.48165606  0.69934796  1
  O  O667  1  0.67812492  0.48111999  0.94920470  1
  O  O668  1  0.67689032  0.81217800  0.20019810  1
  O  O669  1  0.67864333  0.81382421  0.44814796  1
  O  O670  1  0.67657054  0.81279774  0.69882307  1
  O  O671  1  0.67637105  0.81334401  0.95034900  1
