# generated using pymatgen
data_Na2MnFe(PO4)2
_symmetry_space_group_name_H-M   'P 1'
_cell_length_a   22.34225010
_cell_length_b   20.09445244
_cell_length_c   19.45243928
_cell_angle_alpha   90.01349653
_cell_angle_beta   89.99839571
_cell_angle_gamma   90.01496669
_symmetry_Int_Tables_number   1
_chemical_formula_structural   Na2MnFe(PO4)2
_chemical_formula_sum   'Na96 Mn48 Fe48 P96 O384'
_cell_volume   8733.27481874
_cell_formula_units_Z   48
loop_
 _symmetry_equiv_pos_site_id
 _symmetry_equiv_pos_as_xyz
  1  'x, y, z'
loop_
 _atom_site_type_symbol
 _atom_site_label
 _atom_site_symmetry_multiplicity
 _atom_site_fract_x
 _atom_site_fract_y
 _atom_site_fract_z
 _atom_site_occupancy
  Na  Na0  1  0.13978100  0.25079540  0.24371467  1
  Na  Na1  1  0.13998872  0.24925194  0.49278603  1
  Na  Na2  1  0.14014347  0.24918002  0.74387309  1
  Na  Na3  1  0.14039302  0.25072596  0.99453427  1
  Na  Na4  1  0.13959142  0.58441761  0.24314772  1
  Na  Na5  1  0.13951583  0.58424955  0.49314526  1
  Na  Na6  1  0.14003027  0.58284638  0.74458911  1
  Na  Na7  1  0.13976174  0.58388217  0.99521290  1
  Na  Na8  1  0.13996129  0.91600466  0.24313185  1
  Na  Na9  1  0.13968421  0.91601341  0.49328122  1
  Na  Na10  1  0.13972994  0.91519771  0.74385945  1
  Na  Na11  1  0.13941933  0.91603622  0.99336489  1
  Na  Na12  1  0.64070709  0.25055624  0.24333491  1
  Na  Na13  1  0.64130262  0.25029256  0.49309862  1
  Na  Na14  1  0.64120147  0.25078124  0.74404177  1
  Na  Na15  1  0.64081875  0.25128062  0.99388805  1
  Na  Na16  1  0.63997478  0.58273037  0.24263487  1
  Na  Na17  1  0.64085575  0.58263517  0.49324808  1
  Na  Na18  1  0.64120347  0.58330645  0.74509994  1
  Na  Na19  1  0.64086382  0.58355001  0.99430457  1
  Na  Na20  1  0.64114197  0.91661944  0.24402290  1
  Na  Na21  1  0.64059713  0.91736219  0.49328387  1
  Na  Na22  1  0.64051671  0.91569800  0.74245741  1
  Na  Na23  1  0.64072053  0.91618654  0.99311281  1
  Na  Na24  1  0.36027593  0.08225932  0.00676884  1
  Na  Na25  1  0.36032235  0.08289288  0.25619216  1
  Na  Na26  1  0.35985137  0.08207229  0.50474132  1
  Na  Na27  1  0.35987025  0.08188549  0.75632311  1
  Na  Na28  1  0.35921691  0.41800500  0.00628175  1
  Na  Na29  1  0.35967944  0.41884922  0.25619847  1
  Na  Na30  1  0.35932890  0.41810412  0.50424438  1
  Na  Na31  1  0.35916938  0.41663739  0.75513683  1
  Na  Na32  1  0.35939566  0.74902820  0.00657325  1
  Na  Na33  1  0.35945925  0.74978316  0.25587133  1
  Na  Na34  1  0.35977645  0.74985148  0.50486522  1
  Na  Na35  1  0.35975402  0.74862687  0.75577210  1
  Na  Na36  1  0.86009608  0.08378617  0.00624372  1
  Na  Na37  1  0.85990151  0.08494500  0.25792461  1
  Na  Na38  1  0.86041754  0.08396082  0.50791218  1
  Na  Na39  1  0.86013538  0.08356559  0.75646441  1
  Na  Na40  1  0.85982042  0.41828725  0.00775607  1
  Na  Na41  1  0.85925380  0.41695295  0.25750013  1
  Na  Na42  1  0.85886089  0.41685038  0.50542090  1
  Na  Na43  1  0.85920870  0.41818250  0.75678800  1
  Na  Na44  1  0.85992613  0.74960650  0.00693249  1
  Na  Na45  1  0.86023186  0.74808118  0.25710317  1
  Na  Na46  1  0.85943047  0.74892727  0.50691185  1
  Na  Na47  1  0.85903243  0.74945723  0.75714875  1
  Na  Na48  1  0.10893132  0.08294056  0.11962343  1
  Na  Na49  1  0.10913496  0.08267727  0.36852959  1
  Na  Na50  1  0.10932486  0.08308567  0.61919666  1
  Na  Na51  1  0.10892861  0.08211271  0.86859367  1
  Na  Na52  1  0.10949931  0.41737272  0.11961308  1
  Na  Na53  1  0.10872067  0.41714200  0.36713695  1
  Na  Na54  1  0.10900448  0.41685020  0.61829844  1
  Na  Na55  1  0.10936280  0.41713318  0.86937231  1
  Na  Na56  1  0.10941807  0.75035775  0.11823845  1
  Na  Na57  1  0.10883042  0.74874159  0.36789668  1
  Na  Na58  1  0.10903897  0.75089387  0.61874120  1
  Na  Na59  1  0.10960601  0.75155234  0.86897614  1
  Na  Na60  1  0.60973474  0.08328740  0.11974060  1
  Na  Na61  1  0.61039991  0.08313784  0.36928457  1
  Na  Na62  1  0.61068802  0.08264721  0.61762690  1
  Na  Na63  1  0.60981888  0.08230582  0.86895173  1
  Na  Na64  1  0.61044982  0.41697771  0.11777603  1
  Na  Na65  1  0.60997164  0.41692254  0.36656925  1
  Na  Na66  1  0.61027848  0.41742696  0.61886010  1
  Na  Na67  1  0.61062784  0.41679264  0.86915727  1
  Na  Na68  1  0.61025625  0.74946585  0.11877809  1
  Na  Na69  1  0.60977659  0.74995009  0.36829914  1
  Na  Na70  1  0.60983077  0.75097582  0.61866824  1
  Na  Na71  1  0.61044487  0.74938990  0.86902502  1
  Na  Na72  1  0.39111261  0.24890892  0.13122368  1
  Na  Na73  1  0.39087502  0.24885273  0.38008252  1
  Na  Na74  1  0.39055698  0.24952394  0.63005317  1
  Na  Na75  1  0.39093578  0.24866480  0.88092352  1
  Na  Na76  1  0.38995231  0.58378423  0.13240012  1
  Na  Na77  1  0.38955405  0.58431105  0.38047068  1
  Na  Na78  1  0.38989296  0.58440766  0.63042492  1
  Na  Na79  1  0.38995738  0.58295762  0.88161483  1
  Na  Na80  1  0.39064238  0.91658098  0.13084015  1
  Na  Na81  1  0.39093665  0.91711771  0.37995011  1
  Na  Na82  1  0.39063784  0.91650991  0.62988500  1
  Na  Na83  1  0.39074339  0.91492969  0.88175732  1
  Na  Na84  1  0.89039565  0.25125046  0.13263823  1
  Na  Na85  1  0.88997230  0.24892166  0.38196281  1
  Na  Na86  1  0.89028637  0.24886596  0.63162723  1
  Na  Na87  1  0.89057502  0.25045271  0.88153979  1
  Na  Na88  1  0.88982063  0.58306668  0.13338886  1
  Na  Na89  1  0.88904659  0.58303337  0.38163787  1
  Na  Na90  1  0.88923903  0.58477391  0.63192640  1
  Na  Na91  1  0.88968136  0.58428493  0.88310097  1
  Na  Na92  1  0.89060570  0.91633634  0.13092200  1
  Na  Na93  1  0.89111654  0.91594380  0.38209227  1
  Na  Na94  1  0.89043676  0.91854888  0.63237464  1
  Na  Na95  1  0.89034652  0.91647572  0.88063037  1
  Mn  Mn96  1  0.50057192  0.66753226  0.74987966  1
  Mn  Mn97  1  0.25011634  0.16636575  0.87493167  1
  Mn  Mn98  1  0.75072690  0.83214205  0.37521655  1
  Mn  Mn99  1  0.50077778  0.16551893  0.50000433  1
  Mn  Mn100  1  0.24974911  0.66632602  0.87557665  1
  Mn  Mn101  1  -0.00056547  0.33236455  0.49951355  1
  Mn  Mn102  1  0.75072318  0.83196760  0.12504335  1
  Mn  Mn103  1  0.49996079  0.50051804  0.49919949  1
  Mn  Mn104  1  0.25026815  0.33435950  0.87462260  1
  Mn  Mn105  1  0.49978725  0.33250507  -0.00002108  1
  Mn  Mn106  1  0.75022772  0.16838157  0.12535119  1
  Mn  Mn107  1  -0.00101154  0.50094317  0.49945733  1
  Mn  Mn108  1  0.24955310  0.83287264  0.37458213  1
  Mn  Mn109  1  -0.00037476  0.66710671  0.00063531  1
  Mn  Mn110  1  0.24972549  -0.00192354  0.87551649  1
  Mn  Mn111  1  0.75004556  0.16808603  0.87528779  1
  Mn  Mn112  1  0.50022811  0.33277221  0.24918717  1
  Mn  Mn113  1  0.24983121  0.16675229  0.12499935  1
  Mn  Mn114  1  0.24913370  0.50086722  0.62463957  1
  Mn  Mn115  1  -0.00059680  -0.00035578  0.25029436  1
  Mn  Mn116  1  0.50081709  0.83376595  0.24929353  1
  Mn  Mn117  1  0.00029660  0.66858582  0.75120201  1
  Mn  Mn118  1  0.74976841  -0.00016689  0.87497551  1
  Mn  Mn119  1  0.00027596  0.33398294  0.00112625  1
  Mn  Mn120  1  0.50006227  -0.00133528  0.74967803  1
  Mn  Mn121  1  0.25015352  0.16613522  0.37419562  1
  Mn  Mn122  1  0.24950976  0.33362715  0.62429278  1
  Mn  Mn123  1  0.00035912  0.16606192  0.00065021  1
  Mn  Mn124  1  0.50081661  0.16565026  0.74981696  1
  Mn  Mn125  1  0.50058521  0.83262835  0.00076136  1
  Mn  Mn126  1  0.50038429  0.33297818  0.75000593  1
  Mn  Mn127  1  0.75062075  0.00021767  0.12518548  1
  Mn  Mn128  1  0.25006648  0.16586364  0.62425620  1
  Mn  Mn129  1  -0.00051958  0.50103827  0.74980278  1
  Mn  Mn130  1  0.75013409  0.33430885  0.62462049  1
  Mn  Mn131  1  0.24930430  -0.00099050  0.12454086  1
  Mn  Mn132  1  0.25012666  0.33461038  0.37426684  1
  Mn  Mn133  1  0.25017454  0.83141712  0.62363826  1
  Mn  Mn134  1  0.25063309  0.33503767  0.12437258  1
  Mn  Mn135  1  -0.00056026  0.83338487  0.50010004  1
  Mn  Mn136  1  -0.00060928  0.33270196  0.74992164  1
  Mn  Mn137  1  0.50018096  0.33312595  0.49890693  1
  Mn  Mn138  1  0.75128229  0.00084442  0.37501979  1
  Mn  Mn139  1  0.50067540  0.66811272  0.50001504  1
  Mn  Mn140  1  0.49972194  0.50052814  -0.00030283  1
  Mn  Mn141  1  0.75018266  0.83248834  0.62472563  1
  Mn  Mn142  1  0.49986580  0.50017831  0.74980766  1
  Mn  Mn143  1  0.24995069  -0.00148216  0.62515558  1
  Fe  Fe144  1  -0.00035531  0.50031480  0.00117866  1
  Fe  Fe145  1  0.75085539  0.33482291  0.87478715  1
  Fe  Fe146  1  0.50077432  0.16550670  0.00046205  1
  Fe  Fe147  1  0.74937721  0.66547484  0.37585289  1
  Fe  Fe148  1  0.24957824  0.50057960  0.87506831  1
  Fe  Fe149  1  0.74910037  0.50000813  0.37464329  1
  Fe  Fe150  1  0.75051265  0.66625261  0.87566127  1
  Fe  Fe151  1  0.75079594  0.33448627  0.12536939  1
  Fe  Fe152  1  -0.00065680  0.66651362  0.24949402  1
  Fe  Fe153  1  0.50008547  0.83339047  0.74996884  1
  Fe  Fe154  1  0.50008474  -0.00048931  0.49934588  1
  Fe  Fe155  1  0.00031726  0.16609789  0.50037860  1
  Fe  Fe156  1  0.75045336  0.00020276  0.62504283  1
  Fe  Fe157  1  0.00037999  0.16602303  0.75070289  1
  Fe  Fe158  1  -0.00001450  0.00026880  0.75011847  1
  Fe  Fe159  1  0.49972319  0.66720952  0.24984728  1
  Fe  Fe160  1  -0.00000480  0.83314876  0.25005311  1
  Fe  Fe161  1  0.74970880  0.50055915  0.62549606  1
  Fe  Fe162  1  -0.00072088  0.66708118  0.49957453  1
  Fe  Fe163  1  0.74945147  0.66596819  0.62617686  1
  Fe  Fe164  1  -0.00014616  0.83390635  -0.00027608  1
  Fe  Fe165  1  0.75084773  0.50064266  0.87607661  1
  Fe  Fe166  1  0.75048049  0.16739138  0.62524717  1
  Fe  Fe167  1  0.24973373  0.66679045  0.12503908  1
  Fe  Fe168  1  0.75012831  0.16749653  0.37574646  1
  Fe  Fe169  1  0.74962575  0.33384249  0.37508871  1
  Fe  Fe170  1  -0.00031215  0.33310270  0.25047367  1
  Fe  Fe171  1  0.24993041  0.83196203  0.87474288  1
  Fe  Fe172  1  0.50008389  0.66646191  0.00011016  1
  Fe  Fe173  1  0.49985618  0.50059581  0.24900595  1
  Fe  Fe174  1  0.75019988  0.50010534  0.12544225  1
  Fe  Fe175  1  -0.00069154  0.83462076  0.74956785  1
  Fe  Fe176  1  0.50080634  -0.00032556  0.00072048  1
  Fe  Fe177  1  0.50016743  0.83412449  0.49872406  1
  Fe  Fe178  1  -0.00051817  0.50008655  0.25052975  1
  Fe  Fe179  1  0.25026777  0.83309626  0.12513863  1
  Fe  Fe180  1  0.75018391  0.83263855  0.87471775  1
  Fe  Fe181  1  0.24979618  -0.00067951  0.37431223  1
  Fe  Fe182  1  0.74984118  0.66593315  0.12525105  1
  Fe  Fe183  1  -0.00066156  0.16626676  0.25031817  1
  Fe  Fe184  1  0.24899603  0.50146377  0.37497899  1
  Fe  Fe185  1  0.24958905  0.50129597  0.12551653  1
  Fe  Fe186  1  0.50035801  0.16551068  0.25006396  1
  Fe  Fe187  1  -0.00068892  -0.00039703  -0.00032757  1
  Fe  Fe188  1  0.24970400  0.66603766  0.62500455  1
  Fe  Fe189  1  0.24907458  0.66682009  0.37414293  1
  Fe  Fe190  1  0.50072416  -0.00001932  0.25001529  1
  Fe  Fe191  1  0.00020166  0.00046688  0.50084976  1
  P  P192  1  0.04254488  0.25007511  0.10456754  1
  P  P193  1  0.04087694  0.24904908  0.35189298  1
  P  P194  1  0.04213274  0.24821723  0.60272473  1
  P  P195  1  0.04224335  0.24878394  0.85277599  1
  P  P196  1  0.04104742  0.58236081  0.10395369  1
  P  P197  1  0.04039631  0.58379891  0.35148655  1
  P  P198  1  0.04147622  0.58548918  0.60219907  1
  P  P199  1  0.04222018  0.58391031  0.85418919  1
  P  P200  1  0.04094307  0.91675404  0.10171906  1
  P  P201  1  0.04223288  0.91517119  0.35251565  1
  P  P202  1  0.04178291  0.91819024  0.60298968  1
  P  P203  1  0.04108957  0.91685955  0.85197350  1
  P  P204  1  0.54240475  0.24798752  0.10278128  1
  P  P205  1  0.54264276  0.24822862  0.35177123  1
  P  P206  1  0.54371514  0.24989328  0.60268030  1
  P  P207  1  0.54326468  0.24883600  0.85379510  1
  P  P208  1  0.54192534  0.58477375  0.10311057  1
  P  P209  1  0.54122653  0.58396101  0.35089366  1
  P  P210  1  0.54303879  0.58405404  0.60279397  1
  P  P211  1  0.54280682  0.58372726  0.85359166  1
  P  P212  1  0.54320711  0.91778639  0.10290652  1
  P  P213  1  0.54301243  0.91783799  0.35263741  1
  P  P214  1  0.54189578  0.91630158  0.60112811  1
  P  P215  1  0.54288779  0.91491533  0.85271022  1
  P  P216  1  0.45893835  0.08264807  0.14779826  1
  P  P217  1  0.45831434  0.08164593  0.39644657  1
  P  P218  1  0.45756108  0.08211362  0.64628225  1
  P  P219  1  0.45894738  0.08204423  0.89878516  1
  P  P220  1  0.45815582  0.41766129  0.14726032  1
  P  P221  1  0.45775119  0.41713950  0.39524292  1
  P  P222  1  0.45710106  0.41657032  0.64631528  1
  P  P223  1  0.45702735  0.41623504  0.89685171  1
  P  P224  1  0.45801791  0.74891533  0.14722372  1
  P  P225  1  0.45818266  0.75136401  0.39647096  1
  P  P226  1  0.45802350  0.75228049  0.64684919  1
  P  P227  1  0.45793701  0.74871370  0.89778608  1
  P  P228  1  0.95710283  0.08400642  0.14776856  1
  P  P229  1  0.95849983  0.08310068  0.39873037  1
  P  P230  1  0.95875250  0.08361480  0.64826448  1
  P  P231  1  0.95784220  0.08193069  0.89706822  1
  P  P232  1  0.95841450  0.41709070  0.14918122  1
  P  P233  1  0.95716722  0.41648803  0.39596710  1
  P  P234  1  0.95666877  0.41672987  0.64675940  1
  P  P235  1  0.95763497  0.41814465  0.89845635  1
  P  P236  1  0.95862310  0.75049283  0.14821976  1
  P  P237  1  0.95726171  0.74872304  0.39685108  1
  P  P238  1  0.95717134  0.75194443  0.64766639  1
  P  P239  1  0.95779878  0.75211668  0.89775381  1
  P  P240  1  0.20715763  0.08246637  0.22839592  1
  P  P241  1  0.20764509  0.08150816  0.47678767  1
  P  P242  1  0.20720715  0.08223508  0.72815257  1
  P  P243  1  0.20697646  0.08262514  0.97813719  1
  P  P244  1  0.20786602  0.41926737  0.22781684  1
  P  P245  1  0.20665553  0.41863356  0.47670260  1
  P  P246  1  0.20638188  0.41710526  0.72814255  1
  P  P247  1  0.20765927  0.41907093  0.97793053  1
  P  P248  1  0.20829156  0.74993811  0.22647038  1
  P  P249  1  0.20713215  0.74808520  0.47707246  1
  P  P250  1  0.20733411  0.74823587  0.72748794  1
  P  P251  1  0.20757418  0.75096490  0.97839394  1
  P  P252  1  0.70820412  0.08450096  0.22882434  1
  P  P253  1  0.70898795  0.08480870  0.47846574  1
  P  P254  1  0.70909047  0.08369419  0.72652580  1
  P  P255  1  0.70761891  0.08410988  0.97821659  1
  P  P256  1  0.70862408  0.41694435  0.22714153  1
  P  P257  1  0.70820864  0.41716951  0.47636048  1
  P  P258  1  0.70821447  0.41852639  0.72821062  1
  P  P259  1  0.70926840  0.41732868  0.97752151  1
  P  P260  1  0.70822830  0.74762510  0.22811237  1
  P  P261  1  0.70776403  0.74809119  0.47806476  1
  P  P262  1  0.70789791  0.74858600  0.72849829  1
  P  P263  1  0.70923196  0.74934842  0.97700416  1
  P  P264  1  0.29319464  0.25049092  0.02171228  1
  P  P265  1  0.29296888  0.25068791  0.27135997  1
  P  P266  1  0.29278800  0.25016510  0.52099501  1
  P  P267  1  0.29303519  0.24993113  0.77152035  1
  P  P268  1  0.29122421  0.58336481  0.02348692  1
  P  P269  1  0.29071631  0.58408947  0.27251794  1
  P  P270  1  0.29177412  0.58492898  0.52128224  1
  P  P271  1  0.29218553  0.58252785  0.77241316  1
  P  P272  1  0.29218635  0.91424619  0.02210154  1
  P  P273  1  0.29213024  0.91687393  0.27178352  1
  P  P274  1  0.29238936  0.91604014  0.52061471  1
  P  P275  1  0.29240792  0.91380239  0.77249993  1
  P  P276  1  0.79273396  0.25292763  0.02251556  1
  P  P277  1  0.79114212  0.25113257  0.27370376  1
  P  P278  1  0.79227697  0.24928428  0.52216264  1
  P  P279  1  0.79245414  0.25196441  0.77232765  1
  P  P280  1  0.79179000  0.58327982  0.02369885  1
  P  P281  1  0.79067398  0.58312678  0.27320195  1
  P  P282  1  0.79077964  0.58324091  0.52339192  1
  P  P283  1  0.79176124  0.58335114  0.77379597  1
  P  P284  1  0.79259674  0.91582730  0.02141158  1
  P  P285  1  0.79356397  0.91601613  0.27215882  1
  P  P286  1  0.79245159  0.91768558  0.52296404  1
  P  P287  1  0.79162804  0.91552335  0.77209304  1
  O  O288  1  0.03705263  0.25002624  0.18442750  1
  O  O289  1  0.03610374  0.24874081  0.43187174  1
  O  O290  1  0.03696759  0.24818473  0.68267526  1
  O  O291  1  0.03729300  0.24924539  0.93274889  1
  O  O292  1  0.03554543  0.58242238  0.18380770  1
  O  O293  1  0.03561443  0.58464939  0.43141660  1
  O  O294  1  0.03660419  0.58541823  0.68217511  1
  O  O295  1  0.03696198  0.58340275  0.93414554  1
  O  O296  1  0.03609879  0.91599576  0.18165397  1
  O  O297  1  0.03716831  0.91547904  0.43233944  1
  O  O298  1  0.03646290  0.91807819  0.68282757  1
  O  O299  1  0.03583086  0.91691645  0.93183583  1
  O  O300  1  0.53703142  0.24796463  0.18271384  1
  O  O301  1  0.53764977  0.24874113  0.43171770  1
  O  O302  1  0.53883053  0.24992241  0.68269372  1
  O  O303  1  0.53780132  0.24815471  0.93375227  1
  O  O304  1  0.53621125  0.58470796  0.18298152  1
  O  O305  1  0.53674783  0.58389322  0.43088573  1
  O  O306  1  0.53793867  0.58404964  0.68272647  1
  O  O307  1  0.53762290  0.58406990  0.93354814  1
  O  O308  1  0.53803803  0.91796145  0.18281509  1
  O  O309  1  0.53729610  0.91735949  0.43247069  1
  O  O310  1  0.53690688  0.91577224  0.68111719  1
  O  O311  1  0.53818268  0.91540772  0.93264260  1
  O  O312  1  0.46446588  0.08278137  0.06792032  1
  O  O313  1  0.46377325  0.08198834  0.31657287  1
  O  O314  1  0.46252426  0.08162395  0.56633633  1
  O  O315  1  0.46376052  0.08204552  0.81877032  1
  O  O316  1  0.46284199  0.41766639  0.06729458  1
  O  O317  1  0.46312596  0.41753046  0.31529476  1
  O  O318  1  0.46220680  0.41666755  0.56628406  1
  O  O319  1  0.46208555  0.41624955  0.81690146  1
  O  O320  1  0.46323418  0.74858552  0.06733212  1
  O  O321  1  0.46353850  0.75044198  0.31656984  1
  O  O322  1  0.46340162  0.75262904  0.56690347  1
  O  O323  1  0.46303899  0.74948129  0.81787793  1
  O  O324  1  0.96225949  0.08341625  0.06789399  1
  O  O325  1  0.96327677  0.08339516  0.31875046  1
  O  O326  1  0.96402028  0.08368410  0.56838684  1
  O  O327  1  0.96354281  0.08214827  0.81722137  1
  O  O328  1  0.96326604  0.41730847  0.06921427  1
  O  O329  1  0.96266527  0.41667912  0.31610663  1
  O  O330  1  0.96176574  0.41658393  0.56679195  1
  O  O331  1  0.96261547  0.41785790  0.81851225  1
  O  O332  1  0.96350132  0.75042332  0.06830540  1
  O  O333  1  0.96260372  0.74899445  0.31699732  1
  O  O334  1  0.96219051  0.75101148  0.56774693  1
  O  O335  1  0.96271963  0.75242102  0.81784962  1
  O  O336  1  0.21194317  0.08259515  0.05813214  1
  O  O337  1  0.21253833  0.08176175  0.30833549  1
  O  O338  1  0.21277427  0.08170534  0.55676655  1
  O  O339  1  0.21215255  0.08217522  0.80811281  1
  O  O340  1  0.21312955  0.41921412  0.05788714  1
  O  O341  1  0.21288471  0.41946263  0.30774665  1
  O  O342  1  0.21150061  0.41820877  0.55671197  1
  O  O343  1  0.21157207  0.41758405  0.80811191  1
  O  O344  1  0.21297617  0.75121162  0.05822255  1
  O  O345  1  0.21279629  0.74937790  0.30643175  1
  O  O346  1  0.21235790  0.74754783  0.55698908  1
  O  O347  1  0.21251584  0.74913906  0.80743736  1
  O  O348  1  0.71279031  0.08411822  0.05814030  1
  O  O349  1  0.71362686  0.08496042  0.30875911  1
  O  O350  1  0.71435363  0.08445683  0.55838183  1
  O  O351  1  0.71361176  0.08355372  0.80654496  1
  O  O352  1  0.71436302  0.41696294  0.05742291  1
  O  O353  1  0.71295659  0.41709996  0.30702003  1
  O  O354  1  0.71273097  0.41733575  0.55625438  1
  O  O355  1  0.71401058  0.41831149  0.80799571  1
  O  O356  1  0.71397464  0.74868951  0.05697457  1
  O  O357  1  0.71335974  0.74760274  0.30804294  1
  O  O358  1  0.71285032  0.74818655  0.55802001  1
  O  O359  1  0.71363183  0.74947999  0.80830796  1
  O  O360  1  0.28791439  0.25071032  0.19140221  1
  O  O361  1  0.28766794  0.25020573  0.44100453  1
  O  O362  1  0.28779521  0.24980827  0.69151395  1
  O  O363  1  0.28806853  0.25051173  0.94175372  1
  O  O364  1  0.28581903  0.58394136  0.19261938  1
  O  O365  1  0.28628981  0.58462921  0.44139749  1
  O  O366  1  0.28684067  0.58344281  0.69250119  1
  O  O367  1  0.28668228  0.58300955  0.94353141  1
  O  O368  1  0.28701670  0.91621557  0.19182807  1
  O  O369  1  0.28696264  0.91684505  0.44071151  1
  O  O370  1  0.28741686  0.91409531  0.69251173  1
  O  O371  1  0.28708752  0.91379251  0.94215416  1
  O  O372  1  0.78662498  0.25188354  0.19372671  1
  O  O373  1  0.78682801  0.24888777  0.44232932  1
  O  O374  1  0.78708140  0.25129707  0.69241074  1
  O  O375  1  0.78759197  0.25313332  0.94257731  1
  O  O376  1  0.78608522  0.58321470  0.19333422  1
  O  O377  1  0.78529549  0.58346785  0.44357357  1
  O  O378  1  0.78662777  0.58388313  0.69400380  1
  O  O379  1  0.78730149  0.58276109  0.94383386  1
  O  O380  1  0.78837197  0.91598044  0.19219731  1
  O  O381  1  0.78773023  0.91755067  0.44300164  1
  O  O382  1  0.78623824  0.91616046  0.69215080  1
  O  O383  1  0.78692670  0.91519687  0.94150180  1
  O  O384  1  0.22871835  0.25088322  0.05668995  1
  O  O385  1  0.22851698  0.25050644  0.30632357  1
  O  O386  1  0.22828246  0.24983370  0.55592115  1
  O  O387  1  0.22859987  0.25011746  0.80661672  1
  O  O388  1  0.22696217  0.58318783  0.05914989  1
  O  O389  1  0.22651916  0.58422760  0.30863156  1
  O  O390  1  0.22754790  0.58539827  0.55737191  1
  O  O391  1  0.22791709  0.58223556  0.80825992  1
  O  O392  1  0.22780287  0.91406747  0.05756017  1
  O  O393  1  0.22780241  0.91714149  0.30731261  1
  O  O394  1  0.22813549  0.91546054  0.55615605  1
  O  O395  1  0.22795638  0.91372629  0.80779654  1
  O  O396  1  0.72845726  0.25305872  0.05824336  1
  O  O397  1  0.72693896  0.25026816  0.30939926  1
  O  O398  1  0.72820223  0.24929047  0.55842536  1
  O  O399  1  0.72829105  0.25254179  0.80828630  1
  O  O400  1  0.72756291  0.58372337  0.05961657  1
  O  O401  1  0.72648840  0.58347048  0.30919941  1
  O  O402  1  0.72684739  0.58321578  0.56018325  1
  O  O403  1  0.72783194  0.58260809  0.81041046  1
  O  O404  1  0.72845770  0.91587196  0.05726342  1
  O  O405  1  0.72922713  0.91645283  0.30733370  1
  O  O406  1  0.72807290  0.91735533  0.55814566  1
  O  O407  1  0.72751744  0.91506802  0.80811128  1
  O  O408  1  0.27146564  0.08241413  0.19304933  1
  O  O409  1  0.27200111  0.08140078  0.44134823  1
  O  O410  1  0.27170049  0.08227348  0.69323201  1
  O  O411  1  0.27149156  0.08226280  0.94335823  1
  O  O412  1  0.27215277  0.41952437  0.19215167  1
  O  O413  1  0.27113883  0.41917548  0.44163128  1
  O  O414  1  0.27074372  0.41719513  0.69278553  1
  O  O415  1  0.27186960  0.41911951  0.94198485  1
  O  O416  1  0.27256516  0.75040420  0.19085287  1
  O  O417  1  0.27139921  0.74820928  0.44133432  1
  O  O418  1  0.27168635  0.74749021  0.69179574  1
  O  O419  1  0.27172972  0.75099373  0.94216070  1
  O  O420  1  0.77246031  0.08455703  0.19329276  1
  O  O421  1  0.77311626  0.08545150  0.44232371  1
  O  O422  1  0.77333745  0.08377545  0.69096556  1
  O  O423  1  0.77193441  0.08389164  0.94292694  1
  O  O424  1  0.77291271  0.41672264  0.19138246  1
  O  O425  1  0.77238902  0.41745632  0.44060096  1
  O  O426  1  0.77218955  0.41871178  0.69158806  1
  O  O427  1  0.77332806  0.41769446  0.94109425  1
  O  O428  1  0.77250232  0.74735651  0.19240343  1
  O  O429  1  0.77209401  0.74754985  0.44250868  1
  O  O430  1  0.77193295  0.74826243  0.69202537  1
  O  O431  1  0.77334230  0.75005730  0.94104602  1
  O  O432  1  0.02134599  0.08454421  0.18363009  1
  O  O433  1  0.02271452  0.08311747  0.43463040  1
  O  O434  1  0.02274020  0.08353446  0.68481101  1
  O  O435  1  0.02187104  0.08128795  0.93351166  1
  O  O436  1  0.02254045  0.41735592  0.18508156  1
  O  O437  1  0.02126790  0.41685618  0.43195748  1
  O  O438  1  0.02105450  0.41673109  0.68187801  1
  O  O439  1  0.02196159  0.41878839  0.93404815  1
  O  O440  1  0.02271545  0.75091588  0.18429228  1
  O  O441  1  0.02143708  0.74866543  0.43292713  1
  O  O442  1  0.02155009  0.75278145  0.68321333  1
  O  O443  1  0.02205736  0.75155738  0.93337858  1
  O  O444  1  0.52293186  0.08269046  0.18443300  1
  O  O445  1  0.52241499  0.08108302  0.43272901  1
  O  O446  1  0.52204850  0.08203095  0.68132313  1
  O  O447  1  0.52321786  0.08186902  0.93448384  1
  O  O448  1  0.52254355  0.41738982  0.18234385  1
  O  O449  1  0.52207552  0.41707166  0.43064028  1
  O  O450  1  0.52161324  0.41675506  0.68126862  1
  O  O451  1  0.52149436  0.41639170  0.93181775  1
  O  O452  1  0.52232619  0.74880640  0.18280248  1
  O  O453  1  0.52239628  0.75211427  0.43232244  1
  O  O454  1  0.52226305  0.75217625  0.68275041  1
  O  O455  1  0.52227297  0.74812162  0.93348282  1
  O  O456  1  0.47820350  0.24783567  0.06697527  1
  O  O457  1  0.47833593  0.24816069  0.31627719  1
  O  O458  1  0.47919820  0.24965298  0.56782564  1
  O  O459  1  0.47897320  0.24896396  0.81829020  1
  O  O460  1  0.47776062  0.58525595  0.06696356  1
  O  O461  1  0.47692061  0.58400416  0.31545404  1
  O  O462  1  0.47860248  0.58426515  0.56775290  1
  O  O463  1  0.47847267  0.58394672  0.81826523  1
  O  O464  1  0.47892508  0.91771456  0.06722011  1
  O  O465  1  0.47892168  0.91805753  0.31629861  1
  O  O466  1  0.47773753  0.91652262  0.56497541  1
  O  O467  1  0.47839918  0.91473616  0.81740347  1
  O  O468  1  0.97838606  0.24999348  0.06871665  1
  O  O469  1  0.97669568  0.24883484  0.31599950  1
  O  O470  1  0.97781596  0.24789402  0.56705984  1
  O  O471  1  0.97791280  0.24818509  0.81725177  1
  O  O472  1  0.97702025  0.58223422  0.06759271  1
  O  O473  1  0.97619888  0.58306959  0.31573595  1
  O  O474  1  0.97704794  0.58551123  0.56689546  1
  O  O475  1  0.97789699  0.58455826  0.81880144  1
  O  O476  1  0.97682768  0.91730994  0.06565525  1
  O  O477  1  0.97790434  0.91466052  0.31684891  1
  O  O478  1  0.97765467  0.91842370  0.56683421  1
  O  O479  1  0.97708837  0.91695228  0.81537099  1
  O  O480  1  0.07370943  0.31359604  0.07622635  1
  O  O481  1  0.07114342  0.31326881  0.32384808  1
  O  O482  1  0.07278560  0.31216109  0.57478093  1
  O  O483  1  0.07289139  0.31261781  0.82478990  1
  O  O484  1  0.07222810  0.64606069  0.07622008  1
  O  O485  1  0.07087180  0.64736591  0.32225035  1
  O  O486  1  0.07205249  0.64902464  0.57354275  1
  O  O487  1  0.07348599  0.64755422  0.82652822  1
  O  O488  1  0.07187979  0.98050656  0.07389843  1
  O  O489  1  0.07296878  0.97884262  0.32428165  1
  O  O490  1  0.07277664  0.98154625  0.57416416  1
  O  O491  1  0.07220914  0.98031082  0.82352890  1
  O  O492  1  0.57328671  0.31197394  0.07524605  1
  O  O493  1  0.57372805  0.31182044  0.32381302  1
  O  O494  1  0.57456370  0.31339736  0.57429234  1
  O  O495  1  0.57420717  0.31264874  0.82619242  1
  O  O496  1  0.57324561  0.64789298  0.07429403  1
  O  O497  1  0.57213160  0.64765969  0.32297827  1
  O  O498  1  0.57407804  0.64757899  0.57475585  1
  O  O499  1  0.57431370  0.64681121  0.82521569  1
  O  O500  1  0.57417147  0.98097030  0.07404886  1
  O  O501  1  0.57412794  0.98118438  0.32420532  1
  O  O502  1  0.57261609  0.98021507  0.57326768  1
  O  O503  1  0.57405364  0.97827592  0.82419596  1
  O  O504  1  0.42801125  0.01894719  0.17597780  1
  O  O505  1  0.42717580  0.01831669  0.42498453  1
  O  O506  1  0.42623196  0.01899937  0.67505752  1
  O  O507  1  0.42808772  0.01832938  0.92685058  1
  O  O508  1  0.42671903  0.35418007  0.17476948  1
  O  O509  1  0.42682378  0.35338426  0.42306910  1
  O  O510  1  0.42629524  0.35299046  0.67446029  1
  O  O511  1  0.42611676  0.35274476  0.92507591  1
  O  O512  1  0.42677503  0.68593504  0.17627902  1
  O  O513  1  0.42722347  0.68789851  0.42493596  1
  O  O514  1  0.42702770  0.68837887  0.67426998  1
  O  O515  1  0.42699619  0.68512915  0.92597499  1
  O  O516  1  0.92618700  0.02044645  0.17605260  1
  O  O517  1  0.92813157  0.01906661  0.42690081  1
  O  O518  1  0.92770967  0.02000013  0.67649124  1
  O  O519  1  0.92651409  0.01866969  0.92557274  1
  O  O520  1  0.92822332  0.35294717  0.17747726  1
  O  O521  1  0.92623166  0.35286668  0.42408233  1
  O  O522  1  0.92573045  0.35321529  0.67500743  1
  O  O523  1  0.92710993  0.35419366  0.92632458  1
  O  O524  1  0.92835913  0.68630731  0.17645551  1
  O  O525  1  0.92643544  0.68529106  0.42577034  1
  O  O526  1  0.92641964  0.68845121  0.67636187  1
  O  O527  1  0.92654988  0.68851649  0.92561197  1
  O  O528  1  0.17552160  0.01946371  0.19980397  1
  O  O529  1  0.17694246  0.01793332  0.44832391  1
  O  O530  1  0.17630506  0.01859851  0.70013323  1
  O  O531  1  0.17586140  0.01911684  0.95006961  1
  O  O532  1  0.17719057  0.35527120  0.20012886  1
  O  O533  1  0.17588532  0.35487849  0.44863260  1
  O  O534  1  0.17557361  0.35337539  0.70002987  1
  O  O535  1  0.17665083  0.35515838  0.95048364  1
  O  O536  1  0.17787199  0.68623268  0.19755205  1
  O  O537  1  0.17603256  0.68516506  0.44766061  1
  O  O538  1  0.17639685  0.68460299  0.69952497  1
  O  O539  1  0.17652762  0.68711851  0.95075752  1
  O  O540  1  0.67739455  0.02060728  0.20114673  1
  O  O541  1  0.67810901  0.02105238  0.45031921  1
  O  O542  1  0.67849911  0.01980839  0.69826568  1
  O  O543  1  0.67637756  0.02071389  0.95013132  1
  O  O544  1  0.67760779  0.35352633  0.19843163  1
  O  O545  1  0.67799953  0.35309845  0.44785396  1
  O  O546  1  0.67692310  0.35508167  0.69995291  1
  O  O547  1  0.67850744  0.35376683  0.94868250  1
  O  O548  1  0.67704354  0.68459605  0.19909724  1
  O  O549  1  0.67640487  0.68504515  0.44932363  1
  O  O550  1  0.67698483  0.68490038  0.70048089  1
  O  O551  1  0.67888420  0.68549706  0.94832517  1
  O  O552  1  0.32440185  0.31393424  0.04973661  1
  O  O553  1  0.32385969  0.31431351  0.29930073  1
  O  O554  1  0.32348125  0.31392469  0.54897210  1
  O  O555  1  0.32411339  0.31343045  0.79954582  1
  O  O556  1  0.32125987  0.64759493  0.05182119  1
  O  O557  1  0.32168297  0.64775848  0.30077123  1
  O  O558  1  0.32294895  0.64815531  0.55011410  1
  O  O559  1  0.32343573  0.64584295  0.80089929  1
  O  O560  1  0.32289322  0.97831703  0.04959108  1
  O  O561  1  0.32279904  0.98053066  0.30017891  1
  O  O562  1  0.32361524  0.97909032  0.54951076  1
  O  O563  1  0.32343746  0.97743695  0.80052325  1
  O  O564  1  0.82387609  0.31596251  0.05165694  1
  O  O565  1  0.82123795  0.31501432  0.30266470  1
  O  O566  1  0.82339492  0.31316540  0.54955705  1
  O  O567  1  0.82341999  0.31554814  0.80046995  1
  O  O568  1  0.82294742  0.64678941  0.05202628  1
  O  O569  1  0.82205102  0.64626016  0.30205287  1
  O  O570  1  0.82182025  0.64665452  0.55215311  1
  O  O571  1  0.82208336  0.64723985  0.80278285  1
  O  O572  1  0.82356454  0.97969054  0.04893158  1
  O  O573  1  0.82505301  0.97933450  0.30006158  1
  O  O574  1  0.82278130  0.98142771  0.55170338  1
  O  O575  1  0.82287085  0.97908509  0.79993999  1
  O  O576  1  0.42787829  0.14617868  0.17624309  1
  O  O577  1  0.42733071  0.14532857  0.42450462  1
  O  O578  1  0.42685221  0.14584262  0.67442402  1
  O  O579  1  0.42838009  0.14585597  0.92699741  1
  O  O580  1  0.42783410  0.48146602  0.17590346  1
  O  O581  1  0.42639804  0.48036518  0.42362983  1
  O  O582  1  0.42604536  0.48013251  0.67432487  1
  O  O583  1  0.42592102  0.47971168  0.92493466  1
  O  O584  1  0.42734246  0.81297387  0.17465434  1
  O  O585  1  0.42723480  0.81504625  0.42424840  1
  O  O586  1  0.42718943  0.81548137  0.67597262  1
  O  O587  1  0.42705418  0.81218479  0.92629437  1
  O  O588  1  0.92622270  0.14757045  0.17615958  1
  O  O589  1  0.92744793  0.14646814  0.42725221  1
  O  O590  1  0.92776187  0.14707094  0.67692607  1
  O  O591  1  0.92692737  0.14568268  0.92507180  1
  O  O592  1  0.92688155  0.48026720  0.17746834  1
  O  O593  1  0.92557080  0.47966886  0.42432626  1
  O  O594  1  0.92571811  0.48035649  0.67467304  1
  O  O595  1  0.92665258  0.48150479  0.92702224  1
  O  O596  1  0.92721363  0.81370060  0.17646035  1
  O  O597  1  0.92606183  0.81216311  0.42519589  1
  O  O598  1  0.92630236  0.81561463  0.67568061  1
  O  O599  1  0.92724102  0.81552083  0.92678412  1
  O  O600  1  0.07393302  0.18685238  0.07607674  1
  O  O601  1  0.07221088  0.18583032  0.32347798  1
  O  O602  1  0.07333783  0.18511011  0.57385948  1
  O  O603  1  0.07317910  0.18524511  0.82467019  1
  O  O604  1  0.07207490  0.51905930  0.07520791  1
  O  O605  1  0.07164483  0.52015009  0.32389623  1
  O  O606  1  0.07238564  0.52174516  0.57435608  1
  O  O607  1  0.07314791  0.52068900  0.82527821  1
  O  O608  1  0.07145381  0.85309298  0.07280616  1
  O  O609  1  0.07311848  0.85174553  0.32379490  1
  O  O610  1  0.07289286  0.85461831  0.57483749  1
  O  O611  1  0.07186417  0.85316243  0.82352262  1
  O  O612  1  0.57352766  0.18477157  0.07416182  1
  O  O613  1  0.57321525  0.18448809  0.32375281  1
  O  O614  1  0.57466955  0.18633246  0.57463046  1
  O  O615  1  0.57455459  0.18566387  0.82513082  1
  O  O616  1  0.57290259  0.52096550  0.07531698  1
  O  O617  1  0.57170171  0.52013176  0.32237558  1
  O  O618  1  0.57393409  0.52059353  0.57445362  1
  O  O619  1  0.57351158  0.51990438  0.82564910  1
  O  O620  1  0.57410356  0.85382666  0.07543079  1
  O  O621  1  0.57420450  0.85428108  0.32447236  1
  O  O622  1  0.57287099  0.85292475  0.57248919  1
  O  O623  1  0.57317338  0.85120457  0.82388638  1
  O  O624  1  0.32385678  0.18676802  0.04976811  1
  O  O625  1  0.32410705  0.18720198  0.29930597  1
  O  O626  1  0.32396624  0.18666189  0.54890780  1
  O  O627  1  0.32401935  0.18637080  0.79963282  1
  O  O628  1  0.32263172  0.52033671  0.05223055  1
  O  O629  1  0.32151456  0.52060435  0.30128834  1
  O  O630  1  0.32273845  0.52127857  0.54946697  1
  O  O631  1  0.32278346  0.51879779  0.80057248  1
  O  O632  1  0.32342796  0.85135021  0.05133195  1
  O  O633  1  0.32327946  0.85338668  0.29986275  1
  O  O634  1  0.32343508  0.85221145  0.54802433  1
  O  O635  1  0.32300204  0.85020651  0.80087257  1
  O  O636  1  0.82347767  0.18891954  0.05013654  1
  O  O637  1  0.82249328  0.18766008  0.30157848  1
  O  O638  1  0.82330556  0.18621042  0.55157967  1
  O  O639  1  0.82338301  0.18834718  0.80047133  1
  O  O640  1  0.82216232  0.51968352  0.05303964  1
  O  O641  1  0.82091950  0.51919195  0.30197118  1
  O  O642  1  0.82166749  0.51946457  0.55147186  1
  O  O643  1  0.82336304  0.52017110  0.80205501  1
  O  O644  1  0.82406674  0.85276020  0.04994672  1
  O  O645  1  0.82411393  0.85226794  0.30029372  1
  O  O646  1  0.82381108  0.85416377  0.55052145  1
  O  O647  1  0.82248490  0.85190339  0.80026023  1
  O  O648  1  0.17638718  0.14638431  0.20086010  1
  O  O649  1  0.17662513  0.14523599  0.44912375  1
  O  O650  1  0.17630394  0.14571257  0.69982947  1
  O  O651  1  0.17612807  0.14624708  0.95022054  1
  O  O652  1  0.17668948  0.48240768  0.19906865  1
  O  O653  1  0.17578562  0.48217221  0.44848371  1
  O  O654  1  0.17502404  0.48025955  0.69960462  1
  O  O655  1  0.17676313  0.48238934  0.94925083  1
  O  O656  1  0.17731271  0.81359719  0.19854414  1
  O  O657  1  0.17621194  0.81206700  0.44976110  1
  O  O658  1  0.17653867  0.81173056  0.69886015  1
  O  O659  1  0.17655318  0.81402182  0.94903847  1
  O  O660  1  0.67678100  0.14756308  0.20028981  1
  O  O661  1  0.67764210  0.14800454  0.44985372  1
  O  O662  1  0.67837923  0.14749533  0.69857938  1
  O  O663  1  0.67689129  0.14777880  0.95019574  1
  O  O664  1  0.67825112  0.48067437  0.19804980  1
  O  O665  1  0.67693156  0.48034240  0.44757276  1
  O  O666  1  0.67721192  0.48191457  0.69954967  1
  O  O667  1  0.67809206  0.48093061  0.94949415  1
  O  O668  1  0.67748801  0.81158996  0.20039408  1
  O  O669  1  0.67737455  0.81216071  0.45012999  1
  O  O670  1  0.67663208  0.81182885  0.69979578  1
  O  O671  1  0.67797005  0.81288662  0.94910615  1
