# generated using pymatgen
data_Na2MnFe(PO4)2
_symmetry_space_group_name_H-M   'P 1'
_cell_length_a   22.34523123
_cell_length_b   20.09757823
_cell_length_c   19.44655090
_cell_angle_alpha   89.94145603
_cell_angle_beta   90.05795916
_cell_angle_gamma   89.99606337
_symmetry_Int_Tables_number   1
_chemical_formula_structural   Na2MnFe(PO4)2
_chemical_formula_sum   'Na96 Mn48 Fe48 P96 O384'
_cell_volume   8733.14589524
_cell_formula_units_Z   48
loop_
 _symmetry_equiv_pos_site_id
 _symmetry_equiv_pos_as_xyz
  1  'x, y, z'
loop_
 _atom_site_type_symbol
 _atom_site_label
 _atom_site_symmetry_multiplicity
 _atom_site_fract_x
 _atom_site_fract_y
 _atom_site_fract_z
 _atom_site_occupancy
  Na  Na0  1  0.14018710  0.24879874  0.24347723  1
  Na  Na1  1  0.14070568  0.25005992  0.49435134  1
  Na  Na2  1  0.14040317  0.24867353  0.74383048  1
  Na  Na3  1  0.13992943  0.24970873  0.99290433  1
  Na  Na4  1  0.13967459  0.58382067  0.24381999  1
  Na  Na5  1  0.13977901  0.58396667  0.49355727  1
  Na  Na6  1  0.14024627  0.58414678  0.74184359  1
  Na  Na7  1  0.14044238  0.58533277  0.99334677  1
  Na  Na8  1  0.14070423  0.91494443  0.24349021  1
  Na  Na9  1  0.14071298  0.91593469  0.49491912  1
  Na  Na10  1  0.14040618  0.91479116  0.74295863  1
  Na  Na11  1  0.14018734  0.91607801  0.99174610  1
  Na  Na12  1  0.63943846  0.25170970  0.24456218  1
  Na  Na13  1  0.63972211  0.24967683  0.49414176  1
  Na  Na14  1  0.64041449  0.24916623  0.74315584  1
  Na  Na15  1  0.64007723  0.25120674  0.99361564  1
  Na  Na16  1  0.63969323  0.58445415  0.24388432  1
  Na  Na17  1  0.63977462  0.58412452  0.49428650  1
  Na  Na18  1  0.63978767  0.58347439  0.74463948  1
  Na  Na19  1  0.63980620  0.58457587  0.99266706  1
  Na  Na20  1  0.64014854  0.91643139  0.24460668  1
  Na  Na21  1  0.64031039  0.91793974  0.49488464  1
  Na  Na22  1  0.64020983  0.91718626  0.74344193  1
  Na  Na23  1  0.64007743  0.91730769  0.99231050  1
  Na  Na24  1  0.35998656  0.08300927  0.00530431  1
  Na  Na25  1  0.35934166  0.08229765  0.25710604  1
  Na  Na26  1  0.35965378  0.08325224  0.50772160  1
  Na  Na27  1  0.35987361  0.08117630  0.75613924  1
  Na  Na28  1  0.35925381  0.41758414  0.00572377  1
  Na  Na29  1  0.35931080  0.41646169  0.25805737  1
  Na  Na30  1  0.35953716  0.41768371  0.50800848  1
  Na  Na31  1  0.35975342  0.41659476  0.75604829  1
  Na  Na32  1  0.36028932  0.74988833  0.00547817  1
  Na  Na33  1  0.36004697  0.74962458  0.25667204  1
  Na  Na34  1  0.35909430  0.74986873  0.50656606  1
  Na  Na35  1  0.36006893  0.74941846  0.75641416  1
  Na  Na36  1  0.86041595  0.08410837  0.00585030  1
  Na  Na37  1  0.86009971  0.08321969  0.25541903  1
  Na  Na38  1  0.85981810  0.08325610  0.50672814  1
  Na  Na39  1  0.86035817  0.08255669  0.75729829  1
  Na  Na40  1  0.85947729  0.41706677  0.00551503  1
  Na  Na41  1  0.85979672  0.41799119  0.25517945  1
  Na  Na42  1  0.85984239  0.41665206  0.50594338  1
  Na  Na43  1  0.85945193  0.41620350  0.75655204  1
  Na  Na44  1  0.86055584  0.74932832  0.00546587  1
  Na  Na45  1  0.86016797  0.74946187  0.25546816  1
  Na  Na46  1  0.86013087  0.75081883  0.50652092  1
  Na  Na47  1  0.86037303  0.74933358  0.75784738  1
  Na  Na48  1  0.10917888  0.08353412  0.11792088  1
  Na  Na49  1  0.10999623  0.08318642  0.36872670  1
  Na  Na50  1  0.10983631  0.08223693  0.61960081  1
  Na  Na51  1  0.10953173  0.08232749  0.86816243  1
  Na  Na52  1  0.10914262  0.41727182  0.11861425  1
  Na  Na53  1  0.10914303  0.41712381  0.36922766  1
  Na  Na54  1  0.10992555  0.41717215  0.61804088  1
  Na  Na55  1  0.10931565  0.41598657  0.86803543  1
  Na  Na56  1  0.10986408  0.74981580  0.11797747  1
  Na  Na57  1  0.11026530  0.74798996  0.36853589  1
  Na  Na58  1  0.11019561  0.74881521  0.61839055  1
  Na  Na59  1  0.11024117  0.75021013  0.86730288  1
  Na  Na60  1  0.60924021  0.08379147  0.11889337  1
  Na  Na61  1  0.60916930  0.08380911  0.37033623  1
  Na  Na62  1  0.60963681  0.08383801  0.61812839  1
  Na  Na63  1  0.60955680  0.08350255  0.86721222  1
  Na  Na64  1  0.60878282  0.41808009  0.11912414  1
  Na  Na65  1  0.60874942  0.41772406  0.36943503  1
  Na  Na66  1  0.60892486  0.41619345  0.61960255  1
  Na  Na67  1  0.60887789  0.41777762  0.86807420  1
  Na  Na68  1  0.60918061  0.75101455  0.11887784  1
  Na  Na69  1  0.60938602  0.75085798  0.36896974  1
  Na  Na70  1  0.60966440  0.75022732  0.61984437  1
  Na  Na71  1  0.60951699  0.74977760  0.86728382  1
  Na  Na72  1  0.39007344  0.25001473  0.13132651  1
  Na  Na73  1  0.39050801  0.25023642  0.38311853  1
  Na  Na74  1  0.39048340  0.25048779  0.63181762  1
  Na  Na75  1  0.39024898  0.24952356  0.88070982  1
  Na  Na76  1  0.39011080  0.58489375  0.13169550  1
  Na  Na77  1  0.39009519  0.58381129  0.38211233  1
  Na  Na78  1  0.39023867  0.58291544  0.63241938  1
  Na  Na79  1  0.38964521  0.58405571  0.88038162  1
  Na  Na80  1  0.39075014  0.91639670  0.13074019  1
  Na  Na81  1  0.39038193  0.91636500  0.38210164  1
  Na  Na82  1  0.39020629  0.91613788  0.63248159  1
  Na  Na83  1  0.39066519  0.91540443  0.88030776  1
  Na  Na84  1  0.89079337  0.25070099  0.12997819  1
  Na  Na85  1  0.89059776  0.25024525  0.38060894  1
  Na  Na86  1  0.89061954  0.24844360  0.63213248  1
  Na  Na87  1  0.89092528  0.24821366  0.88148438  1
  Na  Na88  1  0.89028881  0.58345244  0.12996894  1
  Na  Na89  1  0.89071508  0.58319647  0.38029281  1
  Na  Na90  1  0.89060720  0.58404259  0.63127769  1
  Na  Na91  1  0.89036989  0.58386353  0.88207111  1
  Na  Na92  1  0.89095097  0.91658482  0.13009419  1
  Na  Na93  1  0.89064574  0.91533255  0.38141529  1
  Na  Na94  1  0.89098364  0.91649566  0.63310035  1
  Na  Na95  1  0.89148565  0.91603875  0.88160374  1
  Mn  Mn96  1  0.49908921  0.16777136  0.25028437  1
  Mn  Mn97  1  0.75012457  0.83319125  0.12428617  1
  Mn  Mn98  1  0.75001630  0.66737173  0.62552901  1
  Mn  Mn99  1  0.00062264  0.00020859  0.24970622  1
  Mn  Mn100  1  0.24989523  0.16617627  0.12522215  1
  Mn  Mn101  1  -0.00021857  -0.00088289  0.50045008  1
  Mn  Mn102  1  0.25008063  0.33317211  0.12527727  1
  Mn  Mn103  1  0.75032467  0.66789421  0.37475902  1
  Mn  Mn104  1  0.74975166  0.50057239  0.37519410  1
  Mn  Mn105  1  -0.00010434  0.33240623  0.74922272  1
  Mn  Mn106  1  0.00061301  0.50035831  -0.00090119  1
  Mn  Mn107  1  -0.00050017  0.50047823  0.74974199  1
  Mn  Mn108  1  0.24936115  0.50082101  0.37606395  1
  Mn  Mn109  1  0.74908326  0.66654190  0.12481594  1
  Mn  Mn110  1  0.74987943  0.33373949  0.37508227  1
  Mn  Mn111  1  0.75006420  0.33500309  0.12366765  1
  Mn  Mn112  1  0.49959283  0.83380097  0.50029999  1
  Mn  Mn113  1  0.24969978  0.50132673  0.12569375  1
  Mn  Mn114  1  0.00012374  0.33362277  0.24953601  1
  Mn  Mn115  1  0.50032645  0.83344685  -0.00040744  1
  Mn  Mn116  1  0.25035510  -0.00103266  0.87459975  1
  Mn  Mn117  1  0.00042292  0.33349328  0.49985587  1
  Mn  Mn118  1  0.49914994  0.50083903  0.25031442  1
  Mn  Mn119  1  0.74991185  0.00048548  0.87473571  1
  Mn  Mn120  1  0.74999807  -0.00044244  0.37551809  1
  Mn  Mn121  1  0.74957618  0.33232068  0.62608336  1
  Mn  Mn122  1  0.74996747  0.00003010  0.12460999  1
  Mn  Mn123  1  0.25050274  0.83177376  0.12422023  1
  Mn  Mn124  1  0.74996014  0.83414471  0.62602045  1
  Mn  Mn125  1  0.24989525  -0.00071754  0.37548447  1
  Mn  Mn126  1  0.49931225  0.66633769  0.50055556  1
  Mn  Mn127  1  0.74964879  0.16739644  0.12510753  1
  Mn  Mn128  1  0.24916220  0.50111463  0.87494831  1
  Mn  Mn129  1  0.49938317  0.33386777  -0.00019732  1
  Mn  Mn130  1  0.49958423  0.16651829  0.74974994  1
  Mn  Mn131  1  0.24916893  0.33290117  0.37588386  1
  Mn  Mn132  1  0.50050727  0.16624381  0.00006665  1
  Mn  Mn133  1  0.49869463  0.50128283  -0.00023238  1
  Mn  Mn134  1  0.25015901  0.16616394  0.62538450  1
  Mn  Mn135  1  0.00092519  0.83158840  0.50088028  1
  Mn  Mn136  1  -0.00001143  0.16593129  0.50027750  1
  Mn  Mn137  1  0.24975861  -0.00092775  0.12479913  1
  Mn  Mn138  1  0.00060013  0.83203596  0.24988025  1
  Mn  Mn139  1  0.75002723  0.16673546  0.37489908  1
  Mn  Mn140  1  0.49941512  0.00000926  0.25027669  1
  Mn  Mn141  1  0.74994279  0.33323791  0.87484728  1
  Mn  Mn142  1  0.24946545  0.33300289  0.87513903  1
  Mn  Mn143  1  0.74994358  0.50027630  0.62537701  1
  Fe  Fe144  1  0.50000735  -0.00025938  -0.00023382  1
  Fe  Fe145  1  0.24983391  0.50055835  0.62538393  1
  Fe  Fe146  1  0.50009861  -0.00015659  0.74939208  1
  Fe  Fe147  1  -0.00011343  0.16707901  0.24890987  1
  Fe  Fe148  1  0.00082948  0.83312199  -0.00062698  1
  Fe  Fe149  1  0.50003188  0.66719908  -0.00040351  1
  Fe  Fe150  1  -0.00017609  0.66602476  0.24941639  1
  Fe  Fe151  1  0.25031438  0.66709706  0.87374457  1
  Fe  Fe152  1  0.49945444  0.16705999  0.50052190  1
  Fe  Fe153  1  0.25034542  0.66679861  0.37544399  1
  Fe  Fe154  1  0.75066179  0.16610328  0.62471851  1
  Fe  Fe155  1  0.00027096  0.83272459  0.75044184  1
  Fe  Fe156  1  0.00071023  -0.00008800  -0.00033440  1
  Fe  Fe157  1  0.24990585  -0.00084039  0.62515229  1
  Fe  Fe158  1  -0.00011291  0.50042521  0.24895671  1
  Fe  Fe159  1  0.25014513  0.66705406  0.12481107  1
  Fe  Fe160  1  0.50004876  0.66619070  0.74970613  1
  Fe  Fe161  1  0.00069437  -0.00034466  0.75138060  1
  Fe  Fe162  1  0.00089220  0.66699172  -0.00018782  1
  Fe  Fe163  1  0.50012501  0.66750281  0.25065160  1
  Fe  Fe164  1  0.74960901  0.50072440  0.12444753  1
  Fe  Fe165  1  0.25001772  0.66712339  0.62444034  1
  Fe  Fe166  1  0.49957482  0.33413492  0.50076701  1
  Fe  Fe167  1  0.00053120  0.16641637  -0.00026976  1
  Fe  Fe168  1  0.25014000  0.16632946  0.37613327  1
  Fe  Fe169  1  0.75037577  0.83356001  0.87462269  1
  Fe  Fe170  1  0.25037438  0.83241781  0.62454135  1
  Fe  Fe171  1  0.49931799  0.33437884  0.25125623  1
  Fe  Fe172  1  0.74945853  0.50032061  0.87515767  1
  Fe  Fe173  1  0.25021247  0.33313051  0.62536265  1
  Fe  Fe174  1  0.74995635  0.16642501  0.87448996  1
  Fe  Fe175  1  -0.00045272  0.50045075  0.49926698  1
  Fe  Fe176  1  0.50010224  0.83330038  0.75029153  1
  Fe  Fe177  1  0.50004750  0.00001549  0.50061344  1
  Fe  Fe178  1  0.50022817  0.50006052  0.50076117  1
  Fe  Fe179  1  0.49942823  0.49987848  0.75014728  1
  Fe  Fe180  1  0.00065813  0.16571200  0.75116784  1
  Fe  Fe181  1  0.49987756  0.33331646  0.74937976  1
  Fe  Fe182  1  0.25054190  0.83251968  0.87368780  1
  Fe  Fe183  1  0.50016044  0.83390878  0.24997178  1
  Fe  Fe184  1  -0.00046535  0.66590126  0.49971341  1
  Fe  Fe185  1  -0.00016546  0.33306712  -0.00026836  1
  Fe  Fe186  1  0.75022623  0.66648836  0.87543094  1
  Fe  Fe187  1  0.75088415  0.00017169  0.62533550  1
  Fe  Fe188  1  0.25036802  0.16593815  0.87436364  1
  Fe  Fe189  1  0.00064821  0.66674221  0.75005268  1
  Fe  Fe190  1  0.75010207  0.83395185  0.37553006  1
  Fe  Fe191  1  0.25007497  0.83274904  0.37541597  1
  P  P192  1  0.04166007  0.25001137  0.10140636  1
  P  P193  1  0.04229121  0.24877422  0.35195661  1
  P  P194  1  0.04297882  0.24924079  0.60362330  1
  P  P195  1  0.04220124  0.24843349  0.85322545  1
  P  P196  1  0.04236544  0.58455371  0.10250561  1
  P  P197  1  0.04115813  0.58282881  0.35173183  1
  P  P198  1  0.04128299  0.58360311  0.60164782  1
  P  P199  1  0.04252330  0.58480024  0.85231685  1
  P  P200  1  0.04183385  0.91647534  0.10096660  1
  P  P201  1  0.04321130  0.91568757  0.35303642  1
  P  P202  1  0.04263418  0.91573017  0.60465988  1
  P  P203  1  0.04173164  0.91574871  0.85236066  1
  P  P204  1  0.54258934  0.25081617  0.10356867  1
  P  P205  1  0.54127158  0.25194184  0.35393760  1
  P  P206  1  0.54087115  0.25065126  0.60207532  1
  P  P207  1  0.54206329  0.25116860  0.85178127  1
  P  P208  1  0.54166875  0.58561233  0.10270439  1
  P  P209  1  0.54182469  0.58455613  0.35309462  1
  P  P210  1  0.54167288  0.58189429  0.60374213  1
  P  P211  1  0.54067941  0.58346801  0.85172836  1
  P  P212  1  0.54243720  0.91768261  0.10241896  1
  P  P213  1  0.54199915  0.91606776  0.35312015  1
  P  P214  1  0.54177478  0.91786005  0.60355444  1
  P  P215  1  0.54142629  0.91708231  0.85158466  1
  P  P216  1  0.45670882  0.08333146  0.14684037  1
  P  P217  1  0.45830771  0.08322834  0.39912789  1
  P  P218  1  0.45801614  0.08221321  0.64675235  1
  P  P219  1  0.45823346  0.08154121  0.89686309  1
  P  P220  1  0.45672375  0.41619320  0.14821065  1
  P  P221  1  0.45790834  0.41730884  0.39907933  1
  P  P222  1  0.45850860  0.41682771  0.64786801  1
  P  P223  1  0.45662144  0.41730389  0.89579766  1
  P  P224  1  0.45870290  0.75057400  0.14826910  1
  P  P225  1  0.45733809  0.75016006  0.39664630  1
  P  P226  1  0.45878453  0.75001476  0.64880517  1
  P  P227  1  0.45836893  0.74881295  0.89638361  1
  P  P228  1  0.95841373  0.08463382  0.14626939  1
  P  P229  1  0.95718493  0.08293991  0.39656226  1
  P  P230  1  0.95910221  0.08271631  0.64960518  1
  P  P231  1  0.95945403  0.08282399  0.89790583  1
  P  P232  1  0.95793039  0.41783113  0.14643720  1
  P  P233  1  0.95792405  0.41821383  0.39676764  1
  P  P234  1  0.95719041  0.41715399  0.64608499  1
  P  P235  1  0.95789107  0.41527789  0.89720793  1
  P  P236  1  0.95836239  0.74848155  0.14630537  1
  P  P237  1  0.95812001  0.74781651  0.39730752  1
  P  P238  1  0.95862162  0.74939477  0.64870176  1
  P  P239  1  0.95977465  0.74985970  0.89754964  1
  P  P240  1  0.20692778  0.08239088  0.22863256  1
  P  P241  1  0.20799310  0.08370530  0.47837316  1
  P  P242  1  0.20808639  0.08127024  0.72777807  1
  P  P243  1  0.20789302  0.08387140  0.97676817  1
  P  P244  1  0.20683540  0.41679822  0.22847057  1
  P  P245  1  0.20721505  0.41697894  0.47971787  1
  P  P246  1  0.20854658  0.41648700  0.72646964  1
  P  P247  1  0.20663666  0.41736477  0.97804384  1
  P  P248  1  0.20795721  0.74829443  0.22796139  1
  P  P249  1  0.20872139  0.74966720  0.47727518  1
  P  P250  1  0.20925893  0.74963267  0.72653557  1
  P  P251  1  0.20891276  0.74973279  0.97559101  1
  P  P252  1  0.70677643  0.08316336  0.22818879  1
  P  P253  1  0.70760335  0.08348037  0.47930853  1
  P  P254  1  0.70885163  0.08332648  0.72658939  1
  P  P255  1  0.70722990  0.08492601  0.97700134  1
  P  P256  1  0.70721085  0.41863841  0.22697666  1
  P  P257  1  0.70672886  0.41665284  0.47858465  1
  P  P258  1  0.70717044  0.41701092  0.72903059  1
  P  P259  1  0.70712634  0.41856108  0.97727350  1
  P  P260  1  0.70711508  0.75078691  0.22841786  1
  P  P261  1  0.70745566  0.75206710  0.47785655  1
  P  P262  1  0.70766497  0.75023754  0.72970282  1
  P  P263  1  0.70857734  0.75040547  0.97594670  1
  P  P264  1  0.29268645  0.24960738  0.02136501  1
  P  P265  1  0.29233306  0.24836625  0.27357577  1
  P  P266  1  0.29232121  0.25084585  0.52295735  1
  P  P267  1  0.29201767  0.24875419  0.77207895  1
  P  P268  1  0.29227146  0.58552948  0.02216222  1
  P  P269  1  0.29208338  0.58495182  0.27293839  1
  P  P270  1  0.29120259  0.58401915  0.52361225  1
  P  P271  1  0.29138313  0.58456835  0.77122495  1
  P  P272  1  0.29281869  0.91573876  0.02097349  1
  P  P273  1  0.29246579  0.91453697  0.27297133  1
  P  P274  1  0.29139024  0.91603760  0.52337863  1
  P  P275  1  0.29221863  0.91458229  0.77119958  1
  P  P276  1  0.79271396  0.25022531  0.02085111  1
  P  P277  1  0.79284642  0.25077343  0.27149580  1
  P  P278  1  0.79260733  0.24904773  0.52298021  1
  P  P279  1  0.79242624  0.24799796  0.77214998  1
  P  P280  1  0.79158053  0.58248394  0.02142404  1
  P  P281  1  0.79250732  0.58363293  0.27120896  1
  P  P282  1  0.79279652  0.58410266  0.52216189  1
  P  P283  1  0.79159647  0.58319433  0.77392061  1
  P  P284  1  0.79283100  0.91660435  0.02077351  1
  P  P285  1  0.79295825  0.91545077  0.27260322  1
  P  P286  1  0.79297082  0.91771877  0.52295381  1
  P  P287  1  0.79266964  0.91618750  0.77256681  1
  O  O288  1  0.03645302  0.24985851  0.18139068  1
  O  O289  1  0.03721581  0.24913880  0.43194501  1
  O  O290  1  0.03795046  0.24863842  0.68359701  1
  O  O291  1  0.03644746  0.24901542  0.93308838  1
  O  O292  1  0.03670665  0.58421058  0.18235100  1
  O  O293  1  0.03575812  0.58250848  0.43163731  1
  O  O294  1  0.03646842  0.58404266  0.68163838  1
  O  O295  1  0.03778021  0.58496257  0.93228036  1
  O  O296  1  0.03728304  0.91623748  0.18095225  1
  O  O297  1  0.03806822  0.91544502  0.43303291  1
  O  O298  1  0.03731682  0.91557943  0.68456290  1
  O  O299  1  0.03696001  0.91607977  0.93227418  1
  O  O300  1  0.53734285  0.25127306  0.18353516  1
  O  O301  1  0.53573568  0.25171861  0.43384094  1
  O  O302  1  0.53598701  0.25053943  0.68204668  1
  O  O303  1  0.53722493  0.25071454  0.93172988  1
  O  O304  1  0.53655106  0.58562015  0.18267789  1
  O  O305  1  0.53685870  0.58358880  0.43305369  1
  O  O306  1  0.53612498  0.58192060  0.68362434  1
  O  O307  1  0.53586343  0.58429506  0.93169563  1
  O  O308  1  0.53702258  0.91689941  0.18232678  1
  O  O309  1  0.53667395  0.91663932  0.43306101  1
  O  O310  1  0.53645411  0.91764919  0.68345820  1
  O  O311  1  0.53669157  0.91725759  0.93158186  1
  O  O312  1  0.46200890  0.08289720  0.06688650  1
  O  O313  1  0.46285795  0.08366563  0.31911470  1
  O  O314  1  0.46338698  0.08260275  0.56688203  1
  O  O315  1  0.46362085  0.08145524  0.81688637  1
  O  O316  1  0.46172369  0.41679083  0.06821837  1
  O  O317  1  0.46278973  0.41713081  0.31907161  1
  O  O318  1  0.46399953  0.41690014  0.56799000  1
  O  O319  1  0.46209025  0.41721826  0.81590143  1
  O  O320  1  0.46385369  0.75037621  0.06825521  1
  O  O321  1  0.46279562  0.75029729  0.31677290  1
  O  O322  1  0.46296773  0.75008419  0.56880920  1
  O  O323  1  0.46372843  0.74900728  0.81654947  1
  O  O324  1  0.96417241  0.08437173  0.06640264  1
  O  O325  1  0.96212345  0.08340757  0.31660235  1
  O  O326  1  0.96349615  0.08238499  0.56960780  1
  O  O327  1  0.96470328  0.08277505  0.81801503  1
  O  O328  1  0.96349039  0.41703238  0.06651917  1
  O  O329  1  0.96337752  0.41833921  0.31680839  1
  O  O330  1  0.96250051  0.41782790  0.56612783  1
  O  O331  1  0.96289556  0.41541729  0.81722179  1
  O  O332  1  0.96381792  0.74891515  0.06643046  1
  O  O333  1  0.96330834  0.74784496  0.31737842  1
  O  O334  1  0.96332446  0.74877352  0.56872997  1
  O  O335  1  0.96470153  0.75021777  0.81763490  1
  O  O336  1  0.21271694  0.08343363  0.05678393  1
  O  O337  1  0.21203946  0.08273043  0.30863969  1
  O  O338  1  0.21340899  0.08304101  0.55832086  1
  O  O339  1  0.21361581  0.08185277  0.80767196  1
  O  O340  1  0.21180600  0.41728773  0.05800767  1
  O  O341  1  0.21168843  0.41678130  0.30851679  1
  O  O342  1  0.21268459  0.41672485  0.55962268  1
  O  O343  1  0.21304120  0.41681146  0.80651592  1
  O  O344  1  0.21370784  0.74921270  0.05557843  1
  O  O345  1  0.21301946  0.74866320  0.30783110  1
  O  O346  1  0.21405500  0.74950859  0.55716156  1
  O  O347  1  0.21411847  0.74990297  0.80642993  1
  O  O348  1  0.71212329  0.08438170  0.05697979  1
  O  O349  1  0.71188972  0.08287651  0.30820428  1
  O  O350  1  0.71323944  0.08341663  0.55925829  1
  O  O351  1  0.71359253  0.08387045  0.80664447  1
  O  O352  1  0.71235977  0.41883389  0.05725341  1
  O  O353  1  0.71225366  0.41805914  0.30699269  1
  O  O354  1  0.71164557  0.41631824  0.55858165  1
  O  O355  1  0.71246466  0.41731396  0.80897964  1
  O  O356  1  0.71296572  0.74999445  0.05599482  1
  O  O357  1  0.71231734  0.75144905  0.30838627  1
  O  O358  1  0.71237688  0.75165329  0.55791600  1
  O  O359  1  0.71296888  0.75018552  0.80960119  1
  O  O360  1  0.28743480  0.24867313  0.19354054  1
  O  O361  1  0.28696039  0.25015728  0.44303673  1
  O  O362  1  0.28656433  0.24962815  0.69212218  1
  O  O363  1  0.28748593  0.24915667  0.94136658  1
  O  O364  1  0.28706364  0.58501930  0.19295564  1
  O  O365  1  0.28654624  0.58417472  0.44361847  1
  O  O366  1  0.28610360  0.58429038  0.69134963  1
  O  O367  1  0.28698076  0.58558520  0.94219058  1
  O  O368  1  0.28746285  0.91480293  0.19296498  1
  O  O369  1  0.28639299  0.91549322  0.44341394  1
  O  O370  1  0.28684570  0.91526068  0.69134219  1
  O  O371  1  0.28775016  0.91541295  0.94099358  1
  O  O372  1  0.78788283  0.25114999  0.19148748  1
  O  O373  1  0.78774383  0.24951236  0.44296049  1
  O  O374  1  0.78710769  0.24760389  0.69216497  1
  O  O375  1  0.78743534  0.24959325  0.94086416  1
  O  O376  1  0.78712580  0.58319065  0.19123707  1
  O  O377  1  0.78772980  0.58437485  0.44219474  1
  O  O378  1  0.78716010  0.58376943  0.69388699  1
  O  O379  1  0.78627832  0.58263428  0.94149129  1
  O  O380  1  0.78795358  0.91588942  0.19256221  1
  O  O381  1  0.78768938  0.91686516  0.44297777  1
  O  O382  1  0.78757419  0.91708603  0.69260721  1
  O  O383  1  0.78757006  0.91633608  0.94080674  1
  O  O384  1  0.22831074  0.24991222  0.05660563  1
  O  O385  1  0.22787599  0.24779397  0.30873689  1
  O  O386  1  0.22810928  0.25112008  0.55864854  1
  O  O387  1  0.22786047  0.24803007  0.80795832  1
  O  O388  1  0.22801412  0.58569851  0.05792568  1
  O  O389  1  0.22777748  0.58530255  0.30850219  1
  O  O390  1  0.22697586  0.58463690  0.55918796  1
  O  O391  1  0.22727932  0.58538783  0.80729834  1
  O  O392  1  0.22844042  0.91545440  0.05616286  1
  O  O393  1  0.22813830  0.91465976  0.30841240  1
  O  O394  1  0.22733884  0.91655166  0.55943401  1
  O  O395  1  0.22813920  0.91445302  0.80738060  1
  O  O396  1  0.72838185  0.25082816  0.05609294  1
  O  O397  1  0.72835488  0.25060841  0.30640915  1
  O  O398  1  0.72814992  0.24840308  0.55810260  1
  O  O399  1  0.72810776  0.24839979  0.80766290  1
  O  O400  1  0.72740119  0.58203224  0.05746367  1
  O  O401  1  0.72823723  0.58417813  0.30666641  1
  O  O402  1  0.72830652  0.58402355  0.55702092  1
  O  O403  1  0.72722353  0.58305340  0.80907463  1
  O  O404  1  0.72841484  0.91682769  0.05587508  1
  O  O405  1  0.72851765  0.91513551  0.30791427  1
  O  O406  1  0.72867533  0.91874834  0.55857094  1
  O  O407  1  0.72829224  0.91587032  0.80785276  1
  O  O408  1  0.27136502  0.08230274  0.19356770  1
  O  O409  1  0.27219667  0.08388038  0.44252039  1
  O  O410  1  0.27221600  0.08091437  0.69183824  1
  O  O411  1  0.27227192  0.08393222  0.94151009  1
  O  O412  1  0.27132776  0.41706583  0.19364263  1
  O  O413  1  0.27134562  0.41683813  0.44387586  1
  O  O414  1  0.27278124  0.41622886  0.69096713  1
  O  O415  1  0.27099728  0.41733192  0.94293181  1
  O  O416  1  0.27225304  0.74797541  0.19210729  1
  O  O417  1  0.27272505  0.74974089  0.44081440  1
  O  O418  1  0.27333960  0.74873140  0.69048925  1
  O  O419  1  0.27312686  0.75000840  0.93973447  1
  O  O420  1  0.77126065  0.08334798  0.19326138  1
  O  O421  1  0.77177309  0.08331645  0.44355930  1
  O  O422  1  0.77317689  0.08304645  0.69106265  1
  O  O423  1  0.77173090  0.08486638  0.94192353  1
  O  O424  1  0.77159716  0.41923529  0.19153521  1
  O  O425  1  0.77128066  0.41692661  0.44386055  1
  O  O426  1  0.77147912  0.41648893  0.69374695  1
  O  O427  1  0.77147462  0.41834518  0.94180009  1
  O  O428  1  0.77142656  0.74988814  0.19309816  1
  O  O429  1  0.77188193  0.75223776  0.44262041  1
  O  O430  1  0.77193488  0.75043813  0.69419332  1
  O  O431  1  0.77295181  0.75085393  0.94075598  1
  O  O432  1  0.02242720  0.08502796  0.18284978  1
  O  O433  1  0.02162772  0.08258779  0.43178669  1
  O  O434  1  0.02339121  0.08332382  0.68517344  1
  O  O435  1  0.02343276  0.08315018  0.93437739  1
  O  O436  1  0.02200499  0.41824280  0.18273717  1
  O  O437  1  0.02207283  0.41822350  0.43288049  1
  O  O438  1  0.02150935  0.41692968  0.68155820  1
  O  O439  1  0.02220892  0.41526520  0.93267448  1
  O  O440  1  0.02245225  0.74774058  0.18264784  1
  O  O441  1  0.02239713  0.74726264  0.43320242  1
  O  O442  1  0.02298207  0.74999734  0.68431036  1
  O  O443  1  0.02383355  0.74941366  0.93383802  1
  O  O444  1  0.52100574  0.08377917  0.18231436  1
  O  O445  1  0.52249662  0.08297351  0.43490281  1
  O  O446  1  0.52215628  0.08236622  0.68290489  1
  O  O447  1  0.52241276  0.08143558  0.93290438  1
  O  O448  1  0.52108669  0.41596835  0.18375528  1
  O  O449  1  0.52215234  0.41750187  0.43500994  1
  O  O450  1  0.52238191  0.41710442  0.68471196  1
  O  O451  1  0.52080466  0.41788162  0.93170212  1
  O  O452  1  0.52274374  0.75104704  0.18466848  1
  O  O453  1  0.52148645  0.75002602  0.43259091  1
  O  O454  1  0.52303095  0.75019335  0.68422977  1
  O  O455  1  0.52245206  0.74875783  0.93274015  1
  O  O456  1  0.47827296  0.24999704  0.06808827  1
  O  O457  1  0.47717228  0.25227402  0.31747936  1
  O  O458  1  0.47677677  0.25097037  0.56607423  1
  O  O459  1  0.47767528  0.25116318  0.81639552  1
  O  O460  1  0.47735252  0.58603927  0.06694368  1
  O  O461  1  0.47755453  0.58514644  0.31735834  1
  O  O462  1  0.47754415  0.58156040  0.56747585  1
  O  O463  1  0.47658022  0.58274196  0.81572841  1
  O  O464  1  0.47820067  0.91777596  0.06643554  1
  O  O465  1  0.47779494  0.91513295  0.31712332  1
  O  O466  1  0.47760413  0.91814496  0.56745490  1
  O  O467  1  0.47729541  0.91725905  0.81562474  1
  O  O468  1  0.97758227  0.24977000  0.06514352  1
  O  O469  1  0.97799002  0.24892276  0.31632409  1
  O  O470  1  0.97858650  0.24975645  0.56839500  1
  O  O471  1  0.97813096  0.24798318  0.81681296  1
  O  O472  1  0.97835964  0.58475150  0.06593229  1
  O  O473  1  0.97724052  0.58292794  0.31488613  1
  O  O474  1  0.97708554  0.58368398  0.56567833  1
  O  O475  1  0.97804729  0.58485543  0.81712116  1
  O  O476  1  0.97765950  0.91668268  0.06525269  1
  O  O477  1  0.97888534  0.91587247  0.31771654  1
  O  O478  1  0.97845429  0.91523520  0.56873720  1
  O  O479  1  0.97770063  0.91547666  0.81610802  1
  O  O480  1  0.07204317  0.31414338  0.07349252  1
  O  O481  1  0.07350851  0.31242611  0.32431120  1
  O  O482  1  0.07398607  0.31284941  0.57558218  1
  O  O483  1  0.07338650  0.31188993  0.82490608  1
  O  O484  1  0.07340749  0.64795593  0.07390128  1
  O  O485  1  0.07208924  0.64658478  0.32368766  1
  O  O486  1  0.07227498  0.64705131  0.57307184  1
  O  O487  1  0.07338046  0.64799252  0.82312554  1
  O  O488  1  0.07276615  0.98014325  0.07286038  1
  O  O489  1  0.07434711  0.97911320  0.32496227  1
  O  O490  1  0.07344858  0.97931804  0.57624074  1
  O  O491  1  0.07223894  0.97962932  0.82369885  1
  O  O492  1  0.57339838  0.31424866  0.07488996  1
  O  O493  1  0.57214171  0.31541710  0.32519565  1
  O  O494  1  0.57233569  0.31395019  0.57407230  1
  O  O495  1  0.57259040  0.31480699  0.82329288  1
  O  O496  1  0.57291323  0.64870267  0.07380135  1
  O  O497  1  0.57266457  0.64821909  0.32493646  1
  O  O498  1  0.57261899  0.64574090  0.57593163  1
  O  O499  1  0.57115417  0.64717576  0.82280194  1
  O  O500  1  0.57289757  0.98148033  0.07409296  1
  O  O501  1  0.57276964  0.97984945  0.32517991  1
  O  O502  1  0.57276953  0.98117652  0.57470351  1
  O  O503  1  0.57284462  0.98022189  0.82304752  1
  O  O504  1  0.42563913  0.01996136  0.17541181  1
  O  O505  1  0.42735841  0.01949243  0.42690617  1
  O  O506  1  0.42724019  0.01872275  0.67545179  1
  O  O507  1  0.42718980  0.01824644  0.92548271  1
  O  O508  1  0.42598568  0.35272151  0.17670847  1
  O  O509  1  0.42697346  0.35384307  0.42758166  1
  O  O510  1  0.42793200  0.35286669  0.67604640  1
  O  O511  1  0.42572665  0.35374374  0.92420667  1
  O  O512  1  0.42799907  0.68693928  0.17671369  1
  O  O513  1  0.42608303  0.68684154  0.42518285  1
  O  O514  1  0.42831294  0.68603423  0.67681766  1
  O  O515  1  0.42742525  0.68550760  0.92529632  1
  O  O516  1  0.92735521  0.02088152  0.17414534  1
  O  O517  1  0.92631301  0.01927855  0.42482312  1
  O  O518  1  0.92903835  0.01872753  0.67829925  1
  O  O519  1  0.92880476  0.01893667  0.92616175  1
  O  O520  1  0.92669481  0.35442178  0.17463809  1
  O  O521  1  0.92699347  0.35427101  0.42426960  1
  O  O522  1  0.92617116  0.35346280  0.67387209  1
  O  O523  1  0.92715413  0.35176638  0.92568051  1
  O  O524  1  0.92690764  0.68535417  0.17486808  1
  O  O525  1  0.92673931  0.68473945  0.42591557  1
  O  O526  1  0.92811471  0.68573145  0.67757861  1
  O  O527  1  0.92838220  0.68649710  0.92577765  1
  O  O528  1  0.17619998  0.01865811  0.20040402  1
  O  O529  1  0.17657947  0.02038161  0.45040347  1
  O  O530  1  0.17727439  0.01766225  0.69958062  1
  O  O531  1  0.17685896  0.02024239  0.94892276  1
  O  O532  1  0.17609395  0.35316133  0.20033021  1
  O  O533  1  0.17566988  0.35385708  0.45122233  1
  O  O534  1  0.17753160  0.35282430  0.69876675  1
  O  O535  1  0.17554171  0.35402228  0.94973438  1
  O  O536  1  0.17710518  0.68505225  0.19883152  1
  O  O537  1  0.17776007  0.68611379  0.44890122  1
  O  O538  1  0.17745449  0.68662694  0.69812698  1
  O  O539  1  0.17807134  0.68635465  0.94679470  1
  O  O540  1  0.67603827  0.01958489  0.19983915  1
  O  O541  1  0.67622731  0.02022231  0.45095765  1
  O  O542  1  0.67825065  0.01936807  0.69880912  1
  O  O543  1  0.67614901  0.02144761  0.94881957  1
  O  O544  1  0.67651474  0.35493829  0.19883922  1
  O  O545  1  0.67604203  0.35312631  0.45009542  1
  O  O546  1  0.67602180  0.35342987  0.70114868  1
  O  O547  1  0.67608641  0.35480480  0.94965726  1
  O  O548  1  0.67571814  0.68737734  0.20049031  1
  O  O549  1  0.67641513  0.68848550  0.44995221  1
  O  O550  1  0.67661990  0.68682234  0.70116402  1
  O  O551  1  0.67839432  0.68636578  0.94759632  1
  O  O552  1  0.32361761  0.31331569  0.04938068  1
  O  O553  1  0.32292903  0.31224918  0.30141767  1
  O  O554  1  0.32299605  0.31451393  0.55127898  1
  O  O555  1  0.32302701  0.31224209  0.80021513  1
  O  O556  1  0.32333913  0.64870190  0.05094850  1
  O  O557  1  0.32332159  0.64796789  0.30180762  1
  O  O558  1  0.32298530  0.64702495  0.55187993  1
  O  O559  1  0.32281070  0.64772327  0.79978329  1
  O  O560  1  0.32344306  0.97945662  0.04920465  1
  O  O561  1  0.32371615  0.97800977  0.30092156  1
  O  O562  1  0.32241898  0.97968368  0.55124379  1
  O  O563  1  0.32361688  0.97781648  0.79964474  1
  O  O564  1  0.82383228  0.31391932  0.04847735  1
  O  O565  1  0.82370547  0.31427777  0.29985832  1
  O  O566  1  0.82332940  0.31269631  0.55118581  1
  O  O567  1  0.82364986  0.31174545  0.79947080  1
  O  O568  1  0.82242306  0.64629074  0.04935015  1
  O  O569  1  0.82372628  0.64714523  0.29907380  1
  O  O570  1  0.82366821  0.64758870  0.55052979  1
  O  O571  1  0.82204454  0.64694913  0.80268786  1
  O  O572  1  0.82373060  0.98023197  0.04886573  1
  O  O573  1  0.82384834  0.97909987  0.30054960  1
  O  O574  1  0.82408000  0.98114169  0.55124759  1
  O  O575  1  0.82389619  0.97948407  0.80087615  1
  O  O576  1  0.42547091  0.14672533  0.17496090  1
  O  O577  1  0.42793092  0.14707506  0.42760168  1
  O  O578  1  0.42658631  0.14561367  0.67483250  1
  O  O579  1  0.42737194  0.14549977  0.92418964  1
  O  O580  1  0.42588676  0.47996302  0.17607700  1
  O  O581  1  0.42725156  0.48114984  0.42716370  1
  O  O582  1  0.42701459  0.48007783  0.67606685  1
  O  O583  1  0.42507923  0.48048496  0.92422110  1
  O  O584  1  0.42778464  0.81437148  0.17600030  1
  O  O585  1  0.42611630  0.81343297  0.42517909  1
  O  O586  1  0.42800726  0.81361641  0.67709059  1
  O  O587  1  0.42723182  0.81239129  0.92440317  1
  O  O588  1  0.92731258  0.14800012  0.17472583  1
  O  O589  1  0.92611806  0.14617417  0.42530876  1
  O  O590  1  0.92798533  0.14622165  0.67751577  1
  O  O591  1  0.92806002  0.14612518  0.92612475  1
  O  O592  1  0.92713776  0.48154148  0.17428353  1
  O  O593  1  0.92683822  0.48139915  0.42547687  1
  O  O594  1  0.92590932  0.48026598  0.67479735  1
  O  O595  1  0.92693748  0.47908983  0.92459865  1
  O  O596  1  0.92763407  0.81230302  0.17445111  1
  O  O597  1  0.92765533  0.81172522  0.42539485  1
  O  O598  1  0.92755829  0.81292114  0.67683884  1
  O  O599  1  0.92936634  0.81367235  0.92629345  1
  O  O600  1  0.07307422  0.18674910  0.07323482  1
  O  O601  1  0.07274737  0.18517520  0.32347895  1
  O  O602  1  0.07402960  0.18594605  0.57509083  1
  O  O603  1  0.07326791  0.18491891  0.82509071  1
  O  O604  1  0.07367372  0.52107284  0.07457222  1
  O  O605  1  0.07224135  0.51943184  0.32313042  1
  O  O606  1  0.07181009  0.51974070  0.57359126  1
  O  O607  1  0.07325919  0.52093430  0.82447735  1
  O  O608  1  0.07246503  0.85270854  0.07264125  1
  O  O609  1  0.07412984  0.85216210  0.32488034  1
  O  O610  1  0.07418281  0.85256776  0.57623427  1
  O  O611  1  0.07301169  0.85244666  0.82395078  1
  O  O612  1  0.57398551  0.18740285  0.07558447  1
  O  O613  1  0.57238590  0.18829143  0.32608638  1
  O  O614  1  0.57106642  0.18655954  0.57378889  1
  O  O615  1  0.57315914  0.18760720  0.82384054  1
  O  O616  1  0.57210608  0.52159393  0.07484952  1
  O  O617  1  0.57280089  0.52114413  0.32462422  1
  O  O618  1  0.57287185  0.51876616  0.57492773  1
  O  O619  1  0.57198388  0.51998982  0.82401390  1
  O  O620  1  0.57385720  0.85446090  0.07409434  1
  O  O621  1  0.57308446  0.85274161  0.32474235  1
  O  O622  1  0.57286466  0.85421506  0.57567025  1
  O  O623  1  0.57156695  0.85284705  0.82357674  1
  O  O624  1  0.32385492  0.18635169  0.04994249  1
  O  O625  1  0.32320731  0.18491941  0.30221846  1
  O  O626  1  0.32361611  0.18743873  0.55109060  1
  O  O627  1  0.32289373  0.18488288  0.79981198  1
  O  O628  1  0.32304996  0.52163050  0.05007362  1
  O  O629  1  0.32267758  0.52096304  0.30095413  1
  O  O630  1  0.32110828  0.51978751  0.55216884  1
  O  O631  1  0.32202212  0.52079471  0.79963991  1
  O  O632  1  0.32429820  0.85259708  0.04945766  1
  O  O633  1  0.32289182  0.85089424  0.30158891  1
  O  O634  1  0.32199518  0.85226002  0.55199880  1
  O  O635  1  0.32302424  0.85095167  0.79962733  1
  O  O636  1  0.82375928  0.18700733  0.04961509  1
  O  O637  1  0.82377318  0.18716812  0.29952523  1
  O  O638  1  0.82359960  0.18550945  0.55126510  1
  O  O639  1  0.82309162  0.18460742  0.80117123  1
  O  O640  1  0.82279175  0.51926374  0.05020326  1
  O  O641  1  0.82356281  0.52030158  0.29976799  1
  O  O642  1  0.82373297  0.52053612  0.55022696  1
  O  O643  1  0.82252389  0.51951056  0.80184937  1
  O  O644  1  0.82401473  0.85329359  0.04920635  1
  O  O645  1  0.82358660  0.85183149  0.30113629  1
  O  O646  1  0.82376602  0.85410725  0.55137512  1
  O  O647  1  0.82328717  0.85241560  0.80085986  1
  O  O648  1  0.17569551  0.14555690  0.19990384  1
  O  O649  1  0.17753381  0.14761144  0.45015274  1
  O  O650  1  0.17685099  0.14476386  0.69983095  1
  O  O651  1  0.17742505  0.14750396  0.94815206  1
  O  O652  1  0.17581674  0.48029017  0.20026531  1
  O  O653  1  0.17618844  0.48058379  0.45142825  1
  O  O654  1  0.17820957  0.48051480  0.69808641  1
  O  O655  1  0.17570016  0.48095641  0.94987180  1
  O  O656  1  0.17702473  0.81187184  0.19928196  1
  O  O657  1  0.17788039  0.81339534  0.44896154  1
  O  O658  1  0.17916117  0.81359647  0.69755712  1
  O  O659  1  0.17817808  0.81357866  0.94750870  1
  O  O660  1  0.67567146  0.14672691  0.20034217  1
  O  O661  1  0.67640187  0.14691176  0.45094209  1
  O  O662  1  0.67794014  0.14675582  0.69781042  1
  O  O663  1  0.67673583  0.14856899  0.94841221  1
  O  O664  1  0.67627215  0.48218112  0.19877338  1
  O  O665  1  0.67571770  0.48019171  0.45047873  1
  O  O666  1  0.67618649  0.48039872  0.70057210  1
  O  O667  1  0.67626883  0.48188834  0.94836593  1
  O  O668  1  0.67633096  0.81412090  0.19946082  1
  O  O669  1  0.67694606  0.81583532  0.44958551  1
  O  O670  1  0.67631903  0.81350283  0.70117343  1
  O  O671  1  0.67747291  0.81392922  0.94787497  1
