# generated using pymatgen
data_Na2MnFe(PO4)2
_symmetry_space_group_name_H-M   'P 1'
_cell_length_a   22.34502723
_cell_length_b   20.09875099
_cell_length_c   19.44828747
_cell_angle_alpha   90.00991801
_cell_angle_beta   90.01292760
_cell_angle_gamma   89.99824051
_symmetry_Int_Tables_number   1
_chemical_formula_structural   Na2MnFe(PO4)2
_chemical_formula_sum   'Na96 Mn48 Fe48 P96 O384'
_cell_volume   8734.36437275
_cell_formula_units_Z   48
loop_
 _symmetry_equiv_pos_site_id
 _symmetry_equiv_pos_as_xyz
  1  'x, y, z'
loop_
 _atom_site_type_symbol
 _atom_site_label
 _atom_site_symmetry_multiplicity
 _atom_site_fract_x
 _atom_site_fract_y
 _atom_site_fract_z
 _atom_site_occupancy
  Na  Na0  1  0.13961408  0.25006389  0.24272674  1
  Na  Na1  1  0.13942818  0.24985069  0.49333983  1
  Na  Na2  1  0.13952906  0.24948657  0.74412573  1
  Na  Na3  1  0.14000632  0.25034779  0.99366741  1
  Na  Na4  1  0.14050745  0.58371328  0.24293114  1
  Na  Na5  1  0.13983445  0.58327419  0.49437857  1
  Na  Na6  1  0.13977268  0.58202994  0.74456997  1
  Na  Na7  1  0.14004253  0.58323223  0.99451584  1
  Na  Na8  1  0.13979632  0.91709377  0.24276445  1
  Na  Na9  1  0.13943291  0.91669797  0.49270592  1
  Na  Na10  1  0.14063472  0.91627975  0.74382948  1
  Na  Na11  1  0.14064459  0.91714216  0.99524817  1
  Na  Na12  1  0.64095969  0.25007428  0.24373518  1
  Na  Na13  1  0.64022060  0.25043570  0.49410028  1
  Na  Na14  1  0.64031214  0.25049077  0.74270657  1
  Na  Na15  1  0.64079402  0.25037108  0.99425954  1
  Na  Na16  1  0.64085448  0.58363780  0.24258445  1
  Na  Na17  1  0.64037999  0.58351673  0.49308233  1
  Na  Na18  1  0.64075781  0.58397182  0.74288133  1
  Na  Na19  1  0.64044226  0.58353786  0.99420838  1
  Na  Na20  1  0.64078142  0.91540124  0.24232450  1
  Na  Na21  1  0.64034877  0.91603173  0.49377106  1
  Na  Na22  1  0.64085789  0.91629745  0.74332496  1
  Na  Na23  1  0.64103175  0.91629083  0.99478609  1
  Na  Na24  1  0.35922937  0.08355339  0.00585475  1
  Na  Na25  1  0.36006804  0.08384199  0.25581388  1
  Na  Na26  1  0.35942390  0.08275719  0.50448516  1
  Na  Na27  1  0.35947545  0.08340421  0.75672931  1
  Na  Na28  1  0.35917661  0.41717319  0.00624046  1
  Na  Na29  1  0.35977677  0.41670107  0.25526554  1
  Na  Na30  1  0.36022513  0.41725280  0.50645330  1
  Na  Na31  1  0.35962023  0.41628576  0.75573564  1
  Na  Na32  1  0.35983512  0.74978637  0.00660614  1
  Na  Na33  1  0.36054709  0.75071366  0.25579875  1
  Na  Na34  1  0.35996735  0.75027989  0.50549428  1
  Na  Na35  1  0.35959414  0.74940895  0.75598288  1
  Na  Na36  1  0.85943958  0.08405007  0.00703632  1
  Na  Na37  1  0.86005394  0.08272285  0.25776969  1
  Na  Na38  1  0.85956740  0.08298182  0.50708382  1
  Na  Na39  1  0.85959702  0.08411147  0.75586217  1
  Na  Na40  1  0.85971646  0.41722642  0.00763499  1
  Na  Na41  1  0.85994897  0.41627907  0.25645260  1
  Na  Na42  1  0.85963845  0.41623494  0.50850831  1
  Na  Na43  1  0.85968412  0.41659020  0.75734047  1
  Na  Na44  1  0.85925267  0.74965210  0.00768783  1
  Na  Na45  1  0.86054412  0.74986816  0.25654857  1
  Na  Na46  1  0.85975325  0.74992107  0.50620223  1
  Na  Na47  1  0.85942916  0.74978463  0.75489092  1
  Na  Na48  1  0.10940857  0.08481891  0.11872210  1
  Na  Na49  1  0.10869151  0.08306061  0.36733734  1
  Na  Na50  1  0.10891220  0.08416996  0.61871818  1
  Na  Na51  1  0.10972650  0.08426135  0.86816588  1
  Na  Na52  1  0.10934796  0.41584556  0.11827738  1
  Na  Na53  1  0.10911027  0.41646175  0.36911399  1
  Na  Na54  1  0.10890847  0.41647091  0.61992098  1
  Na  Na55  1  0.10885243  0.41591629  0.86940850  1
  Na  Na56  1  0.10997328  0.74957269  0.11912813  1
  Na  Na57  1  0.10912767  0.75111998  0.36796634  1
  Na  Na58  1  0.10924379  0.74976466  0.61796755  1
  Na  Na59  1  0.10922597  0.74864893  0.86977777  1
  Na  Na60  1  0.61024459  0.08255495  0.11958092  1
  Na  Na61  1  0.60946936  0.08262506  0.36809526  1
  Na  Na62  1  0.60938229  0.08498546  0.61932247  1
  Na  Na63  1  0.61022087  0.08307626  0.86848480  1
  Na  Na64  1  0.61019417  0.41725975  0.11817628  1
  Na  Na65  1  0.61038573  0.41634847  0.36907880  1
  Na  Na66  1  0.60976645  0.41773864  0.61705969  1
  Na  Na67  1  0.60960582  0.41655690  0.86887727  1
  Na  Na68  1  0.61066659  0.74890170  0.11842392  1
  Na  Na69  1  0.60999671  0.75031287  0.36798266  1
  Na  Na70  1  0.61004606  0.75009816  0.61797497  1
  Na  Na71  1  0.61050251  0.74897568  0.86893025  1
  Na  Na72  1  0.39007286  0.24928869  0.13129147  1
  Na  Na73  1  0.39067080  0.25042036  0.37961338  1
  Na  Na74  1  0.39050113  0.25057136  0.63078560  1
  Na  Na75  1  0.39028141  0.24933284  0.88169461  1
  Na  Na76  1  0.39056778  0.58456617  0.13070569  1
  Na  Na77  1  0.39106578  0.58342149  0.38097438  1
  Na  Na78  1  0.39049322  0.58462999  0.63057899  1
  Na  Na79  1  0.39039883  0.58323905  0.88140306  1
  Na  Na80  1  0.39106301  0.91596938  0.13250542  1
  Na  Na81  1  0.39046212  0.91645158  0.37969171  1
  Na  Na82  1  0.39033787  0.91754095  0.63113055  1
  Na  Na83  1  0.39061797  0.91572719  0.88080218  1
  Na  Na84  1  0.89056683  0.25052418  0.13228595  1
  Na  Na85  1  0.89020631  0.25031046  0.38237073  1
  Na  Na86  1  0.88990156  0.25124920  0.63268372  1
  Na  Na87  1  0.88982807  0.25046447  0.88106359  1
  Na  Na88  1  0.89025421  0.58271104  0.13248355  1
  Na  Na89  1  0.89081328  0.58357569  0.38182676  1
  Na  Na90  1  0.88978893  0.58249827  0.63211513  1
  Na  Na91  1  0.88961911  0.58239328  0.88194995  1
  Na  Na92  1  0.89042056  0.91673502  0.13391239  1
  Na  Na93  1  0.89032185  0.91610017  0.38089809  1
  Na  Na94  1  0.89053099  0.91693348  0.63021009  1
  Na  Na95  1  0.89035418  0.91680482  0.88117290  1
  Mn  Mn96  1  0.24902147  0.83347039  0.87525807  1
  Mn  Mn97  1  -0.00100577  0.66519003  0.00017578  1
  Mn  Mn98  1  0.50027242  0.00003260  0.75008816  1
  Mn  Mn99  1  -0.00062478  0.16723293  0.49972767  1
  Mn  Mn100  1  0.50066532  0.83298503  0.49944737  1
  Mn  Mn101  1  0.74934746  0.33322872  0.87524451  1
  Mn  Mn102  1  0.74957044  -0.00019695  0.62519558  1
  Mn  Mn103  1  -0.00083242  0.16781933  0.00000589  1
  Mn  Mn104  1  0.49992074  0.33318800  0.24910507  1
  Mn  Mn105  1  0.74946646  0.50088581  0.87546113  1
  Mn  Mn106  1  0.25009078  0.33319034  0.37458766  1
  Mn  Mn107  1  0.24928825  0.66606752  0.87574475  1
  Mn  Mn108  1  0.25013260  0.33297040  0.87521075  1
  Mn  Mn109  1  0.74969998  0.16719515  0.37575758  1
  Mn  Mn110  1  0.50014746  0.00021999  0.49991523  1
  Mn  Mn111  1  0.24991454  0.66733941  0.37442022  1
  Mn  Mn112  1  0.75075819  0.00081464  0.87458836  1
  Mn  Mn113  1  0.75074325  0.49940174  0.37473678  1
  Mn  Mn114  1  0.75044003  0.16694176  0.12597361  1
  Mn  Mn115  1  0.75065528  0.66713861  0.37457220  1
  Mn  Mn116  1  0.49901803  0.16755313  0.49898032  1
  Mn  Mn117  1  0.50009913  0.50047152  0.74904576  1
  Mn  Mn118  1  0.00004010  0.83281082  0.00078732  1
  Mn  Mn119  1  0.24994430  0.50029499  0.12507881  1
  Mn  Mn120  1  0.75069068  0.83262306  0.87500897  1
  Mn  Mn121  1  0.00041812  0.00078685  0.74981560  1
  Mn  Mn122  1  0.24886447  -0.00031215  0.62494506  1
  Mn  Mn123  1  0.24927977  0.83421687  0.37524082  1
  Mn  Mn124  1  0.50063189  0.33339915  -0.00015582  1
  Mn  Mn125  1  0.25039136  0.83265368  0.62479696  1
  Mn  Mn126  1  0.50020521  0.50068379  0.24951290  1
  Mn  Mn127  1  0.25023991  0.00071532  0.12405949  1
  Mn  Mn128  1  0.24979205  0.33271798  0.62535449  1
  Mn  Mn129  1  0.00005069  0.83342228  0.74968836  1
  Mn  Mn130  1  0.25026168  0.50019099  0.37458295  1
  Mn  Mn131  1  0.50033211  -0.00089390  -0.00020186  1
  Mn  Mn132  1  0.50036049  0.16589403  0.00015959  1
  Mn  Mn133  1  0.24953214  0.16584986  0.62448849  1
  Mn  Mn134  1  -0.00082923  0.66529023  0.74958633  1
  Mn  Mn135  1  0.25035445  0.16628471  0.37388661  1
  Mn  Mn136  1  0.24940126  0.50048188  0.62537384  1
  Mn  Mn137  1  -0.00012731  0.66642903  0.50027357  1
  Mn  Mn138  1  0.50105005  0.83195862  0.00110583  1
  Mn  Mn139  1  0.74970317  -0.00135748  0.37609121  1
  Mn  Mn140  1  0.49921305  0.33344078  0.74945222  1
  Mn  Mn141  1  0.00012104  0.49949669  0.25089822  1
  Mn  Mn142  1  0.50090933  0.66746668  0.75005527  1
  Mn  Mn143  1  -0.00015516  0.00044347  0.00047440  1
  Fe  Fe144  1  0.49977817  0.50049841  -0.00056776  1
  Fe  Fe145  1  0.24946164  0.66627121  0.62548574  1
  Fe  Fe146  1  0.74997827  0.50009645  0.12520389  1
  Fe  Fe147  1  0.75002789  0.50017534  0.62513995  1
  Fe  Fe148  1  0.50113784  0.66628724  0.24985745  1
  Fe  Fe149  1  0.50065477  0.83238074  0.25021455  1
  Fe  Fe150  1  0.49988699  0.66661319  -0.00020100  1
  Fe  Fe151  1  0.50034040  -0.00043126  0.24999628  1
  Fe  Fe152  1  0.50086750  0.16638316  0.25004893  1
  Fe  Fe153  1  -0.00020175  0.49948468  0.50060292  1
  Fe  Fe154  1  0.49964996  0.66712973  0.49927658  1
  Fe  Fe155  1  -0.00049824  0.49904367  0.75094895  1
  Fe  Fe156  1  -0.00033104  0.00018384  0.49895285  1
  Fe  Fe157  1  0.75049487  -0.00010064  0.12524796  1
  Fe  Fe158  1  0.24964170  0.33333727  0.12425286  1
  Fe  Fe159  1  -0.00027112  0.16714983  0.25045779  1
  Fe  Fe160  1  0.75048415  0.33374754  0.12514864  1
  Fe  Fe161  1  -0.00074856  0.33402121  0.75065986  1
  Fe  Fe162  1  -0.00030166  0.33369136  0.50109544  1
  Fe  Fe163  1  0.24981821  0.16666228  0.87517088  1
  Fe  Fe164  1  0.50037470  0.33367944  0.49932246  1
  Fe  Fe165  1  0.74995243  0.83270451  0.37440986  1
  Fe  Fe166  1  0.74970058  0.16679772  0.62531734  1
  Fe  Fe167  1  -0.00037944  0.00007129  0.25035830  1
  Fe  Fe168  1  0.74978441  0.16710454  0.87558693  1
  Fe  Fe169  1  0.75074955  0.83296887  0.12461773  1
  Fe  Fe170  1  0.25068005  0.83386834  0.12470550  1
  Fe  Fe171  1  0.24968714  0.00019340  0.37383318  1
  Fe  Fe172  1  -0.00032028  0.33320906  -0.00001726  1
  Fe  Fe173  1  0.24998098  0.49994012  0.87535227  1
  Fe  Fe174  1  -0.00016041  0.83392776  0.49882753  1
  Fe  Fe175  1  0.75026764  0.66673966  0.87484076  1
  Fe  Fe176  1  0.00072824  0.66639954  0.25074562  1
  Fe  Fe177  1  0.24966562  0.16671292  0.12446425  1
  Fe  Fe178  1  0.00037136  0.83327717  0.25034089  1
  Fe  Fe179  1  0.75079153  0.66650035  0.12525750  1
  Fe  Fe180  1  -0.00015232  0.49904160  0.00110417  1
  Fe  Fe181  1  -0.00083744  0.16760781  0.74941890  1
  Fe  Fe182  1  0.75032801  0.33343865  0.37598905  1
  Fe  Fe183  1  0.75026625  0.83286159  0.62480572  1
  Fe  Fe184  1  0.50024707  0.83311498  0.74987581  1
  Fe  Fe185  1  -0.00041636  0.33353289  0.25064731  1
  Fe  Fe186  1  0.50023315  0.50074406  0.49889263  1
  Fe  Fe187  1  0.74962796  0.66681844  0.62445175  1
  Fe  Fe188  1  0.25065569  0.66710019  0.12466603  1
  Fe  Fe189  1  0.74986260  0.33321522  0.62575872  1
  Fe  Fe190  1  0.49982711  0.16707420  0.74950672  1
  Fe  Fe191  1  0.25030178  0.00001121  0.87537542  1
  P  P192  1  0.04168887  0.25156780  0.10325744  1
  P  P193  1  0.04102628  0.25054620  0.35207562  1
  P  P194  1  0.04139271  0.25138296  0.60325945  1
  P  P195  1  0.04056497  0.25061074  0.85167685  1
  P  P196  1  0.04190498  0.58189960  0.10351173  1
  P  P197  1  0.04242024  0.58415349  0.35311207  1
  P  P198  1  0.04153805  0.58110303  0.60315744  1
  P  P199  1  0.04144882  0.58096560  0.85332909  1
  P  P200  1  0.04217024  0.91686919  0.10460304  1
  P  P201  1  0.04095730  0.91674107  0.35194394  1
  P  P202  1  0.04115333  0.91725141  0.60078530  1
  P  P203  1  0.04299368  0.91675160  0.85317374  1
  P  P204  1  0.54307438  0.24932431  0.10349872  1
  P  P205  1  0.54249701  0.24950329  0.35226207  1
  P  P206  1  0.54194189  0.25139669  0.60218178  1
  P  P207  1  0.54241999  0.24898191  0.85202549  1
  P  P208  1  0.54166464  0.58380306  0.10137146  1
  P  P209  1  0.54283064  0.58444225  0.35278547  1
  P  P210  1  0.54151057  0.58423868  0.60062723  1
  P  P211  1  0.54290372  0.58316970  0.85346062  1
  P  P212  1  0.54293598  0.91624677  0.10446309  1
  P  P213  1  0.54196481  0.91637085  0.35120024  1
  P  P214  1  0.54282711  0.91652665  0.60342811  1
  P  P215  1  0.54296658  0.91476183  0.85239092  1
  P  P216  1  0.45900466  0.08294758  0.14865939  1
  P  P217  1  0.45756786  0.08297588  0.39534460  1
  P  P218  1  0.45747117  0.08480274  0.64742264  1
  P  P219  1  0.45749284  0.08290015  0.89639243  1
  P  P220  1  0.45751426  0.41755134  0.14584729  1
  P  P221  1  0.45885129  0.41677718  0.39783434  1
  P  P222  1  0.45740182  0.41735882  0.64519604  1
  P  P223  1  0.45763472  0.41764000  0.89744433  1
  P  P224  1  0.45950109  0.74887110  0.14830203  1
  P  P225  1  0.45825666  0.74891279  0.39620442  1
  P  P226  1  0.45786909  0.75121479  0.64708974  1
  P  P227  1  0.45798324  0.74907583  0.89746181  1
  P  P228  1  0.95854309  0.08395318  0.14912583  1
  P  P229  1  0.95737798  0.08236929  0.39674466  1
  P  P230  1  0.95746486  0.08488756  0.64698654  1
  P  P231  1  0.95708721  0.08416685  0.89664100  1
  P  P232  1  0.95799804  0.41536661  0.14769764  1
  P  P233  1  0.95824977  0.41637726  0.39908036  1
  P  P234  1  0.95802906  0.41686264  0.64855396  1
  P  P235  1  0.95786097  0.41649031  0.89861786  1
  P  P236  1  0.95916705  0.74958183  0.14915323  1
  P  P237  1  0.95838217  0.75106876  0.39673131  1
  P  P238  1  0.95746932  0.75010235  0.64597241  1
  P  P239  1  0.95659024  0.74938752  0.89719994  1
  P  P240  1  0.20772806  0.08437940  0.22696519  1
  P  P241  1  0.20682865  0.08197689  0.47627230  1
  P  P242  1  0.20684741  0.08319687  0.72910988  1
  P  P243  1  0.20822415  0.08365800  0.97672059  1
  P  P244  1  0.20749625  0.41549692  0.22690389  1
  P  P245  1  0.20712064  0.41692634  0.47809711  1
  P  P246  1  0.20705781  0.41647327  0.72899550  1
  P  P247  1  0.20788260  0.41749705  0.97786123  1
  P  P248  1  0.20904126  0.75064781  0.22606395  1
  P  P249  1  0.20671823  0.74977468  0.47843207  1
  P  P250  1  0.20700866  0.74840561  0.72757071  1
  P  P251  1  0.20703053  0.75014510  0.97946507  1
  P  P252  1  0.70842278  0.08181274  0.22793064  1
  P  P253  1  0.70711070  0.08350945  0.47889034  1
  P  P254  1  0.70775972  0.08498476  0.72794668  1
  P  P255  1  0.70820406  0.08428125  0.97812992  1
  P  P256  1  0.70877181  0.41642548  0.22686678  1
  P  P257  1  0.70851660  0.41574705  0.47848692  1
  P  P258  1  0.70852868  0.41703110  0.72657493  1
  P  P259  1  0.70750974  0.41701982  0.97907367  1
  P  P260  1  0.70959571  0.74998290  0.22646723  1
  P  P261  1  0.70821500  0.75091897  0.47770530  1
  P  P262  1  0.70852683  0.74958996  0.72651000  1
  P  P263  1  0.70874980  0.74837709  0.97825728  1
  P  P264  1  0.29119052  0.24950944  0.02282458  1
  P  P265  1  0.29251464  0.25015093  0.27006337  1
  P  P266  1  0.29282475  0.24948157  0.52148856  1
  P  P267  1  0.29222143  0.24849431  0.77273161  1
  P  P268  1  0.29213023  0.58422398  0.02231106  1
  P  P269  1  0.29310460  0.58405874  0.27103368  1
  P  P270  1  0.29230870  0.58487724  0.52258211  1
  P  P271  1  0.29209945  0.58222541  0.77260746  1
  P  P272  1  0.29300411  0.91616521  0.02218132  1
  P  P273  1  0.29173773  0.91774986  0.27153655  1
  P  P274  1  0.29256558  0.91707762  0.52125772  1
  P  P275  1  0.29221890  0.91741546  0.77281155  1
  P  P276  1  0.79235839  0.25113326  0.02300315  1
  P  P277  1  0.79213562  0.25174810  0.27310333  1
  P  P278  1  0.79129471  0.25022997  0.52404394  1
  P  P279  1  0.79149425  0.24888072  0.77223255  1
  P  P280  1  0.79164973  0.58348873  0.02361958  1
  P  P281  1  0.79296138  0.58329207  0.27124545  1
  P  P282  1  0.79137334  0.58340148  0.52346241  1
  P  P283  1  0.79170985  0.58473368  0.77184581  1
  P  P284  1  0.79216824  0.91694801  0.02369874  1
  P  P285  1  0.79195848  0.91512916  0.27192889  1
  P  P286  1  0.79195068  0.91489576  0.52235954  1
  P  P287  1  0.79277635  0.91625502  0.77141343  1
  O  O288  1  0.03657510  0.25140283  0.18311582  1
  O  O289  1  0.03631226  0.25030420  0.43202552  1
  O  O290  1  0.03610835  0.25082617  0.68309727  1
  O  O291  1  0.03562264  0.25110166  0.93164831  1
  O  O292  1  0.03690536  0.58277811  0.18348138  1
  O  O293  1  0.03707279  0.58377141  0.43298996  1
  O  O294  1  0.03608897  0.58082020  0.68309122  1
  O  O295  1  0.03614141  0.58097474  0.93330664  1
  O  O296  1  0.03679809  0.91676031  0.18453086  1
  O  O297  1  0.03582869  0.91696573  0.43185085  1
  O  O298  1  0.03619008  0.91719233  0.68076559  1
  O  O299  1  0.03789798  0.91675862  0.93316107  1
  O  O300  1  0.53784239  0.24893974  0.18344174  1
  O  O301  1  0.53689605  0.25037726  0.43218527  1
  O  O302  1  0.53652909  0.25071821  0.68211424  1
  O  O303  1  0.53767906  0.24933968  0.93205607  1
  O  O304  1  0.53700286  0.58417872  0.18138763  1
  O  O305  1  0.53717351  0.58436086  0.43260578  1
  O  O306  1  0.53705882  0.58404267  0.68062389  1
  O  O307  1  0.53748859  0.58305633  0.93334726  1
  O  O308  1  0.53743540  0.91651187  0.18434537  1
  O  O309  1  0.53733726  0.91627689  0.43123059  1
  O  O310  1  0.53755411  0.91589237  0.68335019  1
  O  O311  1  0.53786666  0.91483895  0.93241968  1
  O  O312  1  0.46396374  0.08261203  0.06865337  1
  O  O313  1  0.46342033  0.08279712  0.31548470  1
  O  O314  1  0.46251835  0.08461534  0.56741558  1
  O  O315  1  0.46242682  0.08353827  0.81644240  1
  O  O316  1  0.46279615  0.41799977  0.06593837  1
  O  O317  1  0.46353325  0.41702039  0.31780638  1
  O  O318  1  0.46275050  0.41714416  0.56528465  1
  O  O319  1  0.46238749  0.41733854  0.81740663  1
  O  O320  1  0.46413744  0.74865804  0.06832836  1
  O  O321  1  0.46393515  0.74897026  0.31635860  1
  O  O322  1  0.46293684  0.75048820  0.56713390  1
  O  O323  1  0.46298224  0.75001714  0.81750444  1
  O  O324  1  0.96282647  0.08393629  0.06909563  1
  O  O325  1  0.96269971  0.08277704  0.31687138  1
  O  O326  1  0.96263940  0.08439446  0.56704760  1
  O  O327  1  0.96227381  0.08459907  0.81670070  1
  O  O328  1  0.96326846  0.41565127  0.06785428  1
  O  O329  1  0.96323021  0.41583295  0.31913454  1
  O  O330  1  0.96291081  0.41679611  0.56869847  1
  O  O331  1  0.96289272  0.41675870  0.81871445  1
  O  O332  1  0.96357105  0.74908266  0.06912907  1
  O  O333  1  0.96412379  0.75077796  0.31685842  1
  O  O334  1  0.96287103  0.75052963  0.56603230  1
  O  O335  1  0.96165471  0.74924228  0.81721333  1
  O  O336  1  0.21361125  0.08430176  0.05669386  1
  O  O337  1  0.21293308  0.08343101  0.30685309  1
  O  O338  1  0.21144644  0.08214201  0.55630197  1
  O  O339  1  0.21225393  0.08326366  0.80902912  1
  O  O340  1  0.21342349  0.41665962  0.05777726  1
  O  O341  1  0.21239982  0.41583668  0.30690621  1
  O  O342  1  0.21200578  0.41688339  0.55810681  1
  O  O343  1  0.21251426  0.41703287  0.80893720  1
  O  O344  1  0.21291391  0.75025478  0.05933297  1
  O  O345  1  0.21363790  0.75089739  0.30609651  1
  O  O346  1  0.21179302  0.74931633  0.55840654  1
  O  O347  1  0.21176289  0.74874717  0.80760345  1
  O  O348  1  0.71388103  0.08340031  0.05807199  1
  O  O349  1  0.71313201  0.08183191  0.30790230  1
  O  O350  1  0.71239973  0.08397888  0.55882657  1
  O  O351  1  0.71326305  0.08514071  0.80789974  1
  O  O352  1  0.71292992  0.41670569  0.05893446  1
  O  O353  1  0.71366096  0.41646383  0.30684568  1
  O  O354  1  0.71371257  0.41625033  0.55835552  1
  O  O355  1  0.71281963  0.41727254  0.80661555  1
  O  O356  1  0.71435557  0.74832016  0.05810844  1
  O  O357  1  0.71418277  0.75062577  0.30644624  1
  O  O358  1  0.71346977  0.75068481  0.55759006  1
  O  O359  1  0.71352451  0.74934428  0.80649603  1
  O  O360  1  0.28714744  0.25036931  0.19012951  1
  O  O361  1  0.28804251  0.24962771  0.44145945  1
  O  O362  1  0.28714799  0.24866966  0.69276156  1
  O  O363  1  0.28625212  0.24900170  0.94280780  1
  O  O364  1  0.28796966  0.58446347  0.19107052  1
  O  O365  1  0.28745481  0.58453092  0.44256404  1
  O  O366  1  0.28668460  0.58315317  0.69265081  1
  O  O367  1  0.28673139  0.58334468  0.94239987  1
  O  O368  1  0.28671479  0.91702774  0.19156755  1
  O  O369  1  0.28737102  0.91757648  0.44125225  1
  O  O370  1  0.28696283  0.91693061  0.69283669  1
  O  O371  1  0.28754035  0.91656243  0.94227457  1
  O  O372  1  0.78706708  0.25186804  0.19316916  1
  O  O373  1  0.78659309  0.25090041  0.44403781  1
  O  O374  1  0.78623114  0.24902595  0.69234403  1
  O  O375  1  0.78685376  0.25025711  0.94310837  1
  O  O376  1  0.78771812  0.58346058  0.19136246  1
  O  O377  1  0.78700221  0.58278832  0.44344620  1
  O  O378  1  0.78620243  0.58451666  0.69197673  1
  O  O379  1  0.78686318  0.58353084  0.94363631  1
  O  O380  1  0.78679634  0.91589374  0.19202310  1
  O  O381  1  0.78667360  0.91461760  0.44240540  1
  O  O382  1  0.78723321  0.91587317  0.69151553  1
  O  O383  1  0.78766941  0.91665646  0.94367006  1
  O  O384  1  0.22700453  0.24917721  0.05868618  1
  O  O385  1  0.22827986  0.24993936  0.30576083  1
  O  O386  1  0.22821851  0.24951313  0.55613854  1
  O  O387  1  0.22786491  0.24871908  0.80813226  1
  O  O388  1  0.22797577  0.58488281  0.05817558  1
  O  O389  1  0.22863576  0.58347604  0.30604250  1
  O  O390  1  0.22784666  0.58513518  0.55784421  1
  O  O391  1  0.22782232  0.58129482  0.80838806  1
  O  O392  1  0.22873689  0.91569040  0.05790890  1
  O  O393  1  0.22745661  0.91824363  0.30724143  1
  O  O394  1  0.22812911  0.91611194  0.55632380  1
  O  O395  1  0.22792099  0.91841441  0.80842821  1
  O  O396  1  0.72821238  0.25128298  0.05897679  1
  O  O397  1  0.72785801  0.25198161  0.30879628  1
  O  O398  1  0.72706381  0.24990445  0.55972982  1
  O  O399  1  0.72736209  0.24846514  0.80839677  1
  O  O400  1  0.72750105  0.58412157  0.05953238  1
  O  O401  1  0.72874763  0.58316027  0.30689084  1
  O  O402  1  0.72708288  0.58394994  0.55888642  1
  O  O403  1  0.72761502  0.58521243  0.80812260  1
  O  O404  1  0.72790335  0.91723649  0.05917366  1
  O  O405  1  0.72777995  0.91441946  0.30804363  1
  O  O406  1  0.72776192  0.91511724  0.55812996  1
  O  O407  1  0.72865922  0.91653309  0.80722093  1
  O  O408  1  0.27198614  0.08513290  0.19123443  1
  O  O409  1  0.27138153  0.08161296  0.44130355  1
  O  O410  1  0.27110945  0.08296382  0.69344072  1
  O  O411  1  0.27232356  0.08352892  0.94051635  1
  O  O412  1  0.27186425  0.41571203  0.19172743  1
  O  O413  1  0.27167151  0.41680211  0.44326369  1
  O  O414  1  0.27130003  0.41658705  0.69343716  1
  O  O415  1  0.27199996  0.41785988  0.94174405  1
  O  O416  1  0.27333448  0.75057481  0.19050724  1
  O  O417  1  0.27114149  0.75054666  0.44334416  1
  O  O418  1  0.27149116  0.74806199  0.69237697  1
  O  O419  1  0.27113392  0.75008546  0.94349824  1
  O  O420  1  0.77275522  0.08204788  0.19254557  1
  O  O421  1  0.77142359  0.08318424  0.44356689  1
  O  O422  1  0.77190706  0.08463715  0.69199033  1
  O  O423  1  0.77236046  0.08515805  0.94206190  1
  O  O424  1  0.77291998  0.41641612  0.19095324  1
  O  O425  1  0.77270805  0.41529440  0.44242312  1
  O  O426  1  0.77284918  0.41667185  0.69135169  1
  O  O427  1  0.77160150  0.41698781  0.94311577  1
  O  O428  1  0.77378180  0.74925413  0.19074946  1
  O  O429  1  0.77241782  0.75176183  0.44168380  1
  O  O430  1  0.77262387  0.74894622  0.69039193  1
  O  O431  1  0.77278461  0.74817354  0.94188068  1
  O  O432  1  0.02277156  0.08407967  0.18455443  1
  O  O433  1  0.02151591  0.08240454  0.43287240  1
  O  O434  1  0.02168548  0.08561419  0.68285678  1
  O  O435  1  0.02142170  0.08420587  0.93204047  1
  O  O436  1  0.02214284  0.41508177  0.18382895  1
  O  O437  1  0.02246760  0.41701025  0.43494540  1
  O  O438  1  0.02210416  0.41701394  0.68482376  1
  O  O439  1  0.02197303  0.41632156  0.93499432  1
  O  O440  1  0.02343913  0.75025252  0.18467674  1
  O  O441  1  0.02231857  0.75091103  0.43319249  1
  O  O442  1  0.02162299  0.74931707  0.68174055  1
  O  O443  1  0.02104465  0.74895159  0.93221454  1
  O  O444  1  0.52320782  0.08284496  0.18445694  1
  O  O445  1  0.52164519  0.08354971  0.43145981  1
  O  O446  1  0.52181777  0.08494571  0.68292838  1
  O  O447  1  0.52198005  0.08264858  0.93138714  1
  O  O448  1  0.52182118  0.41712312  0.18129056  1
  O  O449  1  0.52305342  0.41635223  0.43358199  1
  O  O450  1  0.52165034  0.41673844  0.68092711  1
  O  O451  1  0.52207546  0.41779756  0.93255847  1
  O  O452  1  0.52373011  0.74857406  0.18406664  1
  O  O453  1  0.52236280  0.74830783  0.43248630  1
  O  O454  1  0.52229353  0.75197954  0.68261508  1
  O  O455  1  0.52237857  0.74797826  0.93292337  1
  O  O456  1  0.47872865  0.24972005  0.06819303  1
  O  O457  1  0.47835183  0.24855371  0.31624171  1
  O  O458  1  0.47774940  0.25241663  0.56624299  1
  O  O459  1  0.47790663  0.24870640  0.81694020  1
  O  O460  1  0.47746356  0.58409376  0.06542286  1
  O  O461  1  0.47868919  0.58514907  0.31657725  1
  O  O462  1  0.47727499  0.58454651  0.56498884  1
  O  O463  1  0.47865387  0.58374914  0.81779490  1
  O  O464  1  0.47876978  0.91587534  0.06858104  1
  O  O465  1  0.47774136  0.91655922  0.31562683  1
  O  O466  1  0.47855799  0.91646733  0.56790042  1
  O  O467  1  0.47861459  0.91481870  0.81689303  1
  O  O468  1  0.97746014  0.25210917  0.06728890  1
  O  O469  1  0.97678526  0.25083496  0.31632718  1
  O  O470  1  0.97723730  0.25145660  0.56713984  1
  O  O471  1  0.97646478  0.25017893  0.81561099  1
  O  O472  1  0.97758440  0.58096827  0.06788219  1
  O  O473  1  0.97817512  0.58417207  0.31738757  1
  O  O474  1  0.97738816  0.58130209  0.56710510  1
  O  O475  1  0.97722587  0.58111941  0.81744649  1
  O  O476  1  0.97793938  0.91682161  0.06885320  1
  O  O477  1  0.97698484  0.91576375  0.31556196  1
  O  O478  1  0.97702793  0.91767294  0.56477019  1
  O  O479  1  0.97856546  0.91701717  0.81810342  1
  O  O480  1  0.07287656  0.31454566  0.07401566  1
  O  O481  1  0.07238729  0.31382883  0.32388827  1
  O  O482  1  0.07209390  0.31504783  0.57474685  1
  O  O483  1  0.07128143  0.31430937  0.82334806  1
  O  O484  1  0.07270775  0.64542247  0.07509230  1
  O  O485  1  0.07298759  0.64784804  0.32448914  1
  O  O486  1  0.07265782  0.64487936  0.57577190  1
  O  O487  1  0.07256991  0.64461698  0.82544913  1
  O  O488  1  0.07329754  0.98036730  0.07632652  1
  O  O489  1  0.07098257  0.98082426  0.32328095  1
  O  O490  1  0.07226077  0.98082688  0.57287135  1
  O  O491  1  0.07409057  0.98009925  0.82488913  1
  O  O492  1  0.57411043  0.31291261  0.07549275  1
  O  O493  1  0.57337277  0.31311784  0.32414858  1
  O  O494  1  0.57317001  0.31478275  0.57398405  1
  O  O495  1  0.57321250  0.31274963  0.82409793  1
  O  O496  1  0.57284436  0.64709471  0.07287884  1
  O  O497  1  0.57432329  0.64743086  0.32393858  1
  O  O498  1  0.57252839  0.64780070  0.57270302  1
  O  O499  1  0.57443486  0.64635719  0.82501527  1
  O  O500  1  0.57399115  0.97950866  0.07563132  1
  O  O501  1  0.57312285  0.97984370  0.32327461  1
  O  O502  1  0.57356537  0.98045098  0.57576770  1
  O  O503  1  0.57408323  0.97843687  0.82483643  1
  O  O504  1  0.42794086  0.01939397  0.17673596  1
  O  O505  1  0.42667839  0.01949268  0.42394928  1
  O  O506  1  0.42649950  0.02112469  0.67514325  1
  O  O507  1  0.42673303  0.01915389  0.92441956  1
  O  O508  1  0.42635043  0.35399086  0.17372703  1
  O  O509  1  0.42767076  0.35326761  0.42561718  1
  O  O510  1  0.42563897  0.35445484  0.67398130  1
  O  O511  1  0.42659298  0.35401082  0.92534047  1
  O  O512  1  0.42810836  0.68578058  0.17674194  1
  O  O513  1  0.42689896  0.68583682  0.42503699  1
  O  O514  1  0.42720188  0.68757825  0.67548600  1
  O  O515  1  0.42692191  0.68556005  0.92561489  1
  O  O516  1  0.92796215  0.02017483  0.17747812  1
  O  O517  1  0.92660712  0.01882204  0.42533064  1
  O  O518  1  0.92660920  0.02120522  0.67496395  1
  O  O519  1  0.92622203  0.02050610  0.92477241  1
  O  O520  1  0.92692797  0.35213918  0.17658667  1
  O  O521  1  0.92782007  0.35275208  0.42800807  1
  O  O522  1  0.92747904  0.35315129  0.67741479  1
  O  O523  1  0.92694495  0.35276580  0.92669072  1
  O  O524  1  0.92913343  0.68554365  0.17765724  1
  O  O525  1  0.92664518  0.68775986  0.42456685  1
  O  O526  1  0.92608715  0.68659203  0.67365796  1
  O  O527  1  0.92532855  0.68612943  0.92553114  1
  O  O528  1  0.17671187  0.02098685  0.19853229  1
  O  O529  1  0.17620540  0.01854547  0.44742715  1
  O  O530  1  0.17543320  0.01994329  0.70062435  1
  O  O531  1  0.17774730  0.01948208  0.94929308  1
  O  O532  1  0.17708971  0.35188149  0.19814165  1
  O  O533  1  0.17603033  0.35353333  0.44988829  1
  O  O534  1  0.17636926  0.35254378  0.70127187  1
  O  O535  1  0.17664269  0.35403089  0.94983026  1
  O  O536  1  0.17839208  0.68671899  0.19827180  1
  O  O537  1  0.17586115  0.68645978  0.44962231  1
  O  O538  1  0.17634738  0.68477814  0.69926234  1
  O  O539  1  0.17562287  0.68678182  0.95125704  1
  O  O540  1  0.67788302  0.01832516  0.19914696  1
  O  O541  1  0.67597783  0.01988702  0.45108109  1
  O  O542  1  0.67651449  0.02119635  0.70061195  1
  O  O543  1  0.67724822  0.02074612  0.94976605  1
  O  O544  1  0.67755607  0.35310178  0.19857426  1
  O  O545  1  0.67759136  0.35231172  0.44981610  1
  O  O546  1  0.67756988  0.35339152  0.69858368  1
  O  O547  1  0.67614081  0.35380833  0.95037360  1
  O  O548  1  0.67832740  0.68637014  0.19879465  1
  O  O549  1  0.67781384  0.68696758  0.44938305  1
  O  O550  1  0.67688099  0.68657212  0.69795754  1
  O  O551  1  0.67773368  0.68520865  0.94918304  1
  O  O552  1  0.32133528  0.31383884  0.05053670  1
  O  O553  1  0.32375246  0.31344694  0.29869883  1
  O  O554  1  0.32373163  0.31286026  0.55000982  1
  O  O555  1  0.32357019  0.31202943  0.80041668  1
  O  O556  1  0.32303096  0.64790517  0.05037564  1
  O  O557  1  0.32402237  0.64735638  0.29966710  1
  O  O558  1  0.32287722  0.64844424  0.55116761  1
  O  O559  1  0.32299281  0.64580350  0.80086732  1
  O  O560  1  0.32404183  0.97978639  0.05013139  1
  O  O561  1  0.32233607  0.98155126  0.29961442  1
  O  O562  1  0.32336119  0.98046346  0.54994664  1
  O  O563  1  0.32348452  0.98068269  0.80104076  1
  O  O564  1  0.82299997  0.31493467  0.05100488  1
  O  O565  1  0.82321033  0.31481361  0.30217059  1
  O  O566  1  0.82200104  0.31370636  0.55306294  1
  O  O567  1  0.82228681  0.31276236  0.80023269  1
  O  O568  1  0.82340580  0.64650811  0.05189456  1
  O  O569  1  0.82402856  0.64661696  0.29998981  1
  O  O570  1  0.82254193  0.64700871  0.55102034  1
  O  O571  1  0.82284854  0.64795425  0.80066977  1
  O  O572  1  0.82312031  0.98055007  0.05182058  1
  O  O573  1  0.82278399  0.97867566  0.30060547  1
  O  O574  1  0.82307387  0.97869171  0.54982936  1
  O  O575  1  0.82395931  0.97988960  0.79918227  1
  O  O576  1  0.42845008  0.14691863  0.17638034  1
  O  O577  1  0.42583308  0.14623226  0.42326139  1
  O  O578  1  0.42688826  0.14844395  0.67580698  1
  O  O579  1  0.42635472  0.14601500  0.92536022  1
  O  O580  1  0.42648179  0.48081216  0.17456246  1
  O  O581  1  0.42862898  0.48087717  0.42602129  1
  O  O582  1  0.42674143  0.48111373  0.67352155  1
  O  O583  1  0.42705692  0.48125371  0.92592609  1
  O  O584  1  0.42938812  0.81307154  0.17656852  1
  O  O585  1  0.42736057  0.81272440  0.42407779  1
  O  O586  1  0.42692772  0.81466720  0.67552765  1
  O  O587  1  0.42727552  0.81253164  0.92626367  1
  O  O588  1  0.92772270  0.14764845  0.17733086  1
  O  O589  1  0.92601306  0.14576760  0.42497148  1
  O  O590  1  0.92651599  0.14837695  0.67537867  1
  O  O591  1  0.92579901  0.14730041  0.92534419  1
  O  O592  1  0.92696113  0.47890768  0.17604418  1
  O  O593  1  0.92721479  0.48014008  0.42684506  1
  O  O594  1  0.92683645  0.48019100  0.67714461  1
  O  O595  1  0.92704184  0.47999580  0.92744116  1
  O  O596  1  0.92785463  0.81305973  0.17686899  1
  O  O597  1  0.92770173  0.81470019  0.42533434  1
  O  O598  1  0.92656088  0.81356401  0.67431094  1
  O  O599  1  0.92600557  0.81309084  0.92548452  1
  O  O600  1  0.07236265  0.18776104  0.07489311  1
  O  O601  1  0.07119151  0.18652416  0.32339313  1
  O  O602  1  0.07278728  0.18818136  0.57459024  1
  O  O603  1  0.07154336  0.18697163  0.82366564  1
  O  O604  1  0.07286339  0.51835063  0.07533141  1
  O  O605  1  0.07385532  0.52081821  0.32511914  1
  O  O606  1  0.07245207  0.51784575  0.57428320  1
  O  O607  1  0.07229893  0.51754796  0.82486774  1
  O  O608  1  0.07342897  0.85352433  0.07624166  1
  O  O609  1  0.07290679  0.85366005  0.32384387  1
  O  O610  1  0.07152890  0.85324085  0.57269612  1
  O  O611  1  0.07378698  0.85309766  0.82503118  1
  O  O612  1  0.57426971  0.18602399  0.07517080  1
  O  O613  1  0.57368124  0.18593223  0.32438998  1
  O  O614  1  0.57269499  0.18773407  0.57402951  1
  O  O615  1  0.57302895  0.18545248  0.82346311  1
  O  O616  1  0.57189234  0.51967162  0.07337535  1
  O  O617  1  0.57357494  0.52057258  0.32469813  1
  O  O618  1  0.57182360  0.52031243  0.57215439  1
  O  O619  1  0.57379197  0.51973612  0.82465191  1
  O  O620  1  0.57434849  0.85281662  0.07647779  1
  O  O621  1  0.57228682  0.85232487  0.32301523  1
  O  O622  1  0.57431797  0.85360429  0.57456156  1
  O  O623  1  0.57359088  0.85118604  0.82394138  1
  O  O624  1  0.32263736  0.18636440  0.05132048  1
  O  O625  1  0.32379484  0.18679597  0.29835106  1
  O  O626  1  0.32357501  0.18577892  0.54946733  1
  O  O627  1  0.32273252  0.18499078  0.80144261  1
  O  O628  1  0.32330628  0.52082847  0.05042245  1
  O  O629  1  0.32414070  0.52040924  0.29906385  1
  O  O630  1  0.32317729  0.52119522  0.55047760  1
  O  O631  1  0.32310526  0.51866461  0.80071052  1
  O  O632  1  0.32395338  0.85274039  0.05077419  1
  O  O633  1  0.32289781  0.85439508  0.29987991  1
  O  O634  1  0.32402910  0.85370730  0.54927331  1
  O  O635  1  0.32266292  0.85338893  0.80055948  1
  O  O636  1  0.82383335  0.18794351  0.05143534  1
  O  O637  1  0.82270181  0.18767927  0.30077785  1
  O  O638  1  0.82214601  0.18634152  0.55168187  1
  O  O639  1  0.82268510  0.18578187  0.80115452  1
  O  O640  1  0.82153909  0.51926722  0.05212008  1
  O  O641  1  0.82424259  0.51995877  0.29962586  1
  O  O642  1  0.82151342  0.51953096  0.55234621  1
  O  O643  1  0.82258306  0.52102078  0.80009716  1
  O  O644  1  0.82251215  0.85301333  0.05216683  1
  O  O645  1  0.82307157  0.85170220  0.30022202  1
  O  O646  1  0.82281355  0.85160606  0.55119607  1
  O  O647  1  0.82404285  0.85303703  0.79988004  1
  O  O648  1  0.17676345  0.14796511  0.19888677  1
  O  O649  1  0.17610417  0.14579726  0.44839113  1
  O  O650  1  0.17582121  0.14655718  0.70031403  1
  O  O651  1  0.17701545  0.14704507  0.94837947  1
  O  O652  1  0.17611855  0.47901798  0.19929310  1
  O  O653  1  0.17646245  0.48057299  0.44983452  1
  O  O654  1  0.17548020  0.47943694  0.70044959  1
  O  O655  1  0.17716473  0.48126525  0.95000839  1
  O  O656  1  0.17828318  0.81432454  0.19792750  1
  O  O657  1  0.17545411  0.81318191  0.45021748  1
  O  O658  1  0.17624469  0.81215508  0.69960283  1
  O  O659  1  0.17564239  0.81340633  0.95105597  1
  O  O660  1  0.67734634  0.14556166  0.20044510  1
  O  O661  1  0.67605047  0.14677714  0.45022706  1
  O  O662  1  0.67686681  0.14822596  0.69905892  1
  O  O663  1  0.67711262  0.14788397  0.95027948  1
  O  O664  1  0.67839290  0.48046662  0.19846054  1
  O  O665  1  0.67752805  0.47924465  0.44996797  1
  O  O666  1  0.67815945  0.48087311  0.69797729  1
  O  O667  1  0.67634205  0.48047574  0.95086797  1
  O  O668  1  0.67927583  0.81363390  0.19738200  1
  O  O669  1  0.67671576  0.81388042  0.44883873  1
  O  O670  1  0.67856635  0.81388149  0.69845515  1
  O  O671  1  0.67768138  0.81219094  0.95055475  1
