# generated using pymatgen
data_Na2MnFe(PO4)2
_symmetry_space_group_name_H-M   'P 1'
_cell_length_a   22.35161001
_cell_length_b   20.09907664
_cell_length_c   19.44358889
_cell_angle_alpha   90.01253943
_cell_angle_beta   89.99651416
_cell_angle_gamma   90.07011130
_symmetry_Int_Tables_number   1
_chemical_formula_structural   Na2MnFe(PO4)2
_chemical_formula_sum   'Na96 Mn48 Fe48 P96 O384'
_cell_volume   8734.96182015
_cell_formula_units_Z   48
loop_
 _symmetry_equiv_pos_site_id
 _symmetry_equiv_pos_as_xyz
  1  'x, y, z'
loop_
 _atom_site_type_symbol
 _atom_site_label
 _atom_site_symmetry_multiplicity
 _atom_site_fract_x
 _atom_site_fract_y
 _atom_site_fract_z
 _atom_site_occupancy
  Na  Na0  1  0.14005885  0.25016858  0.24358010  1
  Na  Na1  1  0.14072577  0.24807980  0.49356202  1
  Na  Na2  1  0.14038982  0.24880460  0.74411289  1
  Na  Na3  1  0.14013309  0.25030403  0.99368341  1
  Na  Na4  1  0.14033768  0.58319175  0.24296125  1
  Na  Na5  1  0.14015295  0.58284428  0.49307935  1
  Na  Na6  1  0.14071621  0.58325542  0.74288215  1
  Na  Na7  1  0.14085755  0.58326587  0.99312142  1
  Na  Na8  1  0.14032101  0.91861200  0.24272215  1
  Na  Na9  1  0.14010266  0.91800469  0.49390827  1
  Na  Na10  1  0.14017802  0.91765399  0.74249244  1
  Na  Na11  1  0.13979743  0.91781574  0.99246823  1
  Na  Na12  1  0.63993600  0.24988957  0.24405305  1
  Na  Na13  1  0.64104619  0.25017558  0.49371268  1
  Na  Na14  1  0.64068290  0.25141616  0.74504464  1
  Na  Na15  1  0.63998081  0.25103231  0.99539431  1
  Na  Na16  1  0.64040118  0.58201517  0.24237715  1
  Na  Na17  1  0.64037624  0.58150459  0.49372473  1
  Na  Na18  1  0.64019826  0.58299926  0.74490557  1
  Na  Na19  1  0.64038767  0.58376943  0.99366935  1
  Na  Na20  1  0.64061221  0.91565177  0.24367716  1
  Na  Na21  1  0.64046828  0.91706998  0.49422927  1
  Na  Na22  1  0.64042558  0.91648616  0.74450438  1
  Na  Na23  1  0.64038328  0.91583166  0.99425282  1
  Na  Na24  1  0.35899453  0.08508691  0.00644218  1
  Na  Na25  1  0.35895861  0.08527012  0.25665004  1
  Na  Na26  1  0.35904957  0.08257035  0.50583350  1
  Na  Na27  1  0.35906024  0.08348986  0.75602864  1
  Na  Na28  1  0.35925894  0.41676605  0.00771387  1
  Na  Na29  1  0.35954688  0.41622205  0.25570036  1
  Na  Na30  1  0.35945957  0.41513904  0.50549517  1
  Na  Na31  1  0.35936872  0.41631614  0.75834680  1
  Na  Na32  1  0.35944350  0.74972485  0.00646090  1
  Na  Na33  1  0.35938409  0.75018217  0.25510946  1
  Na  Na34  1  0.35943243  0.75106268  0.50672327  1
  Na  Na35  1  0.35957260  0.75008103  0.75697360  1
  Na  Na36  1  0.86017569  0.08330504  0.00728442  1
  Na  Na37  1  0.86048739  0.08342218  0.25739903  1
  Na  Na38  1  0.86054464  0.08381854  0.50668666  1
  Na  Na39  1  0.86025471  0.08418518  0.75714525  1
  Na  Na40  1  0.85981699  0.41671543  0.00564556  1
  Na  Na41  1  0.85940165  0.41510982  0.25693326  1
  Na  Na42  1  0.85977659  0.41567599  0.50573287  1
  Na  Na43  1  0.86020602  0.41752848  0.75491697  1
  Na  Na44  1  0.86040055  0.75096210  0.00624802  1
  Na  Na45  1  0.85997169  0.74816123  0.25524195  1
  Na  Na46  1  0.85977517  0.74856448  0.50580426  1
  Na  Na47  1  0.86012904  0.75063327  0.75581050  1
  Na  Na48  1  0.10927317  0.08300517  0.11873071  1
  Na  Na49  1  0.11015757  0.08339211  0.36857449  1
  Na  Na50  1  0.11019121  0.08337688  0.61846330  1
  Na  Na51  1  0.10931017  0.08280664  0.86816879  1
  Na  Na52  1  0.11012893  0.41544897  0.11771710  1
  Na  Na53  1  0.10964524  0.41658620  0.36770332  1
  Na  Na54  1  0.10964867  0.41717823  0.61847393  1
  Na  Na55  1  0.11017843  0.41554610  0.86817562  1
  Na  Na56  1  0.10986786  0.75044223  0.11758541  1
  Na  Na57  1  0.10938476  0.75062232  0.36879643  1
  Na  Na58  1  0.10957007  0.75152332  0.61810138  1
  Na  Na59  1  0.10985388  0.75147333  0.86759016  1
  Na  Na60  1  0.60889751  0.08419154  0.11981455  1
  Na  Na61  1  0.60965730  0.08441238  0.36883880  1
  Na  Na62  1  0.60984355  0.08331119  0.61909030  1
  Na  Na63  1  0.60912979  0.08282535  0.86947958  1
  Na  Na64  1  0.60960687  0.41673512  0.11928826  1
  Na  Na65  1  0.60992703  0.41597807  0.36753220  1
  Na  Na66  1  0.60967059  0.41776580  0.61958885  1
  Na  Na67  1  0.60977528  0.41671165  0.87032407  1
  Na  Na68  1  0.60975681  0.74900841  0.11744924  1
  Na  Na69  1  0.60919196  0.74952715  0.36877671  1
  Na  Na70  1  0.60928212  0.75025047  0.61969471  1
  Na  Na71  1  0.60997228  0.74941804  0.87006743  1
  Na  Na72  1  0.38951831  0.25140774  0.13254548  1
  Na  Na73  1  0.38931834  0.25026095  0.38068055  1
  Na  Na74  1  0.39006153  0.25041186  0.63165452  1
  Na  Na75  1  0.38970104  0.25082015  0.88278845  1
  Na  Na76  1  0.38976699  0.58243079  0.13086207  1
  Na  Na77  1  0.39039576  0.58341630  0.37955609  1
  Na  Na78  1  0.39041126  0.58395740  0.63176815  1
  Na  Na79  1  0.39045382  0.58227226  0.88301961  1
  Na  Na80  1  0.39032950  0.91678373  0.13056383  1
  Na  Na81  1  0.38995348  0.91739440  0.38148942  1
  Na  Na82  1  0.38965376  0.91620030  0.63139755  1
  Na  Na83  1  0.38986642  0.91465640  0.88086594  1
  Na  Na84  1  0.89016991  0.24867570  0.13208678  1
  Na  Na85  1  0.89018447  0.24905591  0.38253879  1
  Na  Na86  1  0.89075885  0.24934078  0.63146881  1
  Na  Na87  1  0.89056477  0.24926292  0.88124189  1
  Na  Na88  1  0.89071275  0.58347573  0.13133964  1
  Na  Na89  1  0.89060304  0.58295402  0.38117067  1
  Na  Na90  1  0.89068772  0.58381449  0.62994731  1
  Na  Na91  1  0.89127641  0.58372473  0.88041517  1
  Na  Na92  1  0.89081634  0.91595525  0.13109795  1
  Na  Na93  1  0.89105428  0.91700250  0.38072988  1
  Na  Na94  1  0.89098535  0.91817019  0.63172404  1
  Na  Na95  1  0.89089159  0.91730595  0.88154534  1
  Mn  Mn96  1  0.25022748  0.00188234  0.12368981  1
  Mn  Mn97  1  0.25033277  0.49876741  0.37406092  1
  Mn  Mn98  1  0.74945634  0.66541739  0.62518712  1
  Mn  Mn99  1  0.50030035  0.00064697  0.25024903  1
  Mn  Mn100  1  0.25005244  0.49887348  0.62488020  1
  Mn  Mn101  1  0.49909561  0.16749803  0.00010537  1
  Mn  Mn102  1  0.00080852  0.33319274  0.50010604  1
  Mn  Mn103  1  0.50016867  0.16688334  0.75054608  1
  Mn  Mn104  1  0.49930890  0.66600338  0.24924190  1
  Mn  Mn105  1  0.00002789  0.50050775  0.24951630  1
  Mn  Mn106  1  0.25011947  0.83403585  0.12475873  1
  Mn  Mn107  1  0.24931169  0.83449309  0.37479512  1
  Mn  Mn108  1  0.49992572  0.83305457  0.24964528  1
  Mn  Mn109  1  0.49983720  0.16725481  0.49991602  1
  Mn  Mn110  1  0.74965887  -0.00060780  0.12602309  1
  Mn  Mn111  1  0.00028974  0.49958593  -0.00011115  1
  Mn  Mn112  1  0.75026382  0.49929415  0.12453085  1
  Mn  Mn113  1  0.74994732  0.16741307  0.12584437  1
  Mn  Mn114  1  -0.00043841  0.33206714  0.24994679  1
  Mn  Mn115  1  0.49896427  -0.00080131  -0.00030891  1
  Mn  Mn116  1  0.50036861  0.66748431  0.50074539  1
  Mn  Mn117  1  0.49946625  -0.00142426  0.74953446  1
  Mn  Mn118  1  0.75030441  0.83324278  0.62490141  1
  Mn  Mn119  1  0.50002859  0.33388310  0.49994642  1
  Mn  Mn120  1  0.49951020  0.50032029  0.49979580  1
  Mn  Mn121  1  0.24986197  0.66661923  0.37477662  1
  Mn  Mn122  1  0.75109198  0.66755736  0.87440176  1
  Mn  Mn123  1  0.75078685  0.00123029  0.62506728  1
  Mn  Mn124  1  0.24949970  0.33167701  0.62605682  1
  Mn  Mn125  1  0.00110902  0.66727751  -0.00116024  1
  Mn  Mn126  1  -0.00026448  0.83428502  0.49941607  1
  Mn  Mn127  1  0.25002328  0.00075557  0.87421498  1
  Mn  Mn128  1  0.74972782  -0.00012234  0.87605503  1
  Mn  Mn129  1  0.00052097  0.66714840  0.74917273  1
  Mn  Mn130  1  0.75099461  0.49992421  0.87550972  1
  Mn  Mn131  1  0.74969605  0.16804500  0.87634188  1
  Mn  Mn132  1  0.75073560  0.00045572  0.37490359  1
  Mn  Mn133  1  0.00054440  0.83331626  0.24999281  1
  Mn  Mn134  1  -0.00069078  0.33159619  -0.00087169  1
  Mn  Mn135  1  0.24983686  0.66704769  0.87478331  1
  Mn  Mn136  1  0.50009221  0.33446367  0.75127121  1
  Mn  Mn137  1  0.49985667  0.66648365  0.75089580  1
  Mn  Mn138  1  0.74920997  0.66470854  0.37499807  1
  Mn  Mn139  1  0.49965372  -0.00052547  0.49953356  1
  Mn  Mn140  1  0.25031675  0.66685133  0.62491717  1
  Mn  Mn141  1  0.75003251  0.33347013  0.62435031  1
  Mn  Mn142  1  0.00014559  0.33289926  0.74935646  1
  Mn  Mn143  1  0.75011827  0.83221100  0.37449226  1
  Fe  Fe144  1  -0.00009059  0.83444560  0.74900364  1
  Fe  Fe145  1  0.24946221  0.66697419  0.12441572  1
  Fe  Fe146  1  0.24950104  0.49984347  0.12466565  1
  Fe  Fe147  1  0.75036082  0.16737641  0.62574101  1
  Fe  Fe148  1  0.49952243  0.33380267  0.24979242  1
  Fe  Fe149  1  0.49973816  0.83331003  0.50002319  1
  Fe  Fe150  1  0.50026749  0.49996005  0.24956984  1
  Fe  Fe151  1  0.24966937  0.16754167  0.87540530  1
  Fe  Fe152  1  0.75018624  0.83359136  0.87553909  1
  Fe  Fe153  1  0.00056450  0.50028525  0.74900220  1
  Fe  Fe154  1  0.75043837  0.83262101  0.12497837  1
  Fe  Fe155  1  0.00046509  0.16597673  0.50070792  1
  Fe  Fe156  1  0.75012795  0.49862941  0.37408100  1
  Fe  Fe157  1  0.24981888  0.16674953  0.37490084  1
  Fe  Fe158  1  0.24979575  0.49995034  0.87562208  1
  Fe  Fe159  1  0.49974866  0.66568206  -0.00031788  1
  Fe  Fe160  1  -0.00003680  0.16549182  0.25060979  1
  Fe  Fe161  1  0.74994351  0.16679683  0.37547944  1
  Fe  Fe162  1  0.25025953  0.00048599  0.37490442  1
  Fe  Fe163  1  -0.00002589  0.16525604  0.00035386  1
  Fe  Fe164  1  0.00040945  0.16575368  0.75025280  1
  Fe  Fe165  1  0.00020892  0.83394224  -0.00075007  1
  Fe  Fe166  1  0.49997577  0.83248736  0.75078751  1
  Fe  Fe167  1  0.00042361  0.00000697  0.24955744  1
  Fe  Fe168  1  0.75035938  0.49917590  0.62472016  1
  Fe  Fe169  1  -0.00008341  -0.00013976  -0.00028950  1
  Fe  Fe170  1  0.00071032  0.66685390  0.24968657  1
  Fe  Fe171  1  0.75047694  0.33405011  0.87471365  1
  Fe  Fe172  1  0.24989491  0.00026480  0.62463866  1
  Fe  Fe173  1  0.24986546  0.33329887  0.87589670  1
  Fe  Fe174  1  0.49971261  0.50004805  0.75128510  1
  Fe  Fe175  1  0.75041286  0.33309816  0.12602950  1
  Fe  Fe176  1  -0.00001153  0.66729689  0.49992767  1
  Fe  Fe177  1  0.50007160  0.33397143  0.00137703  1
  Fe  Fe178  1  0.75004805  0.33258097  0.37545985  1
  Fe  Fe179  1  0.49969060  0.49938129  0.00087742  1
  Fe  Fe180  1  0.24956554  0.83378531  0.62495131  1
  Fe  Fe181  1  0.00047023  0.00080631  0.50042690  1
  Fe  Fe182  1  0.25058765  0.16620068  0.62447200  1
  Fe  Fe183  1  0.24918309  0.16800426  0.12545012  1
  Fe  Fe184  1  0.00031374  0.50089142  0.49916568  1
  Fe  Fe185  1  0.24947233  0.83371841  0.87457793  1
  Fe  Fe186  1  0.24967823  0.33363782  0.12491700  1
  Fe  Fe187  1  0.24920195  0.33275578  0.37457881  1
  Fe  Fe188  1  0.50022325  0.83263056  0.00015240  1
  Fe  Fe189  1  0.49886735  0.16764675  0.24950471  1
  Fe  Fe190  1  0.75066015  0.66630245  0.12459232  1
  Fe  Fe191  1  -0.00002478  0.00048700  0.75035568  1
  P  P192  1  0.04162630  0.24749664  0.10269414  1
  P  P193  1  0.04179264  0.24790726  0.35302148  1
  P  P194  1  0.04247126  0.24839132  0.60292006  1
  P  P195  1  0.04189317  0.24775553  0.85256275  1
  P  P196  1  0.04321163  0.58388853  0.10294401  1
  P  P197  1  0.04226701  0.58494192  0.35291506  1
  P  P198  1  0.04174645  0.58384125  0.60145281  1
  P  P199  1  0.04283145  0.58251411  0.85154981  1
  P  P200  1  0.04162736  0.91694016  0.10128580  1
  P  P201  1  0.04245625  0.91857867  0.35236799  1
  P  P202  1  0.04188782  0.91863212  0.60294516  1
  P  P203  1  0.04147274  0.91715353  0.85160507  1
  P  P204  1  0.54117896  0.25162159  0.10396895  1
  P  P205  1  0.54076969  0.25052077  0.35121225  1
  P  P206  1  0.54296339  0.25075519  0.60347609  1
  P  P207  1  0.54254854  0.25086999  0.85459705  1
  P  P208  1  0.54121784  0.58247175  0.10169065  1
  P  P209  1  0.54259873  0.58233330  0.35189285  1
  P  P210  1  0.54280296  0.58329957  0.60399820  1
  P  P211  1  0.54188922  0.58177212  0.85414478  1
  P  P212  1  0.54220481  0.91555434  0.10228603  1
  P  P213  1  0.54290218  0.91638891  0.35345393  1
  P  P214  1  0.54199495  0.91489239  0.60279365  1
  P  P215  1  0.54199498  0.91449145  0.85315944  1
  P  P216  1  0.45702356  0.08474831  0.14766750  1
  P  P217  1  0.45715208  0.08416730  0.39613338  1
  P  P218  1  0.45708867  0.08317388  0.64689530  1
  P  P219  1  0.45642737  0.08296416  0.89681315  1
  P  P220  1  0.45846797  0.41704627  0.14794490  1
  P  P221  1  0.45737284  0.41676202  0.39561157  1
  P  P222  1  0.45708452  0.41832421  0.64855237  1
  P  P223  1  0.45820003  0.41676480  0.89938735  1
  P  P224  1  0.45717120  0.74941841  0.14550165  1
  P  P225  1  0.45710412  0.75096766  0.39761946  1
  P  P226  1  0.45742295  0.75130001  0.64791408  1
  P  P227  1  0.45863800  0.74962286  0.89855341  1
  P  P228  1  0.95846159  0.08282399  0.14797464  1
  P  P229  1  0.95901124  0.08318302  0.39818010  1
  P  P230  1  0.95890118  0.08330086  0.64824750  1
  P  P231  1  0.95854693  0.08290820  0.89805812  1
  P  P232  1  0.95722392  0.41585967  0.14675872  1
  P  P233  1  0.95838809  0.41758077  0.39756374  1
  P  P234  1  0.95867673  0.41833623  0.64638052  1
  P  P235  1  0.95774042  0.41639346  0.89576672  1
  P  P236  1  0.95852707  0.74924834  0.14694034  1
  P  P237  1  0.95795321  0.74892629  0.39698165  1
  P  P238  1  0.95802592  0.75162757  0.64674202  1
  P  P239  1  0.95838364  0.75214503  0.89636354  1
  P  P240  1  0.20796603  0.08530704  0.22787004  1
  P  P241  1  0.20886972  0.08295395  0.47693033  1
  P  P242  1  0.20891144  0.08389639  0.72649652  1
  P  P243  1  0.20761591  0.08557474  0.97727454  1
  P  P244  1  0.20823928  0.41625356  0.22644647  1
  P  P245  1  0.20733349  0.41445887  0.47708800  1
  P  P246  1  0.20722391  0.41600923  0.72936203  1
  P  P247  1  0.20858525  0.41667078  0.97751585  1
  P  P248  1  0.20757677  0.74945358  0.22691758  1
  P  P249  1  0.20727847  0.75075656  0.47841783  1
  P  P250  1  0.20779824  0.75152172  0.72751992  1
  P  P251  1  0.20769897  0.75117672  0.97741077  1
  P  P252  1  0.70727590  0.08388576  0.22920935  1
  P  P253  1  0.70814649  0.08499744  0.47811411  1
  P  P254  1  0.70781319  0.08518722  0.72814425  1
  P  P255  1  0.70683939  0.08372630  0.97905134  1
  P  P256  1  0.70806673  0.41492670  0.22821354  1
  P  P257  1  0.70852231  0.41631921  0.47646289  1
  P  P258  1  0.70800625  0.41749548  0.72771886  1
  P  P259  1  0.70826823  0.41521959  0.97813452  1
  P  P260  1  0.70841406  0.74878381  0.22614111  1
  P  P261  1  0.70697893  0.74897784  0.47794358  1
  P  P262  1  0.70737051  0.75023419  0.72859398  1
  P  P263  1  0.70866628  0.75117642  0.97832805  1
  P  P264  1  0.29081803  0.25060554  0.02325239  1
  P  P265  1  0.29056924  0.25039620  0.27265251  1
  P  P266  1  0.29207179  0.24835063  0.52188189  1
  P  P267  1  0.29139072  0.24984724  0.77388576  1
  P  P268  1  0.29070938  0.58295678  0.02298147  1
  P  P269  1  0.29209453  0.58314265  0.27036374  1
  P  P270  1  0.29298709  0.58257677  0.52175182  1
  P  P271  1  0.29228250  0.58207759  0.77319365  1
  P  P272  1  0.29235694  0.91719279  0.02069056  1
  P  P273  1  0.29219499  0.91883655  0.27223150  1
  P  P274  1  0.29093768  0.91719426  0.52301335  1
  P  P275  1  0.29149277  0.91554946  0.77149379  1
  P  P276  1  0.79246574  0.25205670  0.02288633  1
  P  P277  1  0.79174907  0.24984621  0.27378996  1
  P  P278  1  0.79263770  0.24855741  0.52209159  1
  P  P279  1  0.79256126  0.25146567  0.77247959  1
  P  P280  1  0.79294286  0.58453118  0.02241330  1
  P  P281  1  0.79218602  0.58133386  0.27177885  1
  P  P282  1  0.79198252  0.58072762  0.52179067  1
  P  P283  1  0.79333980  0.58283631  0.77133959  1
  P  P284  1  0.79214426  0.91539591  0.02280696  1
  P  P285  1  0.79307418  0.91571145  0.27142029  1
  P  P286  1  0.79346065  0.91698205  0.52189099  1
  P  P287  1  0.79250944  0.91608468  0.77308242  1
  O  O288  1  0.03633137  0.24756648  0.18267890  1
  O  O289  1  0.03680464  0.24802086  0.43300629  1
  O  O290  1  0.03706952  0.24851687  0.68285334  1
  O  O291  1  0.03647362  0.24745879  0.93251803  1
  O  O292  1  0.03802502  0.58447857  0.18293033  1
  O  O293  1  0.03653064  0.58463100  0.43284184  1
  O  O294  1  0.03668956  0.58305826  0.68148899  1
  O  O295  1  0.03776874  0.58283321  0.93154337  1
  O  O296  1  0.03685645  0.91736118  0.18126917  1
  O  O297  1  0.03712361  0.91870820  0.43229092  1
  O  O298  1  0.03626833  0.91826524  0.68280581  1
  O  O299  1  0.03640152  0.91674927  0.93153564  1
  O  O300  1  0.53529631  0.25131479  0.18386899  1
  O  O301  1  0.53630256  0.25052378  0.43126323  1
  O  O302  1  0.53803563  0.25081913  0.68350231  1
  O  O303  1  0.53711151  0.25139538  0.93457308  1
  O  O304  1  0.53648583  0.58250331  0.18168111  1
  O  O305  1  0.53765360  0.58292968  0.43188529  1
  O  O306  1  0.53758355  0.58290424  0.68400720  1
  O  O307  1  0.53645972  0.58187509  0.93404734  1
  O  O308  1  0.53729520  0.91606751  0.18228685  1
  O  O309  1  0.53762644  0.91591549  0.43345226  1
  O  O310  1  0.53661867  0.91467664  0.68278842  1
  O  O311  1  0.53656467  0.91457776  0.93311378  1
  O  O312  1  0.46184478  0.08456023  0.06764218  1
  O  O313  1  0.46247007  0.08471600  0.31614825  1
  O  O314  1  0.46211615  0.08315008  0.56687310  1
  O  O315  1  0.46174482  0.08293208  0.81685047  1
  O  O316  1  0.46362409  0.41678496  0.06802165  1
  O  O317  1  0.46277191  0.41662580  0.31568394  1
  O  O318  1  0.46199974  0.41787795  0.56853342  1
  O  O319  1  0.46306961  0.41729033  0.81941737  1
  O  O320  1  0.46259684  0.74948252  0.06559773  1
  O  O321  1  0.46209224  0.75036883  0.31759060  1
  O  O322  1  0.46260437  0.75144778  0.56793417  1
  O  O323  1  0.46353366  0.74969119  0.81853954  1
  O  O324  1  0.96349607  0.08302498  0.06807498  1
  O  O325  1  0.96409827  0.08315525  0.31825603  1
  O  O326  1  0.96411144  0.08350307  0.56836367  1
  O  O327  1  0.96341665  0.08256003  0.81816270  1
  O  O328  1  0.96227451  0.41547137  0.06675896  1
  O  O329  1  0.96302179  0.41715209  0.31754489  1
  O  O330  1  0.96450077  0.41852032  0.56646219  1
  O  O331  1  0.96322506  0.41692218  0.81579533  1
  O  O332  1  0.96382633  0.75001567  0.06698273  1
  O  O333  1  0.96364412  0.74872171  0.31705396  1
  O  O334  1  0.96313886  0.75100494  0.56676114  1
  O  O335  1  0.96361568  0.75223089  0.81639223  1
  O  O336  1  0.21264612  0.08584555  0.05723577  1
  O  O337  1  0.21344007  0.08453729  0.30773385  1
  O  O338  1  0.21391955  0.08301685  0.55682506  1
  O  O339  1  0.21345470  0.08385226  0.80645314  1
  O  O340  1  0.21360115  0.41723005  0.05746104  1
  O  O341  1  0.21308250  0.41543689  0.30642948  1
  O  O342  1  0.21236891  0.41470426  0.55708999  1
  O  O343  1  0.21251858  0.41635750  0.80932072  1
  O  O344  1  0.21298113  0.75042634  0.05737055  1
  O  O345  1  0.21238990  0.74971903  0.30694542  1
  O  O346  1  0.21268092  0.75121926  0.55840434  1
  O  O347  1  0.21290654  0.75161537  0.80755822  1
  O  O348  1  0.71195081  0.08353783  0.05902885  1
  O  O349  1  0.71261909  0.08429924  0.30918985  1
  O  O350  1  0.71348104  0.08534623  0.55812588  1
  O  O351  1  0.71276071  0.08470162  0.80818071  1
  O  O352  1  0.71354918  0.41498852  0.05808333  1
  O  O353  1  0.71340664  0.41539284  0.30810078  1
  O  O354  1  0.71340247  0.41672964  0.55647120  1
  O  O355  1  0.71352906  0.41675859  0.80762839  1
  O  O356  1  0.71410740  0.75081834  0.05825270  1
  O  O357  1  0.71302054  0.74834113  0.30618704  1
  O  O358  1  0.71214574  0.74890283  0.55789852  1
  O  O359  1  0.71284812  0.75094665  0.80856685  1
  O  O360  1  0.28570392  0.25023391  0.19275626  1
  O  O361  1  0.28646074  0.24894669  0.44203932  1
  O  O362  1  0.28667495  0.24914789  0.69390777  1
  O  O363  1  0.28592454  0.25103629  0.94335806  1
  O  O364  1  0.28633402  0.58341351  0.19045931  1
  O  O365  1  0.28783059  0.58262020  0.44173716  1
  O  O366  1  0.28752761  0.58226730  0.69319252  1
  O  O367  1  0.28601471  0.58281815  0.94293785  1
  O  O368  1  0.28722569  0.91861638  0.19222857  1
  O  O369  1  0.28612496  0.91787030  0.44300105  1
  O  O370  1  0.28612973  0.91528438  0.69156972  1
  O  O371  1  0.28681066  0.91659315  0.94074762  1
  O  O372  1  0.78707376  0.25044113  0.19376310  1
  O  O373  1  0.78722756  0.24839210  0.44219334  1
  O  O374  1  0.78726570  0.25049684  0.69250289  1
  O  O375  1  0.78717279  0.25233040  0.94293074  1
  O  O376  1  0.78714194  0.58229217  0.19178513  1
  O  O377  1  0.78649231  0.58052223  0.44181383  1
  O  O378  1  0.78789202  0.58219691  0.69139554  1
  O  O379  1  0.78809682  0.58446400  0.94241991  1
  O  O380  1  0.78758343  0.91531115  0.19146347  1
  O  O381  1  0.78840180  0.91706540  0.44190732  1
  O  O382  1  0.78752539  0.91677930  0.69309212  1
  O  O383  1  0.78681613  0.91545547  0.94282426  1
  O  O384  1  0.22670735  0.25018411  0.05936449  1
  O  O385  1  0.22658672  0.25063147  0.30902477  1
  O  O386  1  0.22796895  0.24762652  0.55822000  1
  O  O387  1  0.22714855  0.25069370  0.80968978  1
  O  O388  1  0.22664191  0.58263882  0.05892639  1
  O  O389  1  0.22804623  0.58276679  0.30652030  1
  O  O390  1  0.22855657  0.58285622  0.55679185  1
  O  O391  1  0.22784815  0.58241043  0.80827412  1
  O  O392  1  0.22815551  0.91757802  0.05630864  1
  O  O393  1  0.22780040  0.91916314  0.30755902  1
  O  O394  1  0.22685299  0.91709679  0.55898888  1
  O  O395  1  0.22738667  0.91578750  0.80766295  1
  O  O396  1  0.72820151  0.25204708  0.05868414  1
  O  O397  1  0.72748551  0.24954177  0.30945378  1
  O  O398  1  0.72849569  0.24839176  0.55825972  1
  O  O399  1  0.72833726  0.25217814  0.80837978  1
  O  O400  1  0.72856662  0.58444435  0.05772711  1
  O  O401  1  0.72783189  0.58048433  0.30726151  1
  O  O402  1  0.72783260  0.58056676  0.55783991  1
  O  O403  1  0.72913232  0.58328724  0.80693859  1
  O  O404  1  0.72792725  0.91501287  0.05854488  1
  O  O405  1  0.72880247  0.91632262  0.30684357  1
  O  O406  1  0.72904406  0.91728827  0.55690523  1
  O  O407  1  0.72815396  0.91554940  0.80853859  1
  O  O408  1  0.27200793  0.08596605  0.19150308  1
  O  O409  1  0.27279811  0.08269777  0.44040651  1
  O  O410  1  0.27302201  0.08407512  0.69048775  1
  O  O411  1  0.27189004  0.08524933  0.94170351  1
  O  O412  1  0.27237309  0.41704331  0.19053366  1
  O  O413  1  0.27167403  0.41409561  0.44161415  1
  O  O414  1  0.27148197  0.41565242  0.69372387  1
  O  O415  1  0.27263350  0.41625266  0.94126120  1
  O  O416  1  0.27191269  0.74952322  0.19161598  1
  O  O417  1  0.27148850  0.75093765  0.44283398  1
  O  O418  1  0.27208147  0.75141623  0.69200920  1
  O  O419  1  0.27190870  0.75148639  0.94161212  1
  O  O420  1  0.77159058  0.08361531  0.19390621  1
  O  O421  1  0.77240314  0.08525549  0.44235913  1
  O  O422  1  0.77223319  0.08569036  0.69278159  1
  O  O423  1  0.77127737  0.08385378  0.94411458  1
  O  O424  1  0.77223507  0.41502001  0.19214735  1
  O  O425  1  0.77270571  0.41623092  0.44057239  1
  O  O426  1  0.77215879  0.41770162  0.69159969  1
  O  O427  1  0.77250265  0.41510615  0.94229302  1
  O  O428  1  0.77277621  0.74890593  0.19069726  1
  O  O429  1  0.77139215  0.74853771  0.44288411  1
  O  O430  1  0.77163795  0.74947092  0.69313388  1
  O  O431  1  0.77275673  0.75188126  0.94204903  1
  O  O432  1  0.02254687  0.08305359  0.18432342  1
  O  O433  1  0.02308798  0.08321428  0.43459678  1
  O  O434  1  0.02298136  0.08257977  0.68456434  1
  O  O435  1  0.02267261  0.08323859  0.93412572  1
  O  O436  1  0.02160762  0.41600791  0.18180616  1
  O  O437  1  0.02271293  0.41762707  0.43282206  1
  O  O438  1  0.02266714  0.41788870  0.68272708  1
  O  O439  1  0.02192621  0.41582752  0.93143732  1
  O  O440  1  0.02270959  0.74871845  0.18290362  1
  O  O441  1  0.02202370  0.74919326  0.43315975  1
  O  O442  1  0.02223601  0.75196727  0.68249103  1
  O  O443  1  0.02260711  0.75240270  0.93218617  1
  O  O444  1  0.52141567  0.08524918  0.18285201  1
  O  O445  1  0.52143493  0.08364342  0.43154290  1
  O  O446  1  0.52149888  0.08293720  0.68195297  1
  O  O447  1  0.52074877  0.08314986  0.93203673  1
  O  O448  1  0.52247660  0.41691946  0.18432076  1
  O  O449  1  0.52164365  0.41698749  0.43126777  1
  O  O450  1  0.52155905  0.41880693  0.68377889  1
  O  O451  1  0.52244554  0.41662219  0.93521279  1
  O  O452  1  0.52140278  0.74931524  0.18122940  1
  O  O453  1  0.52154101  0.75170650  0.43293324  1
  O  O454  1  0.52168752  0.75110574  0.68365904  1
  O  O455  1  0.52274033  0.74979084  0.93442196  1
  O  O456  1  0.47717442  0.25204933  0.06758090  1
  O  O457  1  0.47648482  0.25076450  0.31576696  1
  O  O458  1  0.47842974  0.25072161  0.56870275  1
  O  O459  1  0.47825782  0.25059622  0.81921292  1
  O  O460  1  0.47703276  0.58210833  0.06594858  1
  O  O461  1  0.47818512  0.58163048  0.31654559  1
  O  O462  1  0.47847071  0.58375240  0.56863231  1
  O  O463  1  0.47779048  0.58174027  0.81791543  1
  O  O464  1  0.47778570  0.91485319  0.06712707  1
  O  O465  1  0.47853430  0.91664967  0.31826211  1
  O  O466  1  0.47775226  0.91486955  0.56689672  1
  O  O467  1  0.47777394  0.91421087  0.81728504  1
  O  O468  1  0.97743803  0.24725108  0.06682261  1
  O  O469  1  0.97753592  0.24764136  0.31735973  1
  O  O470  1  0.97834325  0.24850543  0.56697730  1
  O  O471  1  0.97783790  0.24808540  0.81648446  1
  O  O472  1  0.97889662  0.58396402  0.06762417  1
  O  O473  1  0.97824368  0.58535255  0.31643063  1
  O  O474  1  0.97766935  0.58411895  0.56532164  1
  O  O475  1  0.97854321  0.58251725  0.81606941  1
  O  O476  1  0.97751128  0.91626610  0.06528778  1
  O  O477  1  0.97831808  0.91823434  0.31640711  1
  O  O478  1  0.97789970  0.91899129  0.56650966  1
  O  O479  1  0.97741280  0.91767568  0.81529238  1
  O  O480  1  0.07246065  0.31139462  0.07488644  1
  O  O481  1  0.07250736  0.31186283  0.32512882  1
  O  O482  1  0.07369347  0.31206820  0.57520390  1
  O  O483  1  0.07323036  0.31140463  0.82512183  1
  O  O484  1  0.07472010  0.64680471  0.07407702  1
  O  O485  1  0.07356746  0.64819591  0.32440621  1
  O  O486  1  0.07242923  0.64796030  0.57405748  1
  O  O487  1  0.07389441  0.64628276  0.82392384  1
  O  O488  1  0.07208063  0.98072826  0.07258436  1
  O  O489  1  0.07330447  0.98182115  0.32335251  1
  O  O490  1  0.07309231  0.98199761  0.57448822  1
  O  O491  1  0.07277117  0.98074691  0.82358489  1
  O  O492  1  0.57247329  0.31500086  0.07565873  1
  O  O493  1  0.57177456  0.31410442  0.32309864  1
  O  O494  1  0.57381222  0.31434927  0.57516647  1
  O  O495  1  0.57381268  0.31410096  0.82610468  1
  O  O496  1  0.57140230  0.64645080  0.07297145  1
  O  O497  1  0.57320497  0.64613569  0.32373701  1
  O  O498  1  0.57389409  0.64693946  0.57605888  1
  O  O499  1  0.57321848  0.64531907  0.82620151  1
  O  O500  1  0.57283954  0.97945572  0.07440397  1
  O  O501  1  0.57395135  0.98007808  0.32557765  1
  O  O502  1  0.57295950  0.97884823  0.57529643  1
  O  O503  1  0.57283720  0.97839382  0.82532759  1
  O  O504  1  0.42625976  0.02091486  0.17540740  1
  O  O505  1  0.42597172  0.02057250  0.42403172  1
  O  O506  1  0.42593760  0.01965611  0.67480000  1
  O  O507  1  0.42542674  0.01933876  0.92466313  1
  O  O508  1  0.42722292  0.35364435  0.17643725  1
  O  O509  1  0.42634216  0.35337377  0.42441458  1
  O  O510  1  0.42630428  0.35454634  0.67662884  1
  O  O511  1  0.42751463  0.35294701  0.92755039  1
  O  O512  1  0.42594034  0.68598504  0.17382756  1
  O  O513  1  0.42655496  0.68711177  0.42574040  1
  O  O514  1  0.42635311  0.68753234  0.67571424  1
  O  O515  1  0.42827170  0.68543505  0.92660988  1
  O  O516  1  0.92789439  0.01892639  0.17631292  1
  O  O517  1  0.92803671  0.01958532  0.42659894  1
  O  O518  1  0.92728382  0.02019656  0.67676236  1
  O  O519  1  0.92806562  0.01920092  0.92715262  1
  O  O520  1  0.92619499  0.35247838  0.17523586  1
  O  O521  1  0.92731400  0.35398281  0.42553758  1
  O  O522  1  0.92724698  0.35453918  0.67349256  1
  O  O523  1  0.92644225  0.35279283  0.92347424  1
  O  O524  1  0.92752386  0.68571916  0.17509996  1
  O  O525  1  0.92685023  0.68576285  0.42587172  1
  O  O526  1  0.92683832  0.68813299  0.67486848  1
  O  O527  1  0.92761217  0.68809102  0.92385380  1
  O  O528  1  0.17700426  0.02178682  0.19916932  1
  O  O529  1  0.17758221  0.01958733  0.44840434  1
  O  O530  1  0.17859924  0.01988894  0.69795125  1
  O  O531  1  0.17652264  0.02187069  0.94946390  1
  O  O532  1  0.17770811  0.35254491  0.19760481  1
  O  O533  1  0.17635909  0.35099530  0.44873700  1
  O  O534  1  0.17589287  0.35256723  0.70118032  1
  O  O535  1  0.17727328  0.35306648  0.94962060  1
  O  O536  1  0.17713335  0.68581573  0.19820519  1
  O  O537  1  0.17643731  0.68695879  0.45060545  1
  O  O538  1  0.17684594  0.68759457  0.69993119  1
  O  O539  1  0.17639998  0.68779897  0.94911603  1
  O  O540  1  0.67607226  0.02028728  0.20139003  1
  O  O541  1  0.67738053  0.02096463  0.45062252  1
  O  O542  1  0.67710985  0.02133183  0.70011820  1
  O  O543  1  0.67581965  0.02025877  0.95072188  1
  O  O544  1  0.67734428  0.35127074  0.19981854  1
  O  O545  1  0.67798131  0.35217516  0.44862204  1
  O  O546  1  0.67663257  0.35420688  0.69934538  1
  O  O547  1  0.67709935  0.35222001  0.94913957  1
  O  O548  1  0.67776520  0.68508491  0.19758330  1
  O  O549  1  0.67560563  0.68563560  0.44981490  1
  O  O550  1  0.67598576  0.68661054  0.70106173  1
  O  O551  1  0.67781151  0.68734948  0.95031914  1
  O  O552  1  0.32134154  0.31435714  0.05224295  1
  O  O553  1  0.32176640  0.31390310  0.30095983  1
  O  O554  1  0.32298965  0.31189867  0.55052154  1
  O  O555  1  0.32258969  0.31334111  0.80211117  1
  O  O556  1  0.32078554  0.64724096  0.05111413  1
  O  O557  1  0.32334442  0.64651222  0.29887185  1
  O  O558  1  0.32414173  0.64602702  0.54995015  1
  O  O559  1  0.32358016  0.64567143  0.80099125  1
  O  O560  1  0.32351619  0.98092441  0.04826159  1
  O  O561  1  0.32311784  0.98223301  0.30073274  1
  O  O562  1  0.32188743  0.98065711  0.55178229  1
  O  O563  1  0.32285093  0.97926015  0.79899734  1
  O  O564  1  0.82364144  0.31505229  0.05195916  1
  O  O565  1  0.82251831  0.31336239  0.30259008  1
  O  O566  1  0.82363273  0.31248148  0.54968788  1
  O  O567  1  0.82348331  0.31524539  0.80014520  1
  O  O568  1  0.82360662  0.64811796  0.05088578  1
  O  O569  1  0.82302981  0.64486204  0.30032034  1
  O  O570  1  0.82288494  0.64468194  0.54931030  1
  O  O571  1  0.82466371  0.64647016  0.79897422  1
  O  O572  1  0.82296861  0.97934243  0.05049108  1
  O  O573  1  0.82443851  0.97921277  0.29925507  1
  O  O574  1  0.82462713  0.98036064  0.55027235  1
  O  O575  1  0.82329709  0.97984421  0.80121605  1
  O  O576  1  0.42621943  0.14828289  0.17606647  1
  O  O577  1  0.42613605  0.14744823  0.42459570  1
  O  O578  1  0.42633050  0.14673220  0.67510667  1
  O  O579  1  0.42531501  0.14635403  0.92493609  1
  O  O580  1  0.42781553  0.48083489  0.17605807  1
  O  O581  1  0.42607384  0.48006704  0.42388035  1
  O  O582  1  0.42636785  0.48171585  0.67720027  1
  O  O583  1  0.42724985  0.48013630  0.92797374  1
  O  O584  1  0.42598505  0.81271008  0.17403794  1
  O  O585  1  0.42617756  0.81441702  0.42582005  1
  O  O586  1  0.42661928  0.81449692  0.67692380  1
  O  O587  1  0.42732626  0.81281424  0.92688597  1
  O  O588  1  0.92729133  0.14608062  0.17679317  1
  O  O589  1  0.92818471  0.14670410  0.42687514  1
  O  O590  1  0.92864116  0.14719425  0.67694963  1
  O  O591  1  0.92730049  0.14624220  0.92646146  1
  O  O592  1  0.92627670  0.47947838  0.17448900  1
  O  O593  1  0.92788011  0.48131284  0.42572271  1
  O  O594  1  0.92794361  0.48172977  0.67504040  1
  O  O595  1  0.92670460  0.47969356  0.92432537  1
  O  O596  1  0.92769501  0.81278609  0.17529491  1
  O  O597  1  0.92688003  0.81284281  0.42413502  1
  O  O598  1  0.92730581  0.81525199  0.67501045  1
  O  O599  1  0.92738832  0.81521709  0.92541113  1
  O  O600  1  0.07274213  0.18434511  0.07406062  1
  O  O601  1  0.07283572  0.18477227  0.32426011  1
  O  O602  1  0.07333038  0.18500703  0.57437631  1
  O  O603  1  0.07264595  0.18434196  0.82381287  1
  O  O604  1  0.07379775  0.51989785  0.07530652  1
  O  O605  1  0.07319780  0.52115581  0.32499053  1
  O  O606  1  0.07267374  0.52046241  0.57269116  1
  O  O607  1  0.07341121  0.51893836  0.82319554  1
  O  O608  1  0.07274480  0.85343051  0.07321485  1
  O  O609  1  0.07355934  0.85482013  0.32479128  1
  O  O610  1  0.07291793  0.85513465  0.57466553  1
  O  O611  1  0.07202209  0.85363058  0.82252952  1
  O  O612  1  0.57233557  0.18808147  0.07598657  1
  O  O613  1  0.57119768  0.18669632  0.32297026  1
  O  O614  1  0.57386421  0.18735233  0.57512224  1
  O  O615  1  0.57358790  0.18721202  0.82688008  1
  O  O616  1  0.57268555  0.51919784  0.07369085  1
  O  O617  1  0.57349732  0.51894614  0.32348586  1
  O  O618  1  0.57377325  0.52010858  0.57518148  1
  O  O619  1  0.57263171  0.51832562  0.82537704  1
  O  O620  1  0.57313900  0.85212859  0.07398761  1
  O  O621  1  0.57411108  0.85322591  0.32482716  1
  O  O622  1  0.57297351  0.85171294  0.57403013  1
  O  O623  1  0.57308493  0.85126034  0.82471851  1
  O  O624  1  0.32196419  0.18725521  0.05164844  1
  O  O625  1  0.32110623  0.18675201  0.30149807  1
  O  O626  1  0.32323603  0.18503389  0.55031677  1
  O  O627  1  0.32170534  0.18610351  0.80262455  1
  O  O628  1  0.32213464  0.51978528  0.05128507  1
  O  O629  1  0.32344439  0.51973674  0.29833001  1
  O  O630  1  0.32374277  0.51896441  0.54978533  1
  O  O631  1  0.32253690  0.51851655  0.80213067  1
  O  O632  1  0.32357412  0.85410529  0.04931575  1
  O  O633  1  0.32288488  0.85502273  0.30005588  1
  O  O634  1  0.32163105  0.85338639  0.55095539  1
  O  O635  1  0.32221608  0.85226373  0.80074048  1
  O  O636  1  0.82313736  0.18799720  0.05039243  1
  O  O637  1  0.82254383  0.18607530  0.30164056  1
  O  O638  1  0.82375452  0.18561811  0.55138307  1
  O  O639  1  0.82343312  0.18808085  0.80115972  1
  O  O640  1  0.82390828  0.52084106  0.05002063  1
  O  O641  1  0.82315708  0.51783193  0.29991992  1
  O  O642  1  0.82305005  0.51755604  0.55046255  1
  O  O643  1  0.82445340  0.51971954  0.80009148  1
  O  O644  1  0.82332772  0.85225275  0.05143805  1
  O  O645  1  0.82397858  0.85224013  0.29966390  1
  O  O646  1  0.82423078  0.85331883  0.54977373  1
  O  O647  1  0.82331304  0.85253575  0.80111833  1
  O  O648  1  0.17679205  0.14867792  0.19964405  1
  O  O649  1  0.17837217  0.14674404  0.44832724  1
  O  O650  1  0.17784764  0.14722220  0.69810953  1
  O  O651  1  0.17698049  0.14892215  0.94831900  1
  O  O652  1  0.17698313  0.47974759  0.19865472  1
  O  O653  1  0.17666395  0.47818268  0.44906122  1
  O  O654  1  0.17626076  0.47925702  0.70035826  1
  O  O655  1  0.17800770  0.48026920  0.94857207  1
  O  O656  1  0.17646073  0.81314053  0.19936560  1
  O  O657  1  0.17581735  0.81386937  0.44999506  1
  O  O658  1  0.17682836  0.81470771  0.69873364  1
  O  O659  1  0.17703397  0.81486046  0.94920638  1
  O  O660  1  0.67611171  0.14708868  0.20072856  1
  O  O661  1  0.67690022  0.14801007  0.44918268  1
  O  O662  1  0.67697858  0.14865600  0.69995452  1
  O  O663  1  0.67578355  0.14722937  0.95122729  1
  O  O664  1  0.67679340  0.47817735  0.19966096  1
  O  O665  1  0.67743624  0.47947105  0.44770788  1
  O  O666  1  0.67742202  0.48121450  0.69962089  1
  O  O667  1  0.67770654  0.47938328  0.95080385  1
  O  O668  1  0.67780121  0.81264240  0.19836093  1
  O  O669  1  0.67643570  0.81268108  0.44983945  1
  O  O670  1  0.67647802  0.81353215  0.69997159  1
  O  O671  1  0.67746140  0.81435637  0.94964931  1
