# generated using pymatgen
data_Na2MnFe(PO4)2
_symmetry_space_group_name_H-M   'P 1'
_cell_length_a   22.34247386
_cell_length_b   20.09390146
_cell_length_c   19.44985368
_cell_angle_alpha   90.01272133
_cell_angle_beta   90.03114790
_cell_angle_gamma   90.06775811
_symmetry_Int_Tables_number   1
_chemical_formula_structural   Na2MnFe(PO4)2
_chemical_formula_sum   'Na96 Mn48 Fe48 P96 O384'
_cell_volume   8731.95495308
_cell_formula_units_Z   48
loop_
 _symmetry_equiv_pos_site_id
 _symmetry_equiv_pos_as_xyz
  1  'x, y, z'
loop_
 _atom_site_type_symbol
 _atom_site_label
 _atom_site_symmetry_multiplicity
 _atom_site_fract_x
 _atom_site_fract_y
 _atom_site_fract_z
 _atom_site_occupancy
  Na  Na0  1  0.14034039  0.25224075  0.24280252  1
  Na  Na1  1  0.14082376  0.24965127  0.49360438  1
  Na  Na2  1  0.13999799  0.24851284  0.74491736  1
  Na  Na3  1  0.13981232  0.24946677  0.99333572  1
  Na  Na4  1  0.14022915  0.58443289  0.24290002  1
  Na  Na5  1  0.14056960  0.58273706  0.49350035  1
  Na  Na6  1  0.13960316  0.58293153  0.74366997  1
  Na  Na7  1  0.14012178  0.58246785  0.99398544  1
  Na  Na8  1  0.14043260  0.91839919  0.24360513  1
  Na  Na9  1  0.14025378  0.91738669  0.49486878  1
  Na  Na10  1  0.14006137  0.91700471  0.74380475  1
  Na  Na11  1  0.13981788  0.91676283  0.99326669  1
  Na  Na12  1  0.64056405  0.24983637  0.24340380  1
  Na  Na13  1  0.64054285  0.24952647  0.49386968  1
  Na  Na14  1  0.64023833  0.25020302  0.74417298  1
  Na  Na15  1  0.64037068  0.24920352  0.99499532  1
  Na  Na16  1  0.64085470  0.58244008  0.24321318  1
  Na  Na17  1  0.64055265  0.58285091  0.49309707  1
  Na  Na18  1  0.63993862  0.58445210  0.74295939  1
  Na  Na19  1  0.64043919  0.58153315  0.99270628  1
  Na  Na20  1  0.63984990  0.91653933  0.24206220  1
  Na  Na21  1  0.64047424  0.91633347  0.49457554  1
  Na  Na22  1  0.64025556  0.91726171  0.74351936  1
  Na  Na23  1  0.63933531  0.91564217  0.99377109  1
  Na  Na24  1  0.35972143  0.08265336  0.00665215  1
  Na  Na25  1  0.35971246  0.08509606  0.25644600  1
  Na  Na26  1  0.36005793  0.08401094  0.50645956  1
  Na  Na27  1  0.36008427  0.08406781  0.75653700  1
  Na  Na28  1  0.35953854  0.41557802  0.00565458  1
  Na  Na29  1  0.35949970  0.41761300  0.25595033  1
  Na  Na30  1  0.35982462  0.41605470  0.50568371  1
  Na  Na31  1  0.35986359  0.41599632  0.75642120  1
  Na  Na32  1  0.36003426  0.75002466  0.00664704  1
  Na  Na33  1  0.35959439  0.75177688  0.25584583  1
  Na  Na34  1  0.35976306  0.75108091  0.50619036  1
  Na  Na35  1  0.36054606  0.75013059  0.75670596  1
  Na  Na36  1  0.85939062  0.08270460  0.00822995  1
  Na  Na37  1  0.85935511  0.08286410  0.25512740  1
  Na  Na38  1  0.85931842  0.08276116  0.50649051  1
  Na  Na39  1  0.86004964  0.08483181  0.75714917  1
  Na  Na40  1  0.85945148  0.41502990  0.00706160  1
  Na  Na41  1  0.85993463  0.41635819  0.25599877  1
  Na  Na42  1  0.85988900  0.41599804  0.50468196  1
  Na  Na43  1  0.85949815  0.41760193  0.75711037  1
  Na  Na44  1  0.85983715  0.74857664  0.00709554  1
  Na  Na45  1  0.85956158  0.74900064  0.25578373  1
  Na  Na46  1  0.85985726  0.75039463  0.50602077  1
  Na  Na47  1  0.86040427  0.75032611  0.75714535  1
  Na  Na48  1  0.10906347  0.08425572  0.11736206  1
  Na  Na49  1  0.10969953  0.08385134  0.36888778  1
  Na  Na50  1  0.11000934  0.08341005  0.61894217  1
  Na  Na51  1  0.10906981  0.08271826  0.86921515  1
  Na  Na52  1  0.10959569  0.41711859  0.11841716  1
  Na  Na53  1  0.11014822  0.41821834  0.36653887  1
  Na  Na54  1  0.10940537  0.41702641  0.61937857  1
  Na  Na55  1  0.10909577  0.41515011  0.86888413  1
  Na  Na56  1  0.10925418  0.75050728  0.11816115  1
  Na  Na57  1  0.10930910  0.75044535  0.36886284  1
  Na  Na58  1  0.10930407  0.75008137  0.62001960  1
  Na  Na59  1  0.10917306  0.74937613  0.86969165  1
  Na  Na60  1  0.60960672  0.08210226  0.11869324  1
  Na  Na61  1  0.60924880  0.08312563  0.36825851  1
  Na  Na62  1  0.60983871  0.08341469  0.61993188  1
  Na  Na63  1  0.60933889  0.08185151  0.86962791  1
  Na  Na64  1  0.61013909  0.41616256  0.11835527  1
  Na  Na65  1  0.61034083  0.41633926  0.36789434  1
  Na  Na66  1  0.60952874  0.41645827  0.61860427  1
  Na  Na67  1  0.60959886  0.41656664  0.86859033  1
  Na  Na68  1  0.60927022  0.75091507  0.11777128  1
  Na  Na69  1  0.60967767  0.75146929  0.36802274  1
  Na  Na70  1  0.60986210  0.75009236  0.61915245  1
  Na  Na71  1  0.60923773  0.74990806  0.86767251  1
  Na  Na72  1  0.38995057  0.24902427  0.13147290  1
  Na  Na73  1  0.39046209  0.25057992  0.38170798  1
  Na  Na74  1  0.39060687  0.24910222  0.63193276  1
  Na  Na75  1  0.39003329  0.24892881  0.88165051  1
  Na  Na76  1  0.39053866  0.58333614  0.13107607  1
  Na  Na77  1  0.39033453  0.58333949  0.38078440  1
  Na  Na78  1  0.39136624  0.58360243  0.63079339  1
  Na  Na79  1  0.39081341  0.58384106  0.88079649  1
  Na  Na80  1  0.39027875  0.91762933  0.13188729  1
  Na  Na81  1  0.39026025  0.91875660  0.38055370  1
  Na  Na82  1  0.39073164  0.91722611  0.63220568  1
  Na  Na83  1  0.39082502  0.91656922  0.88050334  1
  Na  Na84  1  0.89010964  0.25085644  0.13142063  1
  Na  Na85  1  0.88999464  0.25130020  0.38042080  1
  Na  Na86  1  0.89031933  0.25036852  0.63178505  1
  Na  Na87  1  0.89024593  0.24927419  0.88265740  1
  Na  Na88  1  0.89053152  0.58248499  0.13167666  1
  Na  Na89  1  0.89068128  0.58359791  0.38028675  1
  Na  Na90  1  0.89085898  0.58426906  0.63184668  1
  Na  Na91  1  0.89041255  0.58346948  0.88136277  1
  Na  Na92  1  0.88975282  0.91573879  0.13113355  1
  Na  Na93  1  0.88981689  0.91597230  0.38052731  1
  Na  Na94  1  0.89050649  0.91562254  0.63177177  1
  Na  Na95  1  0.89100401  0.91565399  0.88249692  1
  Mn  Mn96  1  0.25017477  0.49876101  0.87460683  1
  Mn  Mn97  1  0.75068764  0.66782307  0.62340915  1
  Mn  Mn98  1  -0.00017604  -0.00001810  0.24955428  1
  Mn  Mn99  1  0.24983929  0.16744657  0.37505982  1
  Mn  Mn100  1  0.00039807  0.50073242  0.49942923  1
  Mn  Mn101  1  0.24923266  0.00125344  0.12460836  1
  Mn  Mn102  1  -0.00078970  -0.00030306  0.50024408  1
  Mn  Mn103  1  0.75030225  0.50011472  0.62489859  1
  Mn  Mn104  1  -0.00063005  0.16763375  0.24895746  1
  Mn  Mn105  1  0.74941624  0.16738527  0.87665905  1
  Mn  Mn106  1  0.74966906  0.16679463  0.37482875  1
  Mn  Mn107  1  -0.00028754  0.33272017  0.75008686  1
  Mn  Mn108  1  -0.00027020  0.49995267  0.00022793  1
  Mn  Mn109  1  0.25064440  0.66674995  0.62457574  1
  Mn  Mn110  1  0.50020681  0.66720103  -0.00067694  1
  Mn  Mn111  1  0.24980666  0.66614081  0.87570234  1
  Mn  Mn112  1  -0.00005594  0.16737303  0.49950388  1
  Mn  Mn113  1  0.25021126  0.66673601  0.12541656  1
  Mn  Mn114  1  0.49924377  0.33283224  0.25005656  1
  Mn  Mn115  1  0.50083293  0.33310492  0.50038715  1
  Mn  Mn116  1  0.49987439  0.16514825  0.00072908  1
  Mn  Mn117  1  0.25008842  0.49922384  0.62480992  1
  Mn  Mn118  1  0.49981400  0.33302376  0.75001013  1
  Mn  Mn119  1  0.50038152  0.50006121  0.24964661  1
  Mn  Mn120  1  0.24978270  0.83553320  0.37595308  1
  Mn  Mn121  1  -0.00044008  -0.00038907  0.75059860  1
  Mn  Mn122  1  0.75039127  0.83251827  0.87505926  1
  Mn  Mn123  1  0.74969521  0.49961639  0.87506377  1
  Mn  Mn124  1  0.00067476  0.66750077  0.50104336  1
  Mn  Mn125  1  0.49999260  0.66660778  0.49950395  1
  Mn  Mn126  1  0.74962219  0.66546822  0.12546323  1
  Mn  Mn127  1  0.75066923  0.00012121  0.62511559  1
  Mn  Mn128  1  0.74939009  -0.00134157  0.37526323  1
  Mn  Mn129  1  0.50007092  0.83391877  0.49998744  1
  Mn  Mn130  1  0.24958052  0.66710484  0.37452831  1
  Mn  Mn131  1  0.25002472  0.83352981  0.87474556  1
  Mn  Mn132  1  0.24996714  0.83459530  0.62521203  1
  Mn  Mn133  1  0.50061770  0.66765935  0.24965979  1
  Mn  Mn134  1  0.25008811  0.33369673  0.12470734  1
  Mn  Mn135  1  0.00044682  0.33431150  0.50026207  1
  Mn  Mn136  1  0.25050639  0.00092982  0.87505127  1
  Mn  Mn137  1  0.50063059  0.00113283  0.50074557  1
  Mn  Mn138  1  0.24941641  0.33213248  0.62529916  1
  Mn  Mn139  1  0.50031830  0.33329375  -0.00007383  1
  Mn  Mn140  1  0.00056127  0.83288885  0.24967858  1
  Mn  Mn141  1  0.75024597  0.00001836  0.87539108  1
  Mn  Mn142  1  0.74975260  0.66646755  0.37440621  1
  Mn  Mn143  1  0.74972717  0.33284221  0.62521045  1
  Fe  Fe144  1  0.00005554  0.66665701  0.75073365  1
  Fe  Fe145  1  0.75013611  0.49870144  0.12452428  1
  Fe  Fe146  1  0.25062740  0.00111263  0.62499854  1
  Fe  Fe147  1  0.49943305  0.83396273  -0.00083364  1
  Fe  Fe148  1  0.75045375  0.83352528  0.62531607  1
  Fe  Fe149  1  0.74989134  0.33290536  0.87598053  1
  Fe  Fe150  1  0.24953432  0.33224942  0.87563118  1
  Fe  Fe151  1  0.50013584  0.50001297  0.74953581  1
  Fe  Fe152  1  0.50021450  0.66632498  0.74950462  1
  Fe  Fe153  1  0.25043295  0.16666286  0.62501633  1
  Fe  Fe154  1  0.75043407  0.16709175  0.62537264  1
  Fe  Fe155  1  0.74982546  0.66630552  0.87524938  1
  Fe  Fe156  1  0.24992750  0.16753516  0.12518412  1
  Fe  Fe157  1  0.74975080  -0.00116935  0.12571259  1
  Fe  Fe158  1  -0.00071398  0.33337343  -0.00021972  1
  Fe  Fe159  1  0.50031332  -0.00038374  0.75035006  1
  Fe  Fe160  1  -0.00032868  0.66711660  0.24956349  1
  Fe  Fe161  1  0.49944807  -0.00088872  -0.00031529  1
  Fe  Fe162  1  0.24947321  0.16648909  0.87490648  1
  Fe  Fe163  1  0.74924632  0.83224083  0.12473822  1
  Fe  Fe164  1  0.75027265  0.33310482  0.37421549  1
  Fe  Fe165  1  0.00051788  0.33385892  0.24949302  1
  Fe  Fe166  1  0.24977913  0.00149731  0.37491622  1
  Fe  Fe167  1  0.49948480  0.83431575  0.24912171  1
  Fe  Fe168  1  0.00024511  0.50066169  0.24909371  1
  Fe  Fe169  1  0.24990423  0.49993540  0.12489888  1
  Fe  Fe170  1  0.74997899  0.16638254  0.12547830  1
  Fe  Fe171  1  0.00034066  0.83264202  0.75146269  1
  Fe  Fe172  1  -0.00019167  0.16607700  0.75089841  1
  Fe  Fe173  1  0.49972466  0.50040137  -0.00082350  1
  Fe  Fe174  1  0.00000728  0.83316574  0.50049426  1
  Fe  Fe175  1  0.25021000  0.33393297  0.37422128  1
  Fe  Fe176  1  0.00016288  0.66618373  -0.00020761  1
  Fe  Fe177  1  0.50031771  0.83331938  0.75020434  1
  Fe  Fe178  1  -0.00027680  -0.00044379  -0.00051268  1
  Fe  Fe179  1  0.50006553  0.16648335  0.50052868  1
  Fe  Fe180  1  0.50083460  0.50016101  0.50001605  1
  Fe  Fe181  1  0.50047101  0.16589046  0.75086983  1
  Fe  Fe182  1  0.74987236  0.83305294  0.37440937  1
  Fe  Fe183  1  0.24968973  0.83436430  0.12528517  1
  Fe  Fe184  1  0.74976256  0.33297779  0.12559527  1
  Fe  Fe185  1  -0.00024609  0.49988152  0.75065315  1
  Fe  Fe186  1  0.25039133  0.50020681  0.37462029  1
  Fe  Fe187  1  -0.00066519  0.16665777  0.00004632  1
  Fe  Fe188  1  0.50039901  0.16619486  0.25024726  1
  Fe  Fe189  1  -0.00055796  0.83260831  0.00033251  1
  Fe  Fe190  1  0.49983018  0.00010430  0.24984428  1
  Fe  Fe191  1  0.75042647  0.49922214  0.37415096  1
  P  P192  1  0.04097111  0.25079829  0.10139052  1
  P  P193  1  0.04247418  0.25156908  0.35174542  1
  P  P194  1  0.04295308  0.25009468  0.60364813  1
  P  P195  1  0.04129487  0.24818595  0.85370494  1
  P  P196  1  0.04186589  0.58459306  0.10295328  1
  P  P197  1  0.04158362  0.58437252  0.35087151  1
  P  P198  1  0.04302675  0.58334530  0.60424619  1
  P  P199  1  0.04120743  0.58318508  0.85231544  1
  P  P200  1  0.04108376  0.91663973  0.10110632  1
  P  P201  1  0.04264232  0.91650746  0.35340577  1
  P  P202  1  0.04178091  0.91515054  0.60337556  1
  P  P203  1  0.04195873  0.91530458  0.85373033  1
  P  P204  1  0.54232816  0.24910765  0.10377823  1
  P  P205  1  0.54219726  0.24838485  0.35276959  1
  P  P206  1  0.54240316  0.24823808  0.60327573  1
  P  P207  1  0.54214270  0.24837809  0.85276799  1
  P  P208  1  0.54243338  0.58255211  0.10154422  1
  P  P209  1  0.54329332  0.58351487  0.35307024  1
  P  P210  1  0.54269034  0.58234695  0.60284752  1
  P  P211  1  0.54137560  0.58307860  0.85142104  1
  P  P212  1  0.54079665  0.91665093  0.10185552  1
  P  P213  1  0.54157616  0.91723088  0.35108976  1
  P  P214  1  0.54270707  0.91683877  0.60421509  1
  P  P215  1  0.54172457  0.91636476  0.85204042  1
  P  P216  1  0.45837969  0.08283089  0.14845956  1
  P  P217  1  0.45813934  0.08470998  0.39719440  1
  P  P218  1  0.45899505  0.08340765  0.64888341  1
  P  P219  1  0.45791219  0.08122866  0.89709476  1
  P  P220  1  0.45715143  0.41679598  0.14611590  1
  P  P221  1  0.45841344  0.41771084  0.39791990  1
  P  P222  1  0.45804695  0.41787014  0.64713453  1
  P  P223  1  0.45808407  0.41794800  0.89683945  1
  P  P224  1  0.45773322  0.75192722  0.14669500  1
  P  P225  1  0.45722750  0.75104803  0.39615297  1
  P  P226  1  0.45887597  0.75017233  0.64847428  1
  P  P227  1  0.45793808  0.75154199  0.89653110  1
  P  P228  1  0.95730329  0.08332450  0.14533785  1
  P  P229  1  0.95661929  0.08369604  0.39658763  1
  P  P230  1  0.95764558  0.08427217  0.64805982  1
  P  P231  1  0.95789261  0.08305477  0.89856585  1
  P  P232  1  0.95894344  0.41642353  0.14779001  1
  P  P233  1  0.95827014  0.41726450  0.39539488  1
  P  P234  1  0.95732874  0.41805343  0.64806516  1
  P  P235  1  0.95761449  0.41575425  0.89737236  1
  P  P236  1  0.95777208  0.74868182  0.14662604  1
  P  P237  1  0.95794502  0.75079533  0.39761646  1
  P  P238  1  0.95875329  0.75032399  0.64910163  1
  P  P239  1  0.95864091  0.74930266  0.89824488  1
  P  P240  1  0.20723664  0.08570202  0.22746775  1
  P  P241  1  0.20788779  0.08273374  0.47819041  1
  P  P242  1  0.20869446  0.08400903  0.72688884  1
  P  P243  1  0.20760436  0.08499035  0.97773263  1
  P  P244  1  0.20788394  0.41847425  0.22773294  1
  P  P245  1  0.20844913  0.41631809  0.47598684  1
  P  P246  1  0.20704197  0.41530973  0.72872192  1
  P  P247  1  0.20739598  0.41500964  0.97775094  1
  P  P248  1  0.20763350  0.75218103  0.22737511  1
  P  P249  1  0.20700254  0.75074482  0.47816517  1
  P  P250  1  0.20745122  0.75009561  0.72820161  1
  P  P251  1  0.20750948  0.75040865  0.97907493  1
  P  P252  1  0.70857828  0.08293948  0.22660477  1
  P  P253  1  0.70721068  0.08315989  0.47839930  1
  P  P254  1  0.70829560  0.08496585  0.72777273  1
  P  P255  1  0.70739071  0.08268250  0.97990658  1
  P  P256  1  0.70873627  0.41628162  0.22709929  1
  P  P257  1  0.70871868  0.41605221  0.47597839  1
  P  P258  1  0.70708980  0.41670120  0.72852126  1
  P  P259  1  0.70776831  0.41474145  0.97839535  1
  P  P260  1  0.70731675  0.75070862  0.22749955  1
  P  P261  1  0.70776387  0.75149337  0.47716213  1
  P  P262  1  0.70830378  0.75089970  0.72749993  1
  P  P263  1  0.70766738  0.74818185  0.97777218  1
  P  P264  1  0.29200505  0.24858937  0.02186984  1
  P  P265  1  0.29236468  0.25173322  0.27219193  1
  P  P266  1  0.29267844  0.24889334  0.52237818  1
  P  P267  1  0.29152010  0.24937597  0.77357199  1
  P  P268  1  0.29233711  0.58164915  0.02266888  1
  P  P269  1  0.29203955  0.58250500  0.27196877  1
  P  P270  1  0.29313768  0.58261081  0.52104869  1
  P  P271  1  0.29295746  0.58298622  0.77191222  1
  P  P272  1  0.29208703  0.91623145  0.02280559  1
  P  P273  1  0.29177666  0.91921872  0.27219586  1
  P  P274  1  0.29265339  0.91936660  0.52243384  1
  P  P275  1  0.29280407  0.91784497  0.77138874  1
  P  P276  1  0.79113494  0.25006479  0.02402857  1
  P  P277  1  0.79175970  0.25092609  0.27145008  1
  P  P278  1  0.79249324  0.24899961  0.52228972  1
  P  P279  1  0.79228955  0.25115817  0.77331450  1
  P  P280  1  0.79209177  0.58139504  0.02251239  1
  P  P281  1  0.79198597  0.58139624  0.27174081  1
  P  P282  1  0.79321219  0.58275133  0.52077428  1
  P  P283  1  0.79214818  0.58487295  0.77264485  1
  P  P284  1  0.79082180  0.91563146  0.02378754  1
  P  P285  1  0.79161698  0.91482090  0.27142280  1
  P  P286  1  0.79240605  0.91488904  0.52233232  1
  P  P287  1  0.79319659  0.91667301  0.77193259  1
  O  O288  1  0.03607853  0.25130637  0.18136940  1
  O  O289  1  0.03764806  0.25133912  0.43173686  1
  O  O290  1  0.03775260  0.24955747  0.68360582  1
  O  O291  1  0.03548118  0.24859472  0.93354453  1
  O  O292  1  0.03633539  0.58461715  0.18277250  1
  O  O293  1  0.03726801  0.58399665  0.43089982  1
  O  O294  1  0.03780930  0.58283026  0.68412876  1
  O  O295  1  0.03603097  0.58364408  0.93228205  1
  O  O296  1  0.03659945  0.91659695  0.18111344  1
  O  O297  1  0.03738466  0.91617040  0.43334209  1
  O  O298  1  0.03645595  0.91507122  0.68334074  1
  O  O299  1  0.03629969  0.91587874  0.93356819  1
  O  O300  1  0.53691670  0.24895533  0.18369031  1
  O  O301  1  0.53717049  0.24833552  0.43276622  1
  O  O302  1  0.53691910  0.24849145  0.68320381  1
  O  O303  1  0.53697333  0.24864606  0.93270048  1
  O  O304  1  0.53755859  0.58311479  0.18150275  1
  O  O305  1  0.53825783  0.58305449  0.43304071  1
  O  O306  1  0.53706297  0.58242459  0.68272591  1
  O  O307  1  0.53643252  0.58314771  0.93138893  1
  O  O308  1  0.53574310  0.91659923  0.18173850  1
  O  O309  1  0.53711837  0.91736383  0.43110574  1
  O  O310  1  0.53738634  0.91657943  0.68408170  1
  O  O311  1  0.53622889  0.91627103  0.93192491  1
  O  O312  1  0.46283078  0.08209327  0.06848996  1
  O  O313  1  0.46355874  0.08434744  0.31736216  1
  O  O314  1  0.46403468  0.08416414  0.56892256  1
  O  O315  1  0.46358020  0.08156334  0.81728930  1
  O  O316  1  0.46228257  0.41706815  0.06616016  1
  O  O317  1  0.46328274  0.41711680  0.31793954  1
  O  O318  1  0.46372272  0.41773974  0.56724246  1
  O  O319  1  0.46358945  0.41797673  0.81689726  1
  O  O320  1  0.46299220  0.75185715  0.06673418  1
  O  O321  1  0.46244100  0.75168827  0.31618507  1
  O  O322  1  0.46352467  0.74981774  0.56846333  1
  O  O323  1  0.46325593  0.75125562  0.81669259  1
  O  O324  1  0.96279561  0.08306333  0.06542620  1
  O  O325  1  0.96162444  0.08370268  0.31657021  1
  O  O326  1  0.96251488  0.08403941  0.56808986  1
  O  O327  1  0.96295919  0.08346582  0.81855983  1
  O  O328  1  0.96351472  0.41611437  0.06776611  1
  O  O329  1  0.96360142  0.41694910  0.31549239  1
  O  O330  1  0.96269076  0.41793436  0.56809180  1
  O  O331  1  0.96302521  0.41636637  0.81749648  1
  O  O332  1  0.96306781  0.74854693  0.06678900  1
  O  O333  1  0.96307033  0.75008129  0.31769058  1
  O  O334  1  0.96373358  0.75061881  0.56913644  1
  O  O335  1  0.96377546  0.74981351  0.81837022  1
  O  O336  1  0.21251230  0.08518585  0.05767698  1
  O  O337  1  0.21248765  0.08508324  0.30738337  1
  O  O338  1  0.21333635  0.08293811  0.55806577  1
  O  O339  1  0.21376986  0.08432340  0.80686732  1
  O  O340  1  0.21276679  0.41583977  0.05767438  1
  O  O341  1  0.21321673  0.41836034  0.30759746  1
  O  O342  1  0.21326731  0.41610494  0.55601466  1
  O  O343  1  0.21233023  0.41464012  0.80863441  1
  O  O344  1  0.21290593  0.75098782  0.05902841  1
  O  O345  1  0.21266819  0.75207847  0.30734279  1
  O  O346  1  0.21235828  0.75058340  0.55809262  1
  O  O347  1  0.21240907  0.75004272  0.80822864  1
  O  O348  1  0.71271358  0.08250729  0.05978354  1
  O  O349  1  0.71314460  0.08265478  0.30659167  1
  O  O350  1  0.71273552  0.08366205  0.55830851  1
  O  O351  1  0.71321009  0.08468946  0.80777251  1
  O  O352  1  0.71318635  0.41505168  0.05828338  1
  O  O353  1  0.71409967  0.41643046  0.30699352  1
  O  O354  1  0.71354303  0.41623741  0.55597722  1
  O  O355  1  0.71200533  0.41639240  0.80847731  1
  O  O356  1  0.71264092  0.74864438  0.05774327  1
  O  O357  1  0.71270465  0.75088684  0.30740986  1
  O  O358  1  0.71331318  0.75176270  0.55710400  1
  O  O359  1  0.71338502  0.74966019  0.80745415  1
  O  O360  1  0.28724644  0.25112361  0.19225991  1
  O  O361  1  0.28769208  0.24955009  0.44249245  1
  O  O362  1  0.28656831  0.24882551  0.69359945  1
  O  O363  1  0.28650177  0.24860089  0.94201517  1
  O  O364  1  0.28670931  0.58226267  0.19202076  1
  O  O365  1  0.28770839  0.58250138  0.44106564  1
  O  O366  1  0.28822929  0.58305024  0.69191096  1
  O  O367  1  0.28713496  0.58191646  0.94271769  1
  O  O368  1  0.28610056  0.91825037  0.19227299  1
  O  O369  1  0.28738253  0.91964942  0.44246134  1
  O  O370  1  0.28762597  0.91851991  0.69145166  1
  O  O371  1  0.28740468  0.91658562  0.94280958  1
  O  O372  1  0.78604969  0.25056801  0.19160773  1
  O  O373  1  0.78726924  0.24965714  0.44235766  1
  O  O374  1  0.78738424  0.25036570  0.69333408  1
  O  O375  1  0.78611423  0.25048771  0.94406450  1
  O  O376  1  0.78648802  0.58121880  0.19181270  1
  O  O377  1  0.78782611  0.58229417  0.44082168  1
  O  O378  1  0.78746002  0.58485334  0.69263897  1
  O  O379  1  0.78676243  0.58229737  0.94260181  1
  O  O380  1  0.78615483  0.91493483  0.19152236  1
  O  O381  1  0.78689337  0.91471262  0.44238269  1
  O  O382  1  0.78828830  0.91628347  0.69196051  1
  O  O383  1  0.78660463  0.91606465  0.94376035  1
  O  O384  1  0.22785347  0.24849583  0.05799708  1
  O  O385  1  0.22806673  0.25206652  0.30778660  1
  O  O386  1  0.22829201  0.24779226  0.55788864  1
  O  O387  1  0.22729448  0.24989164  0.80950139  1
  O  O388  1  0.22800890  0.58194394  0.05811932  1
  O  O389  1  0.22781698  0.58230836  0.30775110  1
  O  O390  1  0.22876990  0.58298122  0.55635432  1
  O  O391  1  0.22840799  0.58269828  0.80665063  1
  O  O392  1  0.22759667  0.91627741  0.05781509  1
  O  O393  1  0.22765045  0.91978513  0.30829602  1
  O  O394  1  0.22836804  0.91929167  0.55808776  1
  O  O395  1  0.22847271  0.91764654  0.80669524  1
  O  O396  1  0.72705294  0.25008877  0.06003726  1
  O  O397  1  0.72774129  0.25144355  0.30787087  1
  O  O398  1  0.72817963  0.24829938  0.55802017  1
  O  O399  1  0.72785224  0.25167426  0.80868393  1
  O  O400  1  0.72783823  0.58091178  0.05822315  1
  O  O401  1  0.72789929  0.58140899  0.30777039  1
  O  O402  1  0.72888071  0.58335039  0.55612613  1
  O  O403  1  0.72774292  0.58468719  0.80792634  1
  O  O404  1  0.72650321  0.91533282  0.05907803  1
  O  O405  1  0.72744224  0.91439418  0.30752028  1
  O  O406  1  0.72827516  0.91516665  0.55839155  1
  O  O407  1  0.72873662  0.91643019  0.80693126  1
  O  O408  1  0.27156517  0.08568904  0.19183884  1
  O  O409  1  0.27203246  0.08282050  0.44203216  1
  O  O410  1  0.27287555  0.08422474  0.69082893  1
  O  O411  1  0.27198766  0.08531544  0.94241134  1
  O  O412  1  0.27205301  0.41854690  0.19167422  1
  O  O413  1  0.27273307  0.41641402  0.44031075  1
  O  O414  1  0.27136818  0.41545945  0.69332876  1
  O  O415  1  0.27163320  0.41425024  0.94198671  1
  O  O416  1  0.27196708  0.75213606  0.19198876  1
  O  O417  1  0.27137536  0.75075507  0.44302222  1
  O  O418  1  0.27192392  0.75064740  0.69330230  1
  O  O419  1  0.27182016  0.75012560  0.94369843  1
  O  O420  1  0.77273127  0.08306173  0.19092027  1
  O  O421  1  0.77140764  0.08285282  0.44277642  1
  O  O422  1  0.77258522  0.08507989  0.69220735  1
  O  O423  1  0.77162854  0.08326277  0.94420607  1
  O  O424  1  0.77276837  0.41618911  0.19065090  1
  O  O425  1  0.77292057  0.41559156  0.44013767  1
  O  O426  1  0.77151361  0.41652580  0.69342608  1
  O  O427  1  0.77189112  0.41488498  0.94221195  1
  O  O428  1  0.77155263  0.75061119  0.19175342  1
  O  O429  1  0.77195307  0.75134247  0.44121642  1
  O  O430  1  0.77261875  0.75166893  0.69185342  1
  O  O431  1  0.77207209  0.74783200  0.94240011  1
  O  O432  1  0.02148085  0.08366059  0.18123522  1
  O  O433  1  0.02108242  0.08333369  0.43159148  1
  O  O434  1  0.02197569  0.08423578  0.68362033  1
  O  O435  1  0.02206911  0.08282952  0.93452225  1
  O  O436  1  0.02311639  0.41635104  0.18358794  1
  O  O437  1  0.02250670  0.41726596  0.43122802  1
  O  O438  1  0.02161068  0.41808338  0.68376171  1
  O  O439  1  0.02178010  0.41541766  0.93338539  1
  O  O440  1  0.02198055  0.74821618  0.18270301  1
  O  O441  1  0.02220291  0.75170712  0.43351167  1
  O  O442  1  0.02285767  0.75023493  0.68525104  1
  O  O443  1  0.02265894  0.74911133  0.93457280  1
  O  O444  1  0.52268774  0.08309205  0.18406141  1
  O  O445  1  0.52231419  0.08538646  0.43345796  1
  O  O446  1  0.52311700  0.08287759  0.68502093  1
  O  O447  1  0.52196604  0.08081705  0.93349469  1
  O  O448  1  0.52154672  0.41611537  0.18133002  1
  O  O449  1  0.52279216  0.41793142  0.43335231  1
  O  O450  1  0.52221138  0.41754107  0.68317580  1
  O  O451  1  0.52223841  0.41825467  0.93291476  1
  O  O452  1  0.52200191  0.75222581  0.18248830  1
  O  O453  1  0.52161171  0.75059202  0.43144734  1
  O  O454  1  0.52305316  0.75044781  0.68425259  1
  O  O455  1  0.52206943  0.75183548  0.93271734  1
  O  O456  1  0.47811512  0.24942431  0.06814519  1
  O  O457  1  0.47785236  0.24802159  0.31717361  1
  O  O458  1  0.47824404  0.24852682  0.56719757  1
  O  O459  1  0.47786224  0.24833530  0.81716030  1
  O  O460  1  0.47804936  0.58241992  0.06614489  1
  O  O461  1  0.47888352  0.58388560  0.31789086  1
  O  O462  1  0.47858437  0.58177080  0.56646754  1
  O  O463  1  0.47728400  0.58283137  0.81535982  1
  O  O464  1  0.47672100  0.91660410  0.06542743  1
  O  O465  1  0.47722772  0.91718340  0.31559816  1
  O  O466  1  0.47851800  0.91744652  0.56836785  1
  O  O467  1  0.47776719  0.91649284  0.81538692  1
  O  O468  1  0.97675685  0.25059522  0.06549926  1
  O  O469  1  0.97801646  0.25195030  0.31649638  1
  O  O470  1  0.97854378  0.25052243  0.56840473  1
  O  O471  1  0.97732927  0.24804456  0.81710595  1
  O  O472  1  0.97775074  0.58466800  0.06670483  1
  O  O473  1  0.97731296  0.58463352  0.31526296  1
  O  O474  1  0.97876171  0.58364603  0.56852767  1
  O  O475  1  0.97715800  0.58283953  0.81604188  1
  O  O476  1  0.97680000  0.91725997  0.06560732  1
  O  O477  1  0.97831259  0.91629668  0.31793956  1
  O  O478  1  0.97761069  0.91479196  0.56725158  1
  O  O479  1  0.97788719  0.91497426  0.81740370  1
  O  O480  1  0.07201327  0.31422757  0.07284582  1
  O  O481  1  0.07339984  0.31497497  0.32317758  1
  O  O482  1  0.07400994  0.31381785  0.57577909  1
  O  O483  1  0.07275201  0.31160461  0.82572690  1
  O  O484  1  0.07305917  0.64772469  0.07397750  1
  O  O485  1  0.07260169  0.64803095  0.32302906  1
  O  O486  1  0.07418883  0.64690246  0.57604835  1
  O  O487  1  0.07208155  0.64680993  0.82392989  1
  O  O488  1  0.07263808  0.97989814  0.07303005  1
  O  O489  1  0.07342467  0.98025716  0.32522779  1
  O  O490  1  0.07247352  0.97925275  0.57586802  1
  O  O491  1  0.07315802  0.97886415  0.82542933  1
  O  O492  1  0.57363082  0.31252578  0.07566057  1
  O  O493  1  0.57282733  0.31245030  0.32512912  1
  O  O494  1  0.57369060  0.31196219  0.57556348  1
  O  O495  1  0.57330729  0.31194897  0.82492357  1
  O  O496  1  0.57343105  0.64622377  0.07357003  1
  O  O497  1  0.57430935  0.64714706  0.32498163  1
  O  O498  1  0.57353036  0.64623424  0.57497377  1
  O  O499  1  0.57162053  0.64725805  0.82312129  1
  O  O500  1  0.57162341  0.98035912  0.07343149  1
  O  O501  1  0.57223572  0.98102980  0.32277059  1
  O  O502  1  0.57426273  0.98011688  0.57597789  1
  O  O503  1  0.57294311  0.97995318  0.82393373  1
  O  O504  1  0.42758662  0.01934632  0.17732792  1
  O  O505  1  0.42746370  0.02088617  0.42555431  1
  O  O506  1  0.42792860  0.01964464  0.67648166  1
  O  O507  1  0.42671698  0.01790551  0.92571301  1
  O  O508  1  0.42572447  0.35342925  0.17430055  1
  O  O509  1  0.42747261  0.35399518  0.42587270  1
  O  O510  1  0.42671560  0.35411643  0.67472688  1
  O  O511  1  0.42724999  0.35388613  0.92419325  1
  O  O512  1  0.42697192  0.68792944  0.17434439  1
  O  O513  1  0.42608949  0.68743869  0.42405857  1
  O  O514  1  0.42852242  0.68617841  0.67685445  1
  O  O515  1  0.42685452  0.68790893  0.92480507  1
  O  O516  1  0.92616098  0.01994820  0.17387835  1
  O  O517  1  0.92535864  0.02033891  0.42482074  1
  O  O518  1  0.92650002  0.02060640  0.67582707  1
  O  O519  1  0.92694506  0.01915447  0.92619561  1
  O  O520  1  0.92761270  0.35320499  0.17624554  1
  O  O521  1  0.92696135  0.35407235  0.42426299  1
  O  O522  1  0.92615683  0.35432072  0.67556076  1
  O  O523  1  0.92677235  0.35208353  0.92556469  1
  O  O524  1  0.92646367  0.68559519  0.17564920  1
  O  O525  1  0.92718012  0.68711152  0.42596599  1
  O  O526  1  0.92819416  0.68627084  0.67716571  1
  O  O527  1  0.92740680  0.68573171  0.92623495  1
  O  O528  1  0.17570720  0.02242695  0.19922939  1
  O  O529  1  0.17702287  0.01930129  0.44928628  1
  O  O530  1  0.17811892  0.02000227  0.69892339  1
  O  O531  1  0.17703195  0.02093001  0.94985886  1
  O  O532  1  0.17676021  0.35484622  0.19954671  1
  O  O533  1  0.17787145  0.35245930  0.44774392  1
  O  O534  1  0.17569452  0.35214614  0.70006273  1
  O  O535  1  0.17643875  0.35137487  0.94969049  1
  O  O536  1  0.17655081  0.68842536  0.19975821  1
  O  O537  1  0.17581650  0.68732944  0.44988771  1
  O  O538  1  0.17675609  0.68641721  0.70007779  1
  O  O539  1  0.17646491  0.68657701  0.95138135  1
  O  O540  1  0.67806567  0.01901566  0.19826638  1
  O  O541  1  0.67608052  0.01940049  0.45060564  1
  O  O542  1  0.67726051  0.02124020  0.70004310  1
  O  O543  1  0.67650935  0.01925807  0.95095141  1
  O  O544  1  0.67751206  0.35266920  0.19899236  1
  O  O545  1  0.67765192  0.35237390  0.44802480  1
  O  O546  1  0.67567424  0.35355326  0.69988546  1
  O  O547  1  0.67702956  0.35111339  0.94982691  1
  O  O548  1  0.67622530  0.68680813  0.20010365  1
  O  O549  1  0.67669202  0.68756647  0.44973045  1
  O  O550  1  0.67722598  0.68763935  0.69857859  1
  O  O551  1  0.67702010  0.68450809  0.94920330  1
  O  O552  1  0.32323120  0.31223341  0.04983126  1
  O  O553  1  0.32301014  0.31549678  0.30053889  1
  O  O554  1  0.32323059  0.31264929  0.55087262  1
  O  O555  1  0.32246362  0.31310796  0.80163529  1
  O  O556  1  0.32372094  0.64519345  0.05044447  1
  O  O557  1  0.32287249  0.64664965  0.29919868  1
  O  O558  1  0.32444819  0.64620436  0.54898032  1
  O  O559  1  0.32369887  0.64656189  0.80039659  1
  O  O560  1  0.32307763  0.97994482  0.05072445  1
  O  O561  1  0.32259308  0.98302052  0.30012341  1
  O  O562  1  0.32369479  0.98254740  0.55143449  1
  O  O563  1  0.32402426  0.98102906  0.80015561  1
  O  O564  1  0.82251151  0.31334491  0.05239348  1
  O  O565  1  0.82291192  0.31431210  0.30002732  1
  O  O566  1  0.82347661  0.31260698  0.55053277  1
  O  O567  1  0.82299118  0.31484611  0.80172192  1
  O  O568  1  0.82330344  0.64473483  0.05097830  1
  O  O569  1  0.82291915  0.64540995  0.29912834  1
  O  O570  1  0.82444295  0.64642643  0.54861254  1
  O  O571  1  0.82264707  0.64846346  0.80145966  1
  O  O572  1  0.82122876  0.97942617  0.05253718  1
  O  O573  1  0.82248886  0.97866319  0.29952310  1
  O  O574  1  0.82367250  0.97870494  0.54975736  1
  O  O575  1  0.82384555  0.98051817  0.80005894  1
  O  O576  1  0.42775740  0.14668065  0.17650088  1
  O  O577  1  0.42684399  0.14782252  0.42593660  1
  O  O578  1  0.42837762  0.14699536  0.67764231  1
  O  O579  1  0.42688056  0.14480070  0.92528372  1
  O  O580  1  0.42642960  0.48026162  0.17471124  1
  O  O581  1  0.42774316  0.48131839  0.42598226  1
  O  O582  1  0.42715587  0.48116335  0.67577392  1
  O  O583  1  0.42697747  0.48116694  0.92544411  1
  O  O584  1  0.42661016  0.81508611  0.17542743  1
  O  O585  1  0.42623126  0.81430517  0.42495163  1
  O  O586  1  0.42775442  0.81371592  0.67623146  1
  O  O587  1  0.42682743  0.81482380  0.92522012  1
  O  O588  1  0.92603161  0.14677029  0.17335316  1
  O  O589  1  0.92594844  0.14740435  0.42458646  1
  O  O590  1  0.92715341  0.14786127  0.67662508  1
  O  O591  1  0.92706687  0.14653847  0.92716697  1
  O  O592  1  0.92882150  0.48063938  0.17586366  1
  O  O593  1  0.92722254  0.48081004  0.42351731  1
  O  O594  1  0.92657920  0.48150775  0.67657177  1
  O  O595  1  0.92643935  0.47914238  0.92554967  1
  O  O596  1  0.92711244  0.81255742  0.17456820  1
  O  O597  1  0.92698790  0.81423334  0.42597594  1
  O  O598  1  0.92766483  0.81358424  0.67766448  1
  O  O599  1  0.92798379  0.81293737  0.92721999  1
  O  O600  1  0.07153579  0.18683019  0.07352354  1
  O  O601  1  0.07316036  0.18779942  0.32376031  1
  O  O602  1  0.07396351  0.18691240  0.57483030  1
  O  O603  1  0.07214786  0.18462299  0.82528641  1
  O  O604  1  0.07290313  0.52086295  0.07507663  1
  O  O605  1  0.07181985  0.52055797  0.32208727  1
  O  O606  1  0.07415606  0.52019996  0.57512960  1
  O  O607  1  0.07204154  0.51927393  0.82480660  1
  O  O608  1  0.07094717  0.85235673  0.07304709  1
  O  O609  1  0.07403806  0.85344273  0.32476958  1
  O  O610  1  0.07291575  0.85200821  0.57470262  1
  O  O611  1  0.07307533  0.85191411  0.82545078  1
  O  O612  1  0.57337968  0.18567380  0.07568018  1
  O  O613  1  0.57338822  0.18535165  0.32377119  1
  O  O614  1  0.57316638  0.18487656  0.57475725  1
  O  O615  1  0.57282218  0.18464339  0.82475745  1
  O  O616  1  0.57301678  0.51893362  0.07324317  1
  O  O617  1  0.57438224  0.52025945  0.32446139  1
  O  O618  1  0.57394011  0.51912647  0.57419936  1
  O  O619  1  0.57279379  0.51982248  0.82330642  1
  O  O620  1  0.57182248  0.85325353  0.07319273  1
  O  O621  1  0.57221576  0.85363590  0.32266785  1
  O  O622  1  0.57349725  0.85338144  0.57547487  1
  O  O623  1  0.57266634  0.85278256  0.82369624  1
  O  O624  1  0.32302402  0.18536700  0.05090457  1
  O  O625  1  0.32351621  0.18841061  0.30045543  1
  O  O626  1  0.32375161  0.18561111  0.55096781  1
  O  O627  1  0.32211420  0.18576232  0.80216459  1
  O  O628  1  0.32275869  0.51791049  0.05086369  1
  O  O629  1  0.32321303  0.51942547  0.30082701  1
  O  O630  1  0.32398079  0.51919288  0.54953988  1
  O  O631  1  0.32397893  0.51952386  0.80000009  1
  O  O632  1  0.32255798  0.85268168  0.05145183  1
  O  O633  1  0.32297605  0.85585049  0.30038887  1
  O  O634  1  0.32355347  0.85541150  0.54987107  1
  O  O635  1  0.32372042  0.85413377  0.79912684  1
  O  O636  1  0.82158686  0.18599636  0.05187608  1
  O  O637  1  0.82280293  0.18727522  0.29934143  1
  O  O638  1  0.82324927  0.18546097  0.55078368  1
  O  O639  1  0.82316857  0.18774309  0.80196273  1
  O  O640  1  0.82287533  0.51765201  0.05049274  1
  O  O641  1  0.82309380  0.51820198  0.30027625  1
  O  O642  1  0.82413938  0.51949762  0.54954491  1
  O  O643  1  0.82320462  0.52129493  0.80048953  1
  O  O644  1  0.82170679  0.85185206  0.05145578  1
  O  O645  1  0.82289113  0.85165143  0.30011060  1
  O  O646  1  0.82325384  0.85164202  0.55117517  1
  O  O647  1  0.82450661  0.85363994  0.80076513  1
  O  O648  1  0.17691862  0.14951972  0.19907460  1
  O  O649  1  0.17653937  0.14614096  0.44999097  1
  O  O650  1  0.17764833  0.14739939  0.69854059  1
  O  O651  1  0.17641896  0.14792198  0.94863714  1
  O  O652  1  0.17697026  0.48177356  0.19882020  1
  O  O653  1  0.17769603  0.48006957  0.44799253  1
  O  O654  1  0.17621677  0.47904185  0.70088003  1
  O  O655  1  0.17635693  0.47849669  0.94960314  1
  O  O656  1  0.17698891  0.81576700  0.19887721  1
  O  O657  1  0.17606145  0.81437717  0.45042258  1
  O  O658  1  0.17624483  0.81353063  0.70025325  1
  O  O659  1  0.17629999  0.81351637  0.95038896  1
  O  O660  1  0.67769327  0.14664538  0.19884757  1
  O  O661  1  0.67594398  0.14622765  0.44967849  1
  O  O662  1  0.67773825  0.14858261  0.69941615  1
  O  O663  1  0.67593806  0.14600929  0.95177001  1
  O  O664  1  0.67781993  0.47977336  0.19843096  1
  O  O665  1  0.67833038  0.47990977  0.44769551  1
  O  O666  1  0.67656628  0.48044972  0.70019770  1
  O  O667  1  0.67642369  0.47809952  0.95018927  1
  O  O668  1  0.67638773  0.81386076  0.19845530  1
  O  O669  1  0.67670307  0.81468123  0.44846204  1
  O  O670  1  0.67757053  0.81474028  0.69980463  1
  O  O671  1  0.67670406  0.81168147  0.94953125  1
