# generated using pymatgen
data_Na2MnFe(PO4)2
_symmetry_space_group_name_H-M   'P 1'
_cell_length_a   22.34725743
_cell_length_b   20.09554586
_cell_length_c   19.44512821
_cell_angle_alpha   89.99255620
_cell_angle_beta   89.96916252
_cell_angle_gamma   90.02982398
_symmetry_Int_Tables_number   1
_chemical_formula_structural   Na2MnFe(PO4)2
_chemical_formula_sum   'Na96 Mn48 Fe48 P96 O384'
_cell_volume   8732.42219552
_cell_formula_units_Z   48
loop_
 _symmetry_equiv_pos_site_id
 _symmetry_equiv_pos_as_xyz
  1  'x, y, z'
loop_
 _atom_site_type_symbol
 _atom_site_label
 _atom_site_symmetry_multiplicity
 _atom_site_fract_x
 _atom_site_fract_y
 _atom_site_fract_z
 _atom_site_occupancy
  Na  Na0  1  0.13919051  0.24932166  0.24391636  1
  Na  Na1  1  0.13926173  0.24954142  0.49374967  1
  Na  Na2  1  0.13970966  0.24907898  0.74271950  1
  Na  Na3  1  0.14024283  0.24878584  0.99260397  1
  Na  Na4  1  0.14068620  0.58408796  0.24456363  1
  Na  Na5  1  0.14070046  0.58434426  0.49503949  1
  Na  Na6  1  0.14023932  0.58380163  0.74356181  1
  Na  Na7  1  0.14042049  0.58237442  0.99257615  1
  Na  Na8  1  0.14107020  0.91666354  0.24453939  1
  Na  Na9  1  0.14076486  0.91730919  0.49396923  1
  Na  Na10  1  0.14135525  0.91714430  0.74268396  1
  Na  Na11  1  0.14117224  0.91598285  0.99407526  1
  Na  Na12  1  0.63967546  0.24901664  0.24267820  1
  Na  Na13  1  0.64001043  0.24942171  0.49266430  1
  Na  Na14  1  0.63972396  0.25024704  0.74299567  1
  Na  Na15  1  0.63966141  0.24845655  0.99396145  1
  Na  Na16  1  0.64046302  0.58504237  0.24479818  1
  Na  Na17  1  0.64043079  0.58444672  0.49360123  1
  Na  Na18  1  0.64053687  0.58365208  0.74315978  1
  Na  Na19  1  0.64055291  0.58425173  0.99527362  1
  Na  Na20  1  0.64147430  0.91714318  0.24366485  1
  Na  Na21  1  0.64088577  0.91613812  0.49363592  1
  Na  Na22  1  0.64067505  0.91650546  0.74329525  1
  Na  Na23  1  0.64090483  0.91654930  0.99468286  1
  Na  Na24  1  0.35959748  0.08255844  0.00580341  1
  Na  Na25  1  0.35976650  0.08332205  0.25567136  1
  Na  Na26  1  0.35943102  0.08337784  0.50599942  1
  Na  Na27  1  0.35902141  0.08374130  0.75582782  1
  Na  Na28  1  0.35897518  0.41459903  0.00527078  1
  Na  Na29  1  0.35926986  0.41504047  0.25575184  1
  Na  Na30  1  0.35914470  0.41609489  0.50661909  1
  Na  Na31  1  0.35908619  0.41565986  0.75786026  1
  Na  Na32  1  0.35978812  0.74835796  0.00594294  1
  Na  Na33  1  0.36026166  0.75002093  0.25690306  1
  Na  Na34  1  0.36011917  0.75145269  0.50788851  1
  Na  Na35  1  0.35999736  0.75042993  0.75621724  1
  Na  Na36  1  0.85941368  0.08261812  0.00584518  1
  Na  Na37  1  0.85946214  0.08399605  0.25618035  1
  Na  Na38  1  0.85944446  0.08449627  0.50567538  1
  Na  Na39  1  0.85940684  0.08453081  0.75464893  1
  Na  Na40  1  0.85961989  0.41659255  0.00635132  1
  Na  Na41  1  0.85934875  0.41658988  0.25799986  1
  Na  Na42  1  0.85938802  0.41710579  0.50728271  1
  Na  Na43  1  0.85972540  0.41647124  0.75565016  1
  Na  Na44  1  0.85964274  0.75102084  0.00728346  1
  Na  Na45  1  0.85985971  0.75081201  0.25666929  1
  Na  Na46  1  0.86004403  0.75022971  0.50665402  1
  Na  Na47  1  0.85992994  0.75050368  0.75551267  1
  Na  Na48  1  0.11007662  0.08440492  0.11858273  1
  Na  Na49  1  0.10955699  0.08481309  0.36881617  1
  Na  Na50  1  0.10990025  0.08421412  0.61774647  1
  Na  Na51  1  0.11032708  0.08415216  0.86705434  1
  Na  Na52  1  0.10912805  0.41603912  0.11923765  1
  Na  Na53  1  0.10883066  0.41597163  0.37017849  1
  Na  Na54  1  0.10917236  0.41596227  0.61985714  1
  Na  Na55  1  0.10925899  0.41654015  0.86662975  1
  Na  Na56  1  0.11027273  0.75078621  0.11925789  1
  Na  Na57  1  0.11055191  0.75133062  0.36977380  1
  Na  Na58  1  0.11034400  0.74870313  0.61831572  1
  Na  Na59  1  0.10999130  0.74886727  0.86797845  1
  Na  Na60  1  0.61016100  0.08430766  0.11815981  1
  Na  Na61  1  0.61019669  0.08429758  0.36761219  1
  Na  Na62  1  0.60971027  0.08307922  0.61738556  1
  Na  Na63  1  0.60971992  0.08323151  0.86858670  1
  Na  Na64  1  0.60904412  0.41592065  0.11963274  1
  Na  Na65  1  0.60922060  0.41705011  0.36878957  1
  Na  Na66  1  0.60908036  0.41602302  0.61832100  1
  Na  Na67  1  0.60948039  0.41598050  0.86928887  1
  Na  Na68  1  0.61051770  0.74927264  0.11953240  1
  Na  Na69  1  0.61025500  0.74986129  0.36950674  1
  Na  Na70  1  0.61027278  0.75022105  0.61815726  1
  Na  Na71  1  0.61001551  0.74935069  0.86956247  1
  Na  Na72  1  0.38962198  0.24911582  0.13025011  1
  Na  Na73  1  0.38977530  0.24934587  0.38015701  1
  Na  Na74  1  0.38979684  0.24857248  0.63110770  1
  Na  Na75  1  0.38972393  0.24937235  0.88145698  1
  Na  Na76  1  0.39041157  0.58248488  0.13021066  1
  Na  Na77  1  0.39066930  0.58468006  0.38170410  1
  Na  Na78  1  0.39029923  0.58437151  0.63246632  1
  Na  Na79  1  0.39028419  0.58210768  0.88176205  1
  Na  Na80  1  0.39051404  0.91572652  0.13164903  1
  Na  Na81  1  0.39063551  0.91654345  0.38227228  1
  Na  Na82  1  0.39021209  0.91640831  0.63114575  1
  Na  Na83  1  0.39061405  0.91585354  0.88102882  1
  Na  Na84  1  0.89011670  0.24978508  0.13196384  1
  Na  Na85  1  0.88998398  0.25078885  0.38181884  1
  Na  Na86  1  0.88972695  0.25094077  0.63116710  1
  Na  Na87  1  0.88986437  0.25038143  0.87927832  1
  Na  Na88  1  0.89052102  0.58419311  0.13296626  1
  Na  Na89  1  0.89028181  0.58374779  0.38252523  1
  Na  Na90  1  0.89056504  0.58265773  0.63119447  1
  Na  Na91  1  0.89016094  0.58354883  0.88031121  1
  Na  Na92  1  0.89034179  0.91807542  0.13202376  1
  Na  Na93  1  0.89067181  0.91768004  0.38094864  1
  Na  Na94  1  0.89056214  0.91601848  0.63101486  1
  Na  Na95  1  0.89012727  0.91763859  0.88078830  1
  Mn  Mn96  1  0.50062795  0.83239119  0.25081573  1
  Mn  Mn97  1  0.49876385  0.50037426  0.49964766  1
  Mn  Mn98  1  0.74981516  0.83442823  0.87557700  1
  Mn  Mn99  1  0.50023176  0.00001122  0.49986733  1
  Mn  Mn100  1  0.24965763  0.49899629  0.12414506  1
  Mn  Mn101  1  0.75021812  0.00059084  0.62396644  1
  Mn  Mn102  1  0.25020598  0.83314617  0.87421893  1
  Mn  Mn103  1  0.24861347  0.33159335  0.12482651  1
  Mn  Mn104  1  0.74975510  0.50107164  0.12633496  1
  Mn  Mn105  1  0.49965703  0.50024255  0.24960547  1
  Mn  Mn106  1  0.00047510  0.00066898  0.74928981  1
  Mn  Mn107  1  0.50066912  0.00026281  0.00042138  1
  Mn  Mn108  1  0.00073330  0.83252905  0.75048169  1
  Mn  Mn109  1  0.74976577  0.50024641  0.87522398  1
  Mn  Mn110  1  0.25060381  0.66680018  0.12470275  1
  Mn  Mn111  1  0.50068721  0.66685560  0.75044889  1
  Mn  Mn112  1  0.74956475  0.33318770  0.37528939  1
  Mn  Mn113  1  0.50045405  0.83196965  0.00123421  1
  Mn  Mn114  1  0.49905655  0.33237722  0.49889911  1
  Mn  Mn115  1  0.75017492  0.66762830  0.87498794  1
  Mn  Mn116  1  0.74963712  0.50059116  0.62490969  1
  Mn  Mn117  1  0.49985784  0.16670178  0.74955666  1
  Mn  Mn118  1  0.75067543  0.83359818  0.37451004  1
  Mn  Mn119  1  0.75007045  0.16580340  0.87425386  1
  Mn  Mn120  1  0.50016335  0.49901685  0.00044188  1
  Mn  Mn121  1  0.00035288  0.49937663  0.25121122  1
  Mn  Mn122  1  0.25080967  0.66823832  0.37474740  1
  Mn  Mn123  1  0.25017905  0.50023848  0.37570721  1
  Mn  Mn124  1  0.50053374  0.00095243  0.25085976  1
  Mn  Mn125  1  0.24976413  0.50076095  0.62627326  1
  Mn  Mn126  1  0.00025209  0.66650513  0.50010337  1
  Mn  Mn127  1  0.00007274  0.83377399  -0.00030864  1
  Mn  Mn128  1  0.00007063  0.66682601  0.00024101  1
  Mn  Mn129  1  0.74960798  0.33281006  0.87545412  1
  Mn  Mn130  1  0.25017218  0.00012554  0.37482977  1
  Mn  Mn131  1  0.74923173  0.33263962  0.12615576  1
  Mn  Mn132  1  -0.00027104  0.50001469  0.00005279  1
  Mn  Mn133  1  0.50037169  0.49873893  0.75058287  1
  Mn  Mn134  1  0.24890456  0.33197832  0.37564888  1
  Mn  Mn135  1  -0.00016463  0.16746062  -0.00052249  1
  Mn  Mn136  1  0.49976815  -0.00120553  0.74941040  1
  Mn  Mn137  1  -0.00001711  0.33337695  -0.00070644  1
  Mn  Mn138  1  0.00084386  0.00102856  0.25043927  1
  Mn  Mn139  1  0.00067499  0.00097542  -0.00009722  1
  Mn  Mn140  1  0.00000826  0.00032695  0.49958344  1
  Mn  Mn141  1  0.24950546  0.33242578  0.62589783  1
  Mn  Mn142  1  0.00095932  0.66789181  0.25155793  1
  Mn  Mn143  1  0.25039034  -0.00066035  0.12500161  1
  Fe  Fe144  1  0.24950936  0.16541262  0.87446348  1
  Fe  Fe145  1  0.50015337  0.16677808  0.49930417  1
  Fe  Fe146  1  0.49969873  0.33249324  0.74970967  1
  Fe  Fe147  1  0.49916037  0.33287095  0.24941326  1
  Fe  Fe148  1  0.24970876  0.16610282  0.37522473  1
  Fe  Fe149  1  0.75013591  0.16579475  0.12462234  1
  Fe  Fe150  1  0.50055274  0.83263539  0.75039086  1
  Fe  Fe151  1  0.75069204  0.83398510  0.12543067  1
  Fe  Fe152  1  0.00044000  0.83434680  0.25025214  1
  Fe  Fe153  1  0.24987950  0.00078494  0.62453534  1
  Fe  Fe154  1  -0.00042829  0.66605018  0.74927099  1
  Fe  Fe155  1  0.25085328  0.83403055  0.37594207  1
  Fe  Fe156  1  0.25052122  -0.00032847  0.87468224  1
  Fe  Fe157  1  0.24978307  0.66678913  0.87480154  1
  Fe  Fe158  1  0.74984970  0.16653348  0.37448884  1
  Fe  Fe159  1  0.50076953  0.83316617  0.50018860  1
  Fe  Fe160  1  0.49976461  0.66661296  0.25094288  1
  Fe  Fe161  1  0.75022485  0.66751260  0.37517975  1
  Fe  Fe162  1  0.00027524  0.83331976  0.50048901  1
  Fe  Fe163  1  0.50018439  0.66576669  -0.00000141  1
  Fe  Fe164  1  0.24942875  0.33199348  0.87510304  1
  Fe  Fe165  1  -0.00039708  0.49979997  0.74948221  1
  Fe  Fe166  1  0.25076780  0.66727392  0.62533200  1
  Fe  Fe167  1  0.24953598  0.16556375  0.12417014  1
  Fe  Fe168  1  -0.00060563  0.16764562  0.49965124  1
  Fe  Fe169  1  -0.00005840  0.16766972  0.25010540  1
  Fe  Fe170  1  0.50016403  0.66714819  0.50090562  1
  Fe  Fe171  1  0.74989070  0.50079192  0.37607743  1
  Fe  Fe172  1  0.24975389  0.16644079  0.62542181  1
  Fe  Fe173  1  0.00035207  0.49932402  0.50090367  1
  Fe  Fe174  1  0.49959705  0.16732486  0.24891520  1
  Fe  Fe175  1  0.49954829  0.33248585  -0.00002767  1
  Fe  Fe176  1  0.75093823  0.66712745  0.12565927  1
  Fe  Fe177  1  0.75060107  0.83390730  0.62428588  1
  Fe  Fe178  1  -0.00063205  0.33320040  0.50036016  1
  Fe  Fe179  1  0.75005921  0.00031957  0.12498759  1
  Fe  Fe180  1  0.75071944  0.66729891  0.62449174  1
  Fe  Fe181  1  0.74990002  -0.00005175  0.87481600  1
  Fe  Fe182  1  0.24969435  0.49977692  0.87479130  1
  Fe  Fe183  1  0.49963621  0.16696184  -0.00050944  1
  Fe  Fe184  1  0.74884380  0.33364976  0.62429478  1
  Fe  Fe185  1  0.25031241  0.83412453  0.62568662  1
  Fe  Fe186  1  0.25077307  0.83285422  0.12434522  1
  Fe  Fe187  1  -0.00051000  0.16715490  0.74855579  1
  Fe  Fe188  1  0.74892725  0.16689182  0.62446649  1
  Fe  Fe189  1  0.75036697  0.00057266  0.37415944  1
  Fe  Fe190  1  -0.00069945  0.33360530  0.25098160  1
  Fe  Fe191  1  -0.00061422  0.33317884  0.74870689  1
  P  P192  1  0.04260365  0.25042296  0.10365195  1
  P  P193  1  0.04072242  0.25067448  0.35270134  1
  P  P194  1  0.04081933  0.25031905  0.60202660  1
  P  P195  1  0.04096506  0.25004124  0.85022672  1
  P  P196  1  0.04321411  0.58338635  0.10351996  1
  P  P197  1  0.04306709  0.58300255  0.35450404  1
  P  P198  1  0.04192910  0.58156109  0.60339625  1
  P  P199  1  0.04120391  0.58319747  0.85095282  1
  P  P200  1  0.04303884  0.91714439  0.10363460  1
  P  P201  1  0.04245998  0.91594851  0.35313595  1
  P  P202  1  0.04238550  0.91572054  0.60233580  1
  P  P203  1  0.04356219  0.91706998  0.85275583  1
  P  P204  1  0.54096503  0.24976654  0.10195568  1
  P  P205  1  0.54132445  0.24985883  0.35102902  1
  P  P206  1  0.54206670  0.24889744  0.60192965  1
  P  P207  1  0.54190310  0.25095114  0.85279363  1
  P  P208  1  0.54213009  0.58430261  0.10320281  1
  P  P209  1  0.54192990  0.58476970  0.35326483  1
  P  P210  1  0.54206864  0.58410772  0.60253706  1
  P  P211  1  0.54305441  0.58278415  0.85376561  1
  P  P212  1  0.54322926  0.91655203  0.10378660  1
  P  P213  1  0.54320235  0.91636476  0.35388628  1
  P  P214  1  0.54248868  0.91505934  0.60270600  1
  P  P215  1  0.54257057  0.91501288  0.85262378  1
  P  P216  1  0.45805649  0.08467770  0.14698631  1
  P  P217  1  0.45805340  0.08504769  0.39693400  1
  P  P218  1  0.45733697  0.08295263  0.64621697  1
  P  P219  1  0.45791109  0.08410993  0.89741493  1
  P  P220  1  0.45729161  0.41477342  0.14696301  1
  P  P221  1  0.45646591  0.41630314  0.39590190  1
  P  P222  1  0.45696132  0.41485269  0.64771694  1
  P  P223  1  0.45776275  0.41443961  0.89735295  1
  P  P224  1  0.45811682  0.74782147  0.14780493  1
  P  P225  1  0.45876396  0.74969565  0.39893599  1
  P  P226  1  0.45854307  0.75130687  0.64718131  1
  P  P227  1  0.45796823  0.74845110  0.89764985  1
  P  P228  1  0.95799561  0.08508868  0.14793305  1
  P  P229  1  0.95811757  0.08553392  0.39702834  1
  P  P230  1  0.95782282  0.08498360  0.64617606  1
  P  P231  1  0.95733715  0.08424356  0.89572862  1
  P  P232  1  0.95712873  0.41552620  0.14846062  1
  P  P233  1  0.95794803  0.41638910  0.39901091  1
  P  P234  1  0.95838832  0.41676877  0.64741745  1
  P  P235  1  0.95708094  0.41691943  0.89557924  1
  P  P236  1  0.95818387  0.75170151  0.14832230  1
  P  P237  1  0.95826215  0.75213154  0.39763628  1
  P  P238  1  0.95839431  0.74891988  0.64702064  1
  P  P239  1  0.95703487  0.74952916  0.89633559  1
  P  P240  1  0.20783768  0.08410444  0.22758774  1
  P  P241  1  0.20766937  0.08420293  0.47817146  1
  P  P242  1  0.20828350  0.08318930  0.72693367  1
  P  P243  1  0.20841107  0.08240155  0.97639779  1
  P  P244  1  0.20680904  0.41599535  0.22822641  1
  P  P245  1  0.20686661  0.41654442  0.47894595  1
  P  P246  1  0.20749916  0.41644327  0.72967911  1
  P  P247  1  0.20787657  0.41576164  0.97583748  1
  P  P248  1  0.20862982  0.75193406  0.22773722  1
  P  P249  1  0.20865247  0.75200686  0.47883031  1
  P  P250  1  0.20903997  0.74991325  0.72686290  1
  P  P251  1  0.20787065  0.74897264  0.97725566  1
  P  P252  1  0.70857491  0.08321486  0.22688650  1
  P  P253  1  0.70865491  0.08332487  0.47612314  1
  P  P254  1  0.70720008  0.08414097  0.72678966  1
  P  P255  1  0.70790185  0.08156620  0.97784482  1
  P  P256  1  0.70701088  0.41734038  0.22956742  1
  P  P257  1  0.70761438  0.41777604  0.47791219  1
  P  P258  1  0.70734026  0.41579516  0.72713669  1
  P  P259  1  0.70698479  0.41670393  0.97893682  1
  P  P260  1  0.70943809  0.75024925  0.22716742  1
  P  P261  1  0.70868826  0.74942880  0.47801927  1
  P  P262  1  0.70906128  0.75073441  0.72601875  1
  P  P263  1  0.70777873  0.75060980  0.97947245  1
  P  P264  1  0.29117892  0.24766480  0.02121517  1
  P  P265  1  0.29133871  0.24769317  0.27217395  1
  P  P266  1  0.29148478  0.24811483  0.52264140  1
  P  P267  1  0.29069464  0.24869549  0.77324564  1
  P  P268  1  0.29238672  0.58261975  0.02054776  1
  P  P269  1  0.29322236  0.58345928  0.27188500  1
  P  P270  1  0.29261258  0.58496795  0.52325217  1
  P  P271  1  0.29157607  0.58400847  0.77341430  1
  P  P272  1  0.29290207  0.91525237  0.02200939  1
  P  P273  1  0.29302872  0.91540436  0.27252580  1
  P  P274  1  0.29139012  0.91711601  0.52342672  1
  P  P275  1  0.29225659  0.91834165  0.77148368  1
  P  P276  1  0.79207017  0.24841063  0.02288550  1
  P  P277  1  0.79152843  0.24847337  0.27235023  1
  P  P278  1  0.79074629  0.24990538  0.52297086  1
  P  P279  1  0.79165443  0.25019020  0.77045172  1
  P  P280  1  0.79285864  0.58476284  0.02327728  1
  P  P281  1  0.79158468  0.58425161  0.27401111  1
  P  P282  1  0.79213095  0.58483395  0.52182427  1
  P  P283  1  0.79233175  0.58401112  0.77128775  1
  P  P284  1  0.79176967  0.91752222  0.02345607  1
  P  P285  1  0.79250747  0.91854070  0.27166169  1
  P  P286  1  0.79276989  0.91617673  0.52172270  1
  P  P287  1  0.79227374  0.91823489  0.77196572  1
  O  O288  1  0.03756870  0.25030782  0.18360796  1
  O  O289  1  0.03540560  0.25048402  0.43262937  1
  O  O290  1  0.03559272  0.24997326  0.68191167  1
  O  O291  1  0.03671068  0.25025730  0.93027712  1
  O  O292  1  0.03856459  0.58339312  0.18357285  1
  O  O293  1  0.03758957  0.58253001  0.43444574  1
  O  O294  1  0.03611236  0.58184655  0.68327492  1
  O  O295  1  0.03658326  0.58339838  0.93102529  1
  O  O296  1  0.03780693  0.91686978  0.18365910  1
  O  O297  1  0.03692859  0.91570804  0.43308033  1
  O  O298  1  0.03733586  0.91618630  0.68229094  1
  O  O299  1  0.03852410  0.91724690  0.93276999  1
  O  O300  1  0.53573522  0.24969581  0.18188565  1
  O  O301  1  0.53641215  0.24917781  0.43103955  1
  O  O302  1  0.53710264  0.24956884  0.68186816  1
  O  O303  1  0.53656441  0.25059372  0.93270851  1
  O  O304  1  0.53640036  0.58444359  0.18315278  1
  O  O305  1  0.53623521  0.58495633  0.43320155  1
  O  O306  1  0.53737046  0.58361471  0.68256797  1
  O  O307  1  0.53779566  0.58302015  0.93372458  1
  O  O308  1  0.53819788  0.91680047  0.18376099  1
  O  O309  1  0.53790160  0.91598435  0.43386419  1
  O  O310  1  0.53724248  0.91477565  0.68268556  1
  O  O311  1  0.53745497  0.91544874  0.93260153  1
  O  O312  1  0.46336784  0.08458785  0.06702464  1
  O  O313  1  0.46337760  0.08522692  0.31695359  1
  O  O314  1  0.46248591  0.08335278  0.56626402  1
  O  O315  1  0.46299833  0.08364319  0.81744352  1
  O  O316  1  0.46286883  0.41470533  0.06701167  1
  O  O317  1  0.46185916  0.41601183  0.31596705  1
  O  O318  1  0.46172440  0.41547326  0.56765804  1
  O  O319  1  0.46303106  0.41437937  0.81738114  1
  O  O320  1  0.46346946  0.74763119  0.06787064  1
  O  O321  1  0.46356900  0.74918908  0.31891101  1
  O  O322  1  0.46391704  0.75101607  0.56726232  1
  O  O323  1  0.46335823  0.74960410  0.81769628  1
  O  O324  1  0.96279412  0.08467786  0.06790571  1
  O  O325  1  0.96378015  0.08575020  0.31711227  1
  O  O326  1  0.96316465  0.08500349  0.56620941  1
  O  O327  1  0.96241326  0.08453742  0.81570678  1
  O  O328  1  0.96207024  0.41594973  0.06843333  1
  O  O329  1  0.96311251  0.41589597  0.31904518  1
  O  O330  1  0.96350164  0.41656664  0.56752100  1
  O  O331  1  0.96222816  0.41707530  0.81563297  1
  O  O332  1  0.96292173  0.75115361  0.06827297  1
  O  O333  1  0.96366324  0.75256266  0.31768752  1
  O  O334  1  0.96381552  0.74970595  0.56706437  1
  O  O335  1  0.96214771  0.74871175  0.81631570  1
  O  O336  1  0.21360150  0.08260921  0.05637968  1
  O  O337  1  0.21300585  0.08413850  0.30755256  1
  O  O338  1  0.21312109  0.08390971  0.55804540  1
  O  O339  1  0.21353434  0.08309209  0.80682149  1
  O  O340  1  0.21239376  0.41538689  0.05592146  1
  O  O341  1  0.21205256  0.41603290  0.30819369  1
  O  O342  1  0.21203948  0.41650055  0.55893931  1
  O  O343  1  0.21294008  0.41631932  0.80956520  1
  O  O344  1  0.21328198  0.74947944  0.05717495  1
  O  O345  1  0.21398503  0.75242159  0.30772748  1
  O  O346  1  0.21412834  0.75137685  0.55870705  1
  O  O347  1  0.21378378  0.74959254  0.80686726  1
  O  O348  1  0.71330290  0.08185737  0.05772954  1
  O  O349  1  0.71385443  0.08327812  0.30678916  1
  O  O350  1  0.71352588  0.08407163  0.55607427  1
  O  O351  1  0.71234679  0.08328472  0.80669948  1
  O  O352  1  0.71203490  0.41673226  0.05895135  1
  O  O353  1  0.71245617  0.41771817  0.30953483  1
  O  O354  1  0.71275086  0.41708262  0.55788843  1
  O  O355  1  0.71205633  0.41590193  0.80716927  1
  O  O356  1  0.71326282  0.75045780  0.05934225  1
  O  O357  1  0.71445298  0.75005317  0.30716502  1
  O  O358  1  0.71424245  0.74971914  0.55786134  1
  O  O359  1  0.71373404  0.75115518  0.80607181  1
  O  O360  1  0.28595109  0.24761111  0.19220925  1
  O  O361  1  0.28625929  0.24807034  0.44269190  1
  O  O362  1  0.28610608  0.24881975  0.69323051  1
  O  O363  1  0.28577439  0.24804102  0.94131634  1
  O  O364  1  0.28804102  0.58339398  0.19190488  1
  O  O365  1  0.28752951  0.58484326  0.44328848  1
  O  O366  1  0.28656818  0.58449796  0.69337944  1
  O  O367  1  0.28673113  0.58272085  0.94064531  1
  O  O368  1  0.28801657  0.91519472  0.19254790  1
  O  O369  1  0.28673869  0.91635767  0.44341171  1
  O  O370  1  0.28670985  0.91854524  0.69162357  1
  O  O371  1  0.28763035  0.91597371  0.94208854  1
  O  O372  1  0.78644744  0.24831357  0.19242672  1
  O  O373  1  0.78611843  0.24986670  0.44294914  1
  O  O374  1  0.78589289  0.25049361  0.69058608  1
  O  O375  1  0.78688477  0.24866620  0.94288498  1
  O  O376  1  0.78669868  0.58464686  0.19399793  1
  O  O377  1  0.78679643  0.58446942  0.44191439  1
  O  O378  1  0.78702417  0.58438113  0.69132470  1
  O  O379  1  0.78765860  0.58436536  0.94327855  1
  O  O380  1  0.78704400  0.91847032  0.19180609  1
  O  O381  1  0.78773778  0.91649977  0.44180475  1
  O  O382  1  0.78719344  0.91738877  0.69199108  1
  O  O383  1  0.78686539  0.91752402  0.94344371  1
  O  O384  1  0.22704503  0.24704385  0.05745738  1
  O  O385  1  0.22711918  0.24736587  0.30815387  1
  O  O386  1  0.22722877  0.24809116  0.55840769  1
  O  O387  1  0.22647155  0.24806662  0.80889924  1
  O  O388  1  0.22824375  0.58299245  0.05652895  1
  O  O389  1  0.22886303  0.58404347  0.30716325  1
  O  O390  1  0.22827531  0.58532696  0.55881114  1
  O  O391  1  0.22735100  0.58383901  0.80932963  1
  O  O392  1  0.22869815  0.91493596  0.05798498  1
  O  O393  1  0.22875033  0.91523820  0.30833565  1
  O  O394  1  0.22730614  0.91771020  0.55940871  1
  O  O395  1  0.22821221  0.91822571  0.80784226  1
  O  O396  1  0.72772827  0.24799552  0.05844341  1
  O  O397  1  0.72724741  0.24872322  0.30794912  1
  O  O398  1  0.72646548  0.24942304  0.55862820  1
  O  O399  1  0.72762647  0.24964856  0.80669453  1
  O  O400  1  0.72849137  0.58544195  0.05880962  1
  O  O401  1  0.72742144  0.58434802  0.31001112  1
  O  O402  1  0.72800541  0.58544040  0.55792961  1
  O  O403  1  0.72806800  0.58386341  0.80685546  1
  O  O404  1  0.72768262  0.91748574  0.05955940  1
  O  O405  1  0.72843944  0.91853510  0.30798369  1
  O  O406  1  0.72847784  0.91589975  0.55736662  1
  O  O407  1  0.72797151  0.91846794  0.80775480  1
  O  O408  1  0.27202651  0.08435994  0.19162023  1
  O  O409  1  0.27178521  0.08463865  0.44185296  1
  O  O410  1  0.27234155  0.08322388  0.69045489  1
  O  O411  1  0.27255542  0.08280245  0.94023277  1
  O  O412  1  0.27107675  0.41542617  0.19272282  1
  O  O413  1  0.27122057  0.41588770  0.44372492  1
  O  O414  1  0.27162055  0.41640313  0.69372070  1
  O  O415  1  0.27216386  0.41628508  0.94042414  1
  O  O416  1  0.27283939  0.75153404  0.19178456  1
  O  O417  1  0.27280272  0.75243950  0.44254993  1
  O  O418  1  0.27322381  0.74967182  0.69105883  1
  O  O419  1  0.27209666  0.74849904  0.94138203  1
  O  O420  1  0.77263297  0.08330453  0.19045648  1
  O  O421  1  0.77283631  0.08303227  0.44018973  1
  O  O422  1  0.77146853  0.08512441  0.69099416  1
  O  O423  1  0.77202137  0.08141892  0.94156001  1
  O  O424  1  0.77126849  0.41690240  0.19406649  1
  O  O425  1  0.77185950  0.41787160  0.44223079  1
  O  O426  1  0.77165641  0.41603813  0.69180373  1
  O  O427  1  0.77137520  0.41664756  0.94372554  1
  O  O428  1  0.77350312  0.75005189  0.19106082  1
  O  O429  1  0.77276702  0.74928926  0.44173226  1
  O  O430  1  0.77332409  0.75057471  0.69038186  1
  O  O431  1  0.77194462  0.75098046  0.94353177  1
  O  O432  1  0.02240554  0.08524828  0.18305597  1
  O  O433  1  0.02215643  0.08537099  0.43315143  1
  O  O434  1  0.02205538  0.08520525  0.68194653  1
  O  O435  1  0.02179346  0.08422312  0.93081605  1
  O  O436  1  0.02156396  0.41484932  0.18372298  1
  O  O437  1  0.02207216  0.41595534  0.43513585  1
  O  O438  1  0.02228628  0.41708054  0.68389487  1
  O  O439  1  0.02143560  0.41695771  0.93108643  1
  O  O440  1  0.02261568  0.75188025  0.18347582  1
  O  O441  1  0.02246391  0.75175531  0.43344161  1
  O  O442  1  0.02255497  0.74827248  0.68288287  1
  O  O443  1  0.02152092  0.75000491  0.93132539  1
  O  O444  1  0.52227133  0.08501600  0.18279570  1
  O  O445  1  0.52229016  0.08477989  0.43270161  1
  O  O446  1  0.52165183  0.08283260  0.68143841  1
  O  O447  1  0.52218333  0.08477447  0.93297662  1
  O  O448  1  0.52138216  0.41485614  0.18306760  1
  O  O449  1  0.52069876  0.41661870  0.43143720  1
  O  O450  1  0.52147357  0.41431630  0.68279554  1
  O  O451  1  0.52190588  0.41436889  0.93327637  1
  O  O452  1  0.52236809  0.74776358  0.18362374  1
  O  O453  1  0.52304136  0.74972606  0.43457743  1
  O  O454  1  0.52275342  0.75161033  0.68315361  1
  O  O455  1  0.52219799  0.74790135  0.93345452  1
  O  O456  1  0.47694818  0.24945580  0.06548394  1
  O  O457  1  0.47706489  0.25002202  0.31526055  1
  O  O458  1  0.47766989  0.24799491  0.56655276  1
  O  O459  1  0.47768746  0.25118602  0.81676584  1
  O  O460  1  0.47808647  0.58411277  0.06692619  1
  O  O461  1  0.47780462  0.58471278  0.31718203  1
  O  O462  1  0.47762473  0.58465447  0.56746319  1
  O  O463  1  0.47876376  0.58279410  0.81839523  1
  O  O464  1  0.47886710  0.91643314  0.06870568  1
  O  O465  1  0.47889485  0.91643671  0.31860670  1
  O  O466  1  0.47828749  0.91522715  0.56691110  1
  O  O467  1  0.47821934  0.91438575  0.81713561  1
  O  O468  1  0.97820327  0.25055492  0.06836617  1
  O  O469  1  0.97677333  0.25101991  0.31614230  1
  O  O470  1  0.97676291  0.25067210  0.56566886  1
  O  O471  1  0.97667300  0.24937987  0.81490432  1
  O  O472  1  0.97858706  0.58344581  0.06895333  1
  O  O473  1  0.97882698  0.58356911  0.31900532  1
  O  O474  1  0.97797406  0.58149826  0.56692371  1
  O  O475  1  0.97695934  0.58313143  0.81535703  1
  O  O476  1  0.97867827  0.91750466  0.06832669  1
  O  O477  1  0.97834834  0.91652159  0.31715322  1
  O  O478  1  0.97809055  0.91567971  0.56684927  1
  O  O479  1  0.97908948  0.91682718  0.81793412  1
  O  O480  1  0.07370887  0.31371679  0.07473988  1
  O  O481  1  0.07190452  0.31422397  0.32456592  1
  O  O482  1  0.07206510  0.31387676  0.57400679  1
  O  O483  1  0.07095103  0.31411610  0.82166302  1
  O  O484  1  0.07418204  0.64683563  0.07510390  1
  O  O485  1  0.07440416  0.64663480  0.32687784  1
  O  O486  1  0.07328685  0.64510363  0.57545482  1
  O  O487  1  0.07191287  0.64693343  0.82255760  1
  O  O488  1  0.07412005  0.98081637  0.07569299  1
  O  O489  1  0.07387721  0.97975456  0.32595283  1
  O  O490  1  0.07340483  0.97933615  0.57435156  1
  O  O491  1  0.07441157  0.98050094  0.82424281  1
  O  O492  1  0.57184637  0.31351774  0.07384287  1
  O  O493  1  0.57185374  0.31391489  0.32322364  1
  O  O494  1  0.57275412  0.31249322  0.57335499  1
  O  O495  1  0.57280598  0.31432706  0.82390601  1
  O  O496  1  0.57316923  0.64752444  0.07448360  1
  O  O497  1  0.57300753  0.64810118  0.32469132  1
  O  O498  1  0.57297047  0.64771713  0.57441624  1
  O  O499  1  0.57450273  0.64595360  0.82528309  1
  O  O500  1  0.57420533  0.97998433  0.07542477  1
  O  O501  1  0.57412077  0.98007589  0.32598415  1
  O  O502  1  0.57359261  0.97889675  0.57518812  1
  O  O503  1  0.57320490  0.97883080  0.82452957  1
  O  O504  1  0.42723114  0.02082476  0.17492435  1
  O  O505  1  0.42686692  0.02125185  0.42443472  1
  O  O506  1  0.42644636  0.01925914  0.67428918  1
  O  O507  1  0.42718942  0.02027465  0.92529380  1
  O  O508  1  0.42625281  0.35139642  0.17549162  1
  O  O509  1  0.42529723  0.35290960  0.42424455  1
  O  O510  1  0.42616834  0.35121727  0.67589437  1
  O  O511  1  0.42657629  0.35123347  0.92602605  1
  O  O512  1  0.42687761  0.68475667  0.17663309  1
  O  O513  1  0.42766706  0.68640241  0.42766643  1
  O  O514  1  0.42751007  0.68767964  0.67540920  1
  O  O515  1  0.42727042  0.68458537  0.92543999  1
  O  O516  1  0.92697241  0.02152952  0.17600310  1
  O  O517  1  0.92696138  0.02167972  0.42438927  1
  O  O518  1  0.92696873  0.02106306  0.67381484  1
  O  O519  1  0.92661924  0.02055522  0.92408508  1
  O  O520  1  0.92605543  0.35221088  0.17697923  1
  O  O521  1  0.92641570  0.35321339  0.42744898  1
  O  O522  1  0.92788887  0.35278354  0.67584388  1
  O  O523  1  0.92607143  0.35336636  0.92401904  1
  O  O524  1  0.92725306  0.68812566  0.17661551  1
  O  O525  1  0.92716756  0.68822284  0.42495078  1
  O  O526  1  0.92745702  0.68518964  0.67488946  1
  O  O527  1  0.92599768  0.68639266  0.92537996  1
  O  O528  1  0.17727462  0.01998717  0.19997533  1
  O  O529  1  0.17683841  0.02049524  0.44988769  1
  O  O530  1  0.17721003  0.01980390  0.69831682  1
  O  O531  1  0.17824540  0.01826308  0.94832196  1
  O  O532  1  0.17545823  0.35261917  0.20022907  1
  O  O533  1  0.17539779  0.35324056  0.45097309  1
  O  O534  1  0.17617770  0.35311008  0.70130484  1
  O  O535  1  0.17765185  0.35167786  0.94753631  1
  O  O536  1  0.17735857  0.68808404  0.20057730  1
  O  O537  1  0.17758685  0.68845001  0.45043722  1
  O  O538  1  0.17765083  0.68673320  0.69839017  1
  O  O539  1  0.17680545  0.68549930  0.94892364  1
  O  O540  1  0.67750793  0.01967814  0.19863910  1
  O  O541  1  0.67789850  0.01942626  0.44839028  1
  O  O542  1  0.67643716  0.02056344  0.69830230  1
  O  O543  1  0.67707480  0.01812948  0.94900735  1
  O  O544  1  0.67578829  0.35377622  0.20165733  1
  O  O545  1  0.67612202  0.35446882  0.44983326  1
  O  O546  1  0.67695562  0.35214511  0.69827761  1
  O  O547  1  0.67594748  0.35317240  0.95093742  1
  O  O548  1  0.67812421  0.68691636  0.19900026  1
  O  O549  1  0.67766401  0.68605021  0.44933290  1
  O  O550  1  0.67816391  0.68697037  0.69822403  1
  O  O551  1  0.67670036  0.68727616  0.95070934  1
  O  O552  1  0.32193291  0.31142391  0.04951092  1
  O  O553  1  0.32206400  0.31163935  0.29993490  1
  O  O554  1  0.32248216  0.31191864  0.55038620  1
  O  O555  1  0.32071713  0.31282026  0.80184505  1
  O  O556  1  0.32401941  0.64570847  0.04900479  1
  O  O557  1  0.32453254  0.64683799  0.29996998  1
  O  O558  1  0.32351444  0.64844665  0.55160417  1
  O  O559  1  0.32263793  0.64745780  0.80176236  1
  O  O560  1  0.32408688  0.97863812  0.05038858  1
  O  O561  1  0.32357776  0.97958000  0.30010793  1
  O  O562  1  0.32257293  0.98090683  0.55077002  1
  O  O563  1  0.32319546  0.98160282  0.80054595  1
  O  O564  1  0.82294323  0.31210026  0.05083460  1
  O  O565  1  0.82266714  0.31211677  0.30021956  1
  O  O566  1  0.82076471  0.31413978  0.55127076  1
  O  O567  1  0.82277229  0.31352883  0.79914583  1
  O  O568  1  0.82393113  0.64816011  0.05160741  1
  O  O569  1  0.82285924  0.64763543  0.30227961  1
  O  O570  1  0.82346245  0.64804022  0.55045514  1
  O  O571  1  0.82360801  0.64727619  0.79959596  1
  O  O572  1  0.82301970  0.98089807  0.05160300  1
  O  O573  1  0.82338448  0.98193248  0.30049920  1
  O  O574  1  0.82393099  0.97971085  0.54969278  1
  O  O575  1  0.82273839  0.98213917  0.80008925  1
  O  O576  1  0.42681563  0.14790249  0.17543963  1
  O  O577  1  0.42728072  0.14836493  0.42573168  1
  O  O578  1  0.42601330  0.14604863  0.67483498  1
  O  O579  1  0.42691979  0.14757657  0.92556807  1
  O  O580  1  0.42623257  0.47858348  0.17440521  1
  O  O581  1  0.42531286  0.47977408  0.42404557  1
  O  O582  1  0.42636135  0.47857188  0.67602949  1
  O  O583  1  0.42689314  0.47828798  0.92502276  1
  O  O584  1  0.42746862  0.81187797  0.17543915  1
  O  O585  1  0.42829632  0.81375951  0.42682007  1
  O  O586  1  0.42747333  0.81457278  0.67594406  1
  O  O587  1  0.42672849  0.81172859  0.92616115  1
  O  O588  1  0.92734234  0.14861463  0.17650168  1
  O  O589  1  0.92702400  0.14874662  0.42570738  1
  O  O590  1  0.92676441  0.14825829  0.67470306  1
  O  O591  1  0.92606947  0.14743091  0.92425449  1
  O  O592  1  0.92656941  0.47933042  0.17667575  1
  O  O593  1  0.92779375  0.48056958  0.42691833  1
  O  O594  1  0.92695454  0.48002903  0.67574238  1
  O  O595  1  0.92595170  0.48012458  0.92456249  1
  O  O596  1  0.92760568  0.81543182  0.17651808  1
  O  O597  1  0.92734147  0.81535227  0.42658059  1
  O  O598  1  0.92729151  0.81237187  0.67518284  1
  O  O599  1  0.92611251  0.81334126  0.92404728  1
  O  O600  1  0.07362267  0.18710893  0.07474558  1
  O  O601  1  0.07142430  0.18697555  0.32415291  1
  O  O602  1  0.07152282  0.18672217  0.57328823  1
  O  O603  1  0.07221551  0.18665809  0.82209535  1
  O  O604  1  0.07385624  0.51979985  0.07495021  1
  O  O605  1  0.07409770  0.51967776  0.32604403  1
  O  O606  1  0.07296322  0.51812630  0.57497399  1
  O  O607  1  0.07200337  0.51952438  0.82293918  1
  O  O608  1  0.07409944  0.85387283  0.07508777  1
  O  O609  1  0.07315126  0.85261889  0.32416545  1
  O  O610  1  0.07301698  0.85196037  0.57443295  1
  O  O611  1  0.07471591  0.85354051  0.82490931  1
  O  O612  1  0.57203482  0.18631119  0.07334444  1
  O  O613  1  0.57232094  0.18653993  0.32225506  1
  O  O614  1  0.57301227  0.18540787  0.57350235  1
  O  O615  1  0.57303062  0.18737384  0.82465155  1
  O  O616  1  0.57321933  0.52036911  0.07601130  1
  O  O617  1  0.57291227  0.52099804  0.32567325  1
  O  O618  1  0.57270098  0.52038864  0.57433301  1
  O  O619  1  0.57388546  0.51909558  0.82568726  1
  O  O620  1  0.57418117  0.85293493  0.07598820  1
  O  O621  1  0.57454984  0.85315588  0.32551563  1
  O  O622  1  0.57350848  0.85192898  0.57373163  1
  O  O623  1  0.57356955  0.85155291  0.82440072  1
  O  O624  1  0.32241245  0.18444474  0.04978062  1
  O  O625  1  0.32259740  0.18462262  0.30091276  1
  O  O626  1  0.32246845  0.18488916  0.55144074  1
  O  O627  1  0.32233912  0.18554523  0.80128325  1
  O  O628  1  0.32332731  0.51896971  0.04872868  1
  O  O629  1  0.32382436  0.51976808  0.30002831  1
  O  O630  1  0.32337637  0.52116938  0.55108377  1
  O  O631  1  0.32215767  0.51997876  0.80118052  1
  O  O632  1  0.32355895  0.85149339  0.05007784  1
  O  O633  1  0.32426320  0.85253355  0.30169737  1
  O  O634  1  0.32185773  0.85356789  0.55258960  1
  O  O635  1  0.32345145  0.85464746  0.79918716  1
  O  O636  1  0.82292132  0.18480702  0.05098003  1
  O  O637  1  0.82229179  0.18515857  0.30128113  1
  O  O638  1  0.82202065  0.18663928  0.55127509  1
  O  O639  1  0.82320207  0.18687095  0.79845299  1
  O  O640  1  0.82348899  0.52098190  0.05135455  1
  O  O641  1  0.82196293  0.52018180  0.30206405  1
  O  O642  1  0.82295654  0.52110621  0.55000754  1
  O  O643  1  0.82317017  0.52028098  0.79921805  1
  O  O644  1  0.82224561  0.85362566  0.05189016  1
  O  O645  1  0.82374113  0.85499681  0.29957912  1
  O  O646  1  0.82335477  0.85264292  0.55052752  1
  O  O647  1  0.82351701  0.85500700  0.80051561  1
  O  O648  1  0.17655424  0.14708262  0.19877499  1
  O  O649  1  0.17642518  0.14740342  0.44958918  1
  O  O650  1  0.17741129  0.14687662  0.69858336  1
  O  O651  1  0.17688731  0.14554783  0.94802088  1
  O  O652  1  0.17612613  0.47965907  0.20007881  1
  O  O653  1  0.17641016  0.48037654  0.45097574  1
  O  O654  1  0.17638943  0.47993429  0.70152130  1
  O  O655  1  0.17674229  0.47926029  0.94785903  1
  O  O656  1  0.17798034  0.81521758  0.19862100  1
  O  O657  1  0.17760712  0.81540289  0.45039330  1
  O  O658  1  0.17892682  0.81416901  0.69886682  1
  O  O659  1  0.17687350  0.81249941  0.94909139  1
  O  O660  1  0.67771289  0.14679394  0.19824223  1
  O  O661  1  0.67789210  0.14680174  0.44722856  1
  O  O662  1  0.67605231  0.14755751  0.69855898  1
  O  O663  1  0.67674069  0.14510116  0.94976021  1
  O  O664  1  0.67587980  0.48067841  0.20128238  1
  O  O665  1  0.67711364  0.48163804  0.44982189  1
  O  O666  1  0.67593336  0.47925000  0.69939331  1
  O  O667  1  0.67621150  0.48035355  0.95084009  1
  O  O668  1  0.67917774  0.81440453  0.19921074  1
  O  O669  1  0.67747580  0.81287005  0.44979028  1
  O  O670  1  0.67859423  0.81451610  0.69756475  1
  O  O671  1  0.67641142  0.81389720  0.95103273  1
