# generated using pymatgen
data_Na2MnFe(PO4)2
_symmetry_space_group_name_H-M   'P 1'
_cell_length_a   22.34659898
_cell_length_b   20.09650816
_cell_length_c   19.44708237
_cell_angle_alpha   89.97260268
_cell_angle_beta   90.02946101
_cell_angle_gamma   89.94338151
_symmetry_Int_Tables_number   1
_chemical_formula_structural   Na2MnFe(PO4)2
_chemical_formula_sum   'Na96 Mn48 Fe48 P96 O384'
_cell_volume   8733.45674405
_cell_formula_units_Z   48
loop_
 _symmetry_equiv_pos_site_id
 _symmetry_equiv_pos_as_xyz
  1  'x, y, z'
loop_
 _atom_site_type_symbol
 _atom_site_label
 _atom_site_symmetry_multiplicity
 _atom_site_fract_x
 _atom_site_fract_y
 _atom_site_fract_z
 _atom_site_occupancy
  Na  Na0  1  0.14029237  0.24959764  0.24309516  1
  Na  Na1  1  0.14034921  0.25044260  0.49464217  1
  Na  Na2  1  0.13989611  0.24877978  0.74361801  1
  Na  Na3  1  0.13971952  0.25055013  0.99184209  1
  Na  Na4  1  0.14020418  0.58325057  0.24301431  1
  Na  Na5  1  0.14010245  0.58361383  0.49340275  1
  Na  Na6  1  0.14022062  0.58254568  0.74462357  1
  Na  Na7  1  0.14014696  0.58285144  0.99216294  1
  Na  Na8  1  0.14014665  0.91648608  0.24235473  1
  Na  Na9  1  0.14045659  0.91670984  0.49290931  1
  Na  Na10  1  0.14006338  0.91620698  0.74289773  1
  Na  Na11  1  0.14014121  0.91651335  0.99321840  1
  Na  Na12  1  0.64024707  0.25003611  0.24412943  1
  Na  Na13  1  0.64080089  0.24978480  0.49405844  1
  Na  Na14  1  0.64052960  0.24891957  0.74544982  1
  Na  Na15  1  0.63969981  0.25079825  0.99328493  1
  Na  Na16  1  0.63993241  0.58514720  0.24365987  1
  Na  Na17  1  0.64031604  0.58402528  0.49366954  1
  Na  Na18  1  0.64049421  0.58187091  0.74441371  1
  Na  Na19  1  0.63995631  0.58437524  0.99496275  1
  Na  Na20  1  0.64101518  0.91663361  0.24432070  1
  Na  Na21  1  0.64061822  0.91802963  0.49414978  1
  Na  Na22  1  0.63977338  0.91685382  0.74352660  1
  Na  Na23  1  0.64057662  0.91734475  0.99355318  1
  Na  Na24  1  0.35962666  0.08399228  0.00677265  1
  Na  Na25  1  0.35938384  0.08365042  0.25489994  1
  Na  Na26  1  0.35953698  0.08418201  0.50658871  1
  Na  Na27  1  0.35987145  0.08297399  0.75695135  1
  Na  Na28  1  0.35907329  0.41588832  0.00724630  1
  Na  Na29  1  0.35901278  0.41578452  0.25622422  1
  Na  Na30  1  0.35914595  0.41730130  0.50475950  1
  Na  Na31  1  0.35870039  0.41598821  0.75728458  1
  Na  Na32  1  0.35937864  0.74873660  0.00680151  1
  Na  Na33  1  0.35948523  0.74827419  0.25589756  1
  Na  Na34  1  0.35975914  0.74973155  0.50602074  1
  Na  Na35  1  0.35979744  0.74960261  0.75671307  1
  Na  Na36  1  0.86073306  0.08335529  0.00622716  1
  Na  Na37  1  0.86008684  0.08319754  0.25619994  1
  Na  Na38  1  0.86019649  0.08452300  0.50631089  1
  Na  Na39  1  0.86064662  0.08262908  0.75662716  1
  Na  Na40  1  0.86023117  0.41805647  0.00626696  1
  Na  Na41  1  0.85966534  0.41720672  0.25539830  1
  Na  Na42  1  0.85942238  0.41642798  0.50617405  1
  Na  Na43  1  0.85998774  0.41495197  0.75694315  1
  Na  Na44  1  0.86000030  0.75012147  0.00637337  1
  Na  Na45  1  0.86026403  0.75184799  0.25667390  1
  Na  Na46  1  0.86084474  0.75071128  0.50671664  1
  Na  Na47  1  0.86025349  0.74915639  0.75666126  1
  Na  Na48  1  0.10934633  0.08399624  0.11752751  1
  Na  Na49  1  0.10990380  0.08359212  0.36855678  1
  Na  Na50  1  0.11010910  0.08192163  0.61880735  1
  Na  Na51  1  0.10945449  0.08323138  0.86788795  1
  Na  Na52  1  0.10899085  0.41621529  0.11618156  1
  Na  Na53  1  0.10937691  0.41695033  0.36870300  1
  Na  Na54  1  0.10988449  0.41549595  0.61910567  1
  Na  Na55  1  0.10963089  0.41583316  0.86762778  1
  Na  Na56  1  0.11005458  0.75047702  0.11773201  1
  Na  Na57  1  0.10993589  0.75068165  0.36795173  1
  Na  Na58  1  0.10946502  0.74961289  0.61937121  1
  Na  Na59  1  0.10958972  0.74970245  0.86871009  1
  Na  Na60  1  0.60936587  0.08430307  0.11874798  1
  Na  Na61  1  0.60999979  0.08354564  0.36911692  1
  Na  Na62  1  0.61006489  0.08261648  0.61903851  1
  Na  Na63  1  0.60940270  0.08293217  0.86916569  1
  Na  Na64  1  0.60873507  0.41682945  0.11922601  1
  Na  Na65  1  0.60878561  0.41740548  0.36861864  1
  Na  Na66  1  0.60958176  0.41718048  0.61940966  1
  Na  Na67  1  0.60944247  0.41639811  0.86964324  1
  Na  Na68  1  0.61016154  0.75013631  0.11899182  1
  Na  Na69  1  0.60996955  0.74865735  0.36837549  1
  Na  Na70  1  0.60912516  0.75137466  0.61900704  1
  Na  Na71  1  0.60918223  0.75037151  0.87027669  1
  Na  Na72  1  0.38959120  0.25047056  0.13060160  1
  Na  Na73  1  0.38987389  0.24947614  0.38086141  1
  Na  Na74  1  0.39019021  0.24979203  0.63180117  1
  Na  Na75  1  0.38957982  0.24894948  0.88317021  1
  Na  Na76  1  0.38981876  0.58309344  0.13184503  1
  Na  Na77  1  0.38950355  0.58319871  0.38049714  1
  Na  Na78  1  0.39016261  0.58470573  0.63067442  1
  Na  Na79  1  0.38979516  0.58283808  0.88294546  1
  Na  Na80  1  0.39051093  0.91589849  0.13069236  1
  Na  Na81  1  0.39042481  0.91593059  0.38083436  1
  Na  Na82  1  0.39060248  0.91740214  0.63088762  1
  Na  Na83  1  0.39075531  0.91643563  0.88108445  1
  Na  Na84  1  0.89065131  0.24940078  0.12993286  1
  Na  Na85  1  0.89034316  0.24939761  0.38157980  1
  Na  Na86  1  0.89078591  0.24893098  0.63210077  1
  Na  Na87  1  0.89102808  0.24929260  0.88149760  1
  Na  Na88  1  0.89046804  0.58509953  0.13111596  1
  Na  Na89  1  0.89055525  0.58532234  0.38136556  1
  Na  Na90  1  0.89110060  0.58379733  0.63174686  1
  Na  Na91  1  0.89076877  0.58303958  0.88223632  1
  Na  Na92  1  0.89084397  0.91733100  0.13151718  1
  Na  Na93  1  0.89112255  0.91744877  0.38148226  1
  Na  Na94  1  0.89128133  0.91631086  0.63147324  1
  Na  Na95  1  0.89110668  0.91673638  0.88071589  1
  Mn  Mn96  1  -0.00002314  0.33322711  0.24911212  1
  Mn  Mn97  1  0.00060408  0.16612287  0.24921159  1
  Mn  Mn98  1  0.50086932  0.83237322  0.25043517  1
  Mn  Mn99  1  0.24912580  0.49953426  0.12463158  1
  Mn  Mn100  1  0.50003234  0.00005448  0.24972933  1
  Mn  Mn101  1  0.74961183  0.50119963  0.37558911  1
  Mn  Mn102  1  0.49908535  0.50121874  0.49909626  1
  Mn  Mn103  1  0.49988514  0.83333032  0.00017289  1
  Mn  Mn104  1  0.75022604  0.83394793  0.37544053  1
  Mn  Mn105  1  0.74932991  -0.00006511  0.12532662  1
  Mn  Mn106  1  0.49977575  0.49984481  0.00095200  1
  Mn  Mn107  1  -0.00023209  0.50070473  0.24921387  1
  Mn  Mn108  1  0.00042149  -0.00053149  0.50042354  1
  Mn  Mn109  1  0.75114058  0.00030366  0.87521211  1
  Mn  Mn110  1  0.75039275  0.66619005  0.62583112  1
  Mn  Mn111  1  0.25029309  0.16707430  0.62527215  1
  Mn  Mn112  1  0.50016947  0.16567338  0.75122026  1
  Mn  Mn113  1  0.25047596  0.00007677  0.87527137  1
  Mn  Mn114  1  0.74974301  0.16688035  0.12542340  1
  Mn  Mn115  1  0.75024554  0.16630507  0.62486210  1
  Mn  Mn116  1  0.25052807  0.49912055  0.62513803  1
  Mn  Mn117  1  -0.00045672  0.50039509  0.50020768  1
  Mn  Mn118  1  0.75005146  0.83325624  0.87499378  1
  Mn  Mn119  1  0.50016040  0.83340151  0.50003546  1
  Mn  Mn120  1  0.24957317  0.83369615  0.62490389  1
  Mn  Mn121  1  0.49940108  0.33357165  0.50006193  1
  Mn  Mn122  1  0.49928860  0.50043636  0.75065478  1
  Mn  Mn123  1  0.00092277  0.66825117  0.24996610  1
  Mn  Mn124  1  0.50061546  0.16582984  0.50043990  1
  Mn  Mn125  1  -0.00051192  0.33215485  0.49959444  1
  Mn  Mn126  1  0.75014434  0.33392056  0.12494562  1
  Mn  Mn127  1  0.74991716  0.83393389  0.62507782  1
  Mn  Mn128  1  0.74938823  0.50175573  0.12633437  1
  Mn  Mn129  1  0.24954800  0.00009369  0.12440421  1
  Mn  Mn130  1  0.25059006  0.83284533  0.37406488  1
  Mn  Mn131  1  0.49893777  0.16733913  0.24932364  1
  Mn  Mn132  1  0.25022673  0.83235119  0.87444346  1
  Mn  Mn133  1  0.50039617  0.66769640  0.75062619  1
  Mn  Mn134  1  0.49957499  0.33310917  0.75043384  1
  Mn  Mn135  1  -0.00006772  0.50001065  0.74987040  1
  Mn  Mn136  1  0.25011404  0.66591443  0.62498201  1
  Mn  Mn137  1  0.00032793  0.83405964  -0.00059502  1
  Mn  Mn138  1  0.74931228  0.66593880  0.87587038  1
  Mn  Mn139  1  0.24955706  0.33313712  0.37447678  1
  Mn  Mn140  1  0.75092759  0.49890781  0.62445516  1
  Mn  Mn141  1  0.74934509  0.33303516  0.37537376  1
  Mn  Mn142  1  0.25034092  0.00111502  0.37324317  1
  Mn  Mn143  1  0.75025984  0.33326111  0.87542978  1
  Fe  Fe144  1  0.75054412  0.00062143  0.37491818  1
  Fe  Fe145  1  0.75021601  0.49967945  0.87535604  1
  Fe  Fe146  1  0.00039277  0.83427317  0.24972108  1
  Fe  Fe147  1  0.49975854  0.66650595  0.00055512  1
  Fe  Fe148  1  0.75021605  0.16629585  0.87469404  1
  Fe  Fe149  1  -0.00000922  0.16596488  0.75046197  1
  Fe  Fe150  1  0.24953516  0.66622499  0.37439049  1
  Fe  Fe151  1  0.00106972  0.83313908  0.50056677  1
  Fe  Fe152  1  0.49999198  0.33331599  0.24971934  1
  Fe  Fe153  1  0.24953791  0.16678782  0.87483935  1
  Fe  Fe154  1  0.24876271  0.49962475  0.37452549  1
  Fe  Fe155  1  0.75064310  0.83372305  0.12565314  1
  Fe  Fe156  1  0.49994344  0.16654910  0.00011112  1
  Fe  Fe157  1  0.25014110  0.49916814  0.87518023  1
  Fe  Fe158  1  0.00015539  0.00018026  0.24984457  1
  Fe  Fe159  1  0.25040955  0.83226352  0.12438799  1
  Fe  Fe160  1  0.24885023  0.33325380  0.12457995  1
  Fe  Fe161  1  0.24920931  0.16723263  0.12459362  1
  Fe  Fe162  1  0.24977093  0.33264861  0.87528845  1
  Fe  Fe163  1  0.00071010  -0.00056054  0.74973230  1
  Fe  Fe164  1  0.75072348  0.66778189  0.37504778  1
  Fe  Fe165  1  0.49995551  -0.00018744  0.50018623  1
  Fe  Fe166  1  0.49948625  0.83389685  0.75010857  1
  Fe  Fe167  1  -0.00029308  0.33312773  -0.00097971  1
  Fe  Fe168  1  0.00028679  0.66679057  0.75021678  1
  Fe  Fe169  1  -0.00002986  0.33272356  0.74985937  1
  Fe  Fe170  1  -0.00004406  0.16624711  -0.00091082  1
  Fe  Fe171  1  0.49915197  0.33346422  0.00071725  1
  Fe  Fe172  1  0.74981753  0.33265344  0.62565130  1
  Fe  Fe173  1  0.50010873  0.66684678  0.49963157  1
  Fe  Fe174  1  0.49989765  -0.00014223  0.75036162  1
  Fe  Fe175  1  0.00025904  0.50027246  -0.00111225  1
  Fe  Fe176  1  0.25012628  0.33305809  0.62537825  1
  Fe  Fe177  1  -0.00033136  0.66734171  -0.00033405  1
  Fe  Fe178  1  0.49933788  0.50014233  0.25001397  1
  Fe  Fe179  1  0.00085968  0.16574178  0.50055645  1
  Fe  Fe180  1  0.00011258  0.83259454  0.75038950  1
  Fe  Fe181  1  0.75069580  0.00054711  0.62501093  1
  Fe  Fe182  1  0.49931902  0.66632832  0.24988795  1
  Fe  Fe183  1  0.24965445  0.66599782  0.87558637  1
  Fe  Fe184  1  0.24992577  0.16713913  0.37502083  1
  Fe  Fe185  1  0.50025672  -0.00035285  -0.00009317  1
  Fe  Fe186  1  0.75051739  0.66770264  0.12501406  1
  Fe  Fe187  1  0.75054380  0.16684122  0.37543250  1
  Fe  Fe188  1  0.00055486  -0.00009915  -0.00053792  1
  Fe  Fe189  1  0.00074482  0.66751599  0.50045016  1
  Fe  Fe190  1  0.24980746  0.66578098  0.12463233  1
  Fe  Fe191  1  0.25034808  0.00054868  0.62453222  1
  P  P192  1  0.04122556  0.24977007  0.10030759  1
  P  P193  1  0.04279161  0.24943923  0.35297044  1
  P  P194  1  0.04195250  0.24795599  0.60339710  1
  P  P195  1  0.04093690  0.24946732  0.85189296  1
  P  P196  1  0.04127709  0.58392588  0.10063106  1
  P  P197  1  0.04265392  0.58431975  0.35325454  1
  P  P198  1  0.04224707  0.58473650  0.60292423  1
  P  P199  1  0.04168757  0.58440839  0.85313744  1
  P  P200  1  0.04242284  0.91822403  0.10267143  1
  P  P201  1  0.04209502  0.91687633  0.35162772  1
  P  P202  1  0.04265679  0.91475379  0.60337211  1
  P  P203  1  0.04184681  0.91649228  0.85155774  1
  P  P204  1  0.54108554  0.25045216  0.10180483  1
  P  P205  1  0.54193244  0.25092725  0.35225237  1
  P  P206  1  0.54291652  0.24990598  0.60359670  1
  P  P207  1  0.54205835  0.24979027  0.85482395  1
  P  P208  1  0.54152360  0.58455477  0.10376627  1
  P  P209  1  0.54107196  0.58360638  0.35154883  1
  P  P210  1  0.54222374  0.58513564  0.60232053  1
  P  P211  1  0.54260280  0.58360423  0.85423104  1
  P  P212  1  0.54270109  0.91760043  0.10234503  1
  P  P213  1  0.54305000  0.91672615  0.35369374  1
  P  P214  1  0.54221763  0.91814851  0.60320795  1
  P  P215  1  0.54143426  0.91678010  0.85205833  1
  P  P216  1  0.45718576  0.08344545  0.14543061  1
  P  P217  1  0.45741368  0.08195956  0.39766562  1
  P  P218  1  0.45800880  0.08184313  0.64778028  1
  P  P219  1  0.45837250  0.08255124  0.89861531  1
  P  P220  1  0.45805702  0.41640072  0.14836262  1
  P  P221  1  0.45693255  0.41691923  0.39550616  1
  P  P222  1  0.45650412  0.41732195  0.64712435  1
  P  P223  1  0.45701059  0.41551624  0.89843989  1
  P  P224  1  0.45780624  0.74855446  0.14737588  1
  P  P225  1  0.45782021  0.74836396  0.39713138  1
  P  P226  1  0.45751853  0.75171469  0.64757033  1
  P  P227  1  0.45742813  0.74912868  0.89784478  1
  P  P228  1  0.95807438  0.08186629  0.14642471  1
  P  P229  1  0.95858042  0.08384129  0.39768034  1
  P  P230  1  0.95932620  0.08298348  0.64842458  1
  P  P231  1  0.95928610  0.08275805  0.89730339  1
  P  P232  1  0.95751438  0.41693560  0.14508783  1
  P  P233  1  0.95682617  0.41695717  0.39666832  1
  P  P234  1  0.95793995  0.41513271  0.64772027  1
  P  P235  1  0.95892973  0.41618331  0.89759348  1
  P  P236  1  0.95839644  0.75197490  0.14716429  1
  P  P237  1  0.95938289  0.75137320  0.39835061  1
  P  P238  1  0.95885162  0.74983346  0.64804593  1
  P  P239  1  0.95800870  0.74937217  0.89681908  1
  P  P240  1  0.20749629  0.08496497  0.22691354  1
  P  P241  1  0.20804208  0.08461079  0.47737687  1
  P  P242  1  0.20824315  0.08236430  0.72754926  1
  P  P243  1  0.20784729  0.08509108  0.97751613  1
  P  P244  1  0.20675491  0.41540329  0.22710107  1
  P  P245  1  0.20716863  0.41740497  0.47753264  1
  P  P246  1  0.20792899  0.41470033  0.72843738  1
  P  P247  1  0.20824650  0.41598430  0.97648432  1
  P  P248  1  0.20872969  0.74898093  0.22618927  1
  P  P249  1  0.20798966  0.74895828  0.47675421  1
  P  P250  1  0.20743709  0.74904598  0.72853338  1
  P  P251  1  0.20791548  0.74842288  0.97804488  1
  P  P252  1  0.70709802  0.08344481  0.22932977  1
  P  P253  1  0.70899979  0.08347472  0.47694717  1
  P  P254  1  0.70812540  0.08235439  0.72786760  1
  P  P255  1  0.70780746  0.08457365  0.97738263  1
  P  P256  1  0.70669115  0.41715278  0.22855926  1
  P  P257  1  0.70671640  0.41652835  0.47869859  1
  P  P258  1  0.70806408  0.41513727  0.72805690  1
  P  P259  1  0.70764020  0.41840310  0.97788010  1
  P  P260  1  0.70908970  0.75047278  0.22719822  1
  P  P261  1  0.70802576  0.74951259  0.47763541  1
  P  P262  1  0.70698393  0.74981539  0.72845916  1
  P  P263  1  0.70747403  0.75041913  0.97951485  1
  P  P264  1  0.29030166  0.25034883  0.02260516  1
  P  P265  1  0.29167168  0.24848408  0.27153522  1
  P  P266  1  0.29242606  0.25156308  0.52243461  1
  P  P267  1  0.29146423  0.24989494  0.77355386  1
  P  P268  1  0.29168032  0.58368531  0.02196699  1
  P  P269  1  0.29049680  0.58259344  0.27267583  1
  P  P270  1  0.29221931  0.58288186  0.52078017  1
  P  P271  1  0.29135182  0.58287118  0.77410208  1
  P  P272  1  0.29196714  0.91529974  0.02240950  1
  P  P273  1  0.29270610  0.91616048  0.27039268  1
  P  P274  1  0.29207810  0.91817129  0.52205356  1
  P  P275  1  0.29265618  0.91693662  0.77131960  1
  P  P276  1  0.79253508  0.25000686  0.02134112  1
  P  P277  1  0.79269585  0.24897689  0.27281800  1
  P  P278  1  0.79258251  0.25092809  0.52269487  1
  P  P279  1  0.79256983  0.24848023  0.77249104  1
  P  P280  1  0.79220994  0.58461991  0.02276143  1
  P  P281  1  0.79230691  0.58587846  0.27250768  1
  P  P282  1  0.79346872  0.58396880  0.52162624  1
  P  P283  1  0.79266773  0.58143423  0.77311886  1
  P  P284  1  0.79267457  0.91582995  0.02298287  1
  P  P285  1  0.79255215  0.91785630  0.27269503  1
  P  P286  1  0.79268454  0.91877857  0.52227517  1
  P  P287  1  0.79311762  0.91688417  0.77131000  1
  O  O288  1  0.03665777  0.24962830  0.18030987  1
  O  O289  1  0.03770899  0.24886223  0.43293350  1
  O  O290  1  0.03624530  0.24811023  0.68326417  1
  O  O291  1  0.03573757  0.25001911  0.93175736  1
  O  O292  1  0.03681789  0.58374786  0.18067410  1
  O  O293  1  0.03744212  0.58481638  0.43320268  1
  O  O294  1  0.03689911  0.58471518  0.68290621  1
  O  O295  1  0.03607973  0.58441392  0.93298897  1
  O  O296  1  0.03698835  0.91797027  0.18254101  1
  O  O297  1  0.03732826  0.91615984  0.43161989  1
  O  O298  1  0.03725438  0.91480764  0.68319593  1
  O  O299  1  0.03700155  0.91752642  0.93154586  1
  O  O300  1  0.53585319  0.25088000  0.18178188  1
  O  O301  1  0.53708903  0.25038477  0.43224444  1
  O  O302  1  0.53785061  0.24957449  0.68361177  1
  O  O303  1  0.53657144  0.24976801  0.93474226  1
  O  O304  1  0.53573828  0.58419880  0.18362104  1
  O  O305  1  0.53614131  0.58416017  0.43153381  1
  O  O306  1  0.53732331  0.58485030  0.68232179  1
  O  O307  1  0.53735356  0.58373069  0.93420305  1
  O  O308  1  0.53782083  0.91712548  0.18229851  1
  O  O309  1  0.53763585  0.91704484  0.43362751  1
  O  O310  1  0.53667426  0.91780163  0.68308195  1
  O  O311  1  0.53623754  0.91705077  0.93203606  1
  O  O312  1  0.46276949  0.08353645  0.06554471  1
  O  O313  1  0.46221800  0.08265767  0.31764562  1
  O  O314  1  0.46315152  0.08182792  0.56782981  1
  O  O315  1  0.46346457  0.08219905  0.81860476  1
  O  O316  1  0.46324661  0.41597727  0.06835309  1
  O  O317  1  0.46260217  0.41680408  0.31560540  1
  O  O318  1  0.46150013  0.41751798  0.56711600  1
  O  O319  1  0.46189608  0.41597891  0.81847422  1
  O  O320  1  0.46292255  0.74858473  0.06743522  1
  O  O321  1  0.46303157  0.74814341  0.31715887  1
  O  O322  1  0.46267892  0.75117662  0.56765660  1
  O  O323  1  0.46278251  0.75018789  0.81794489  1
  O  O324  1  0.96326608  0.08182185  0.06653936  1
  O  O325  1  0.96368416  0.08325549  0.31774031  1
  O  O326  1  0.96420798  0.08309375  0.56847115  1
  O  O327  1  0.96445176  0.08320193  0.81743689  1
  O  O328  1  0.96301969  0.41680836  0.06514974  1
  O  O329  1  0.96192116  0.41706504  0.31664445  1
  O  O330  1  0.96267393  0.41524106  0.56775325  1
  O  O331  1  0.96377124  0.41614243  0.81761009  1
  O  O332  1  0.96325861  0.75116633  0.06723027  1
  O  O333  1  0.96435395  0.75194267  0.31836256  1
  O  O334  1  0.96443704  0.74963846  0.56815110  1
  O  O335  1  0.96344745  0.74947807  0.81695418  1
  O  O336  1  0.21295905  0.08534465  0.05745869  1
  O  O337  1  0.21292177  0.08519891  0.30686061  1
  O  O338  1  0.21345947  0.08377455  0.55735358  1
  O  O339  1  0.21324919  0.08292617  0.80749016  1
  O  O340  1  0.21260013  0.41598467  0.05651532  1
  O  O341  1  0.21183764  0.41606298  0.30704283  1
  O  O342  1  0.21276375  0.41671826  0.55744043  1
  O  O343  1  0.21338135  0.41473852  0.80832550  1
  O  O344  1  0.21339490  0.74875283  0.05794743  1
  O  O345  1  0.21377260  0.74874102  0.30617821  1
  O  O346  1  0.21280104  0.74939245  0.55673848  1
  O  O347  1  0.21274066  0.74848927  0.80848435  1
  O  O348  1  0.71224766  0.08412374  0.05740880  1
  O  O349  1  0.71264200  0.08362943  0.30922981  1
  O  O350  1  0.71417860  0.08295010  0.55694662  1
  O  O351  1  0.71351962  0.08309626  0.80778849  1
  O  O352  1  0.71250630  0.41834584  0.05786701  1
  O  O353  1  0.71157799  0.41703260  0.30852103  1
  O  O354  1  0.71210643  0.41571727  0.55867527  1
  O  O355  1  0.71349912  0.41604727  0.80802209  1
  O  O356  1  0.71306299  0.75076912  0.05945021  1
  O  O357  1  0.71402479  0.75005245  0.30721899  1
  O  O358  1  0.71292088  0.74975117  0.55759834  1
  O  O359  1  0.71186273  0.74976443  0.80847092  1
  O  O360  1  0.28608930  0.24864505  0.19167565  1
  O  O361  1  0.28724312  0.25098605  0.44250440  1
  O  O362  1  0.28665480  0.25025126  0.69355782  1
  O  O363  1  0.28533015  0.25044083  0.94266619  1
  O  O364  1  0.28540074  0.58314800  0.19267883  1
  O  O365  1  0.28650092  0.58295547  0.44090938  1
  O  O366  1  0.28677187  0.58242906  0.69408258  1
  O  O367  1  0.28661590  0.58358208  0.94209065  1
  O  O368  1  0.28732080  0.91550939  0.19047658  1
  O  O369  1  0.28722885  0.91807115  0.44201897  1
  O  O370  1  0.28725400  0.91758938  0.69136714  1
  O  O371  1  0.28712648  0.91540518  0.94240913  1
  O  O372  1  0.78751593  0.24936155  0.19281111  1
  O  O373  1  0.78727053  0.25024898  0.44274326  1
  O  O374  1  0.78727260  0.24911103  0.69253832  1
  O  O375  1  0.78726967  0.24936474  0.94138015  1
  O  O376  1  0.78687234  0.58630694  0.19253333  1
  O  O377  1  0.78825305  0.58483066  0.44164249  1
  O  O378  1  0.78791405  0.58148200  0.69309461  1
  O  O379  1  0.78698638  0.58346455  0.94283404  1
  O  O380  1  0.78723793  0.91690851  0.19276398  1
  O  O381  1  0.78717935  0.91892919  0.44231962  1
  O  O382  1  0.78787586  0.91759645  0.69135405  1
  O  O383  1  0.78775854  0.91605943  0.94297039  1
  O  O384  1  0.22621012  0.25051742  0.05875929  1
  O  O385  1  0.22759160  0.24831780  0.30782642  1
  O  O386  1  0.22819252  0.25159793  0.55822829  1
  O  O387  1  0.22717954  0.24994458  0.80928181  1
  O  O388  1  0.22742471  0.58392288  0.05775958  1
  O  O389  1  0.22645356  0.58235066  0.30883937  1
  O  O390  1  0.22814934  0.58248305  0.55687630  1
  O  O391  1  0.22710634  0.58306796  0.80963050  1
  O  O392  1  0.22766940  0.91548039  0.05767219  1
  O  O393  1  0.22846559  0.91654931  0.30585891  1
  O  O394  1  0.22775882  0.91828951  0.55749878  1
  O  O395  1  0.22837227  0.91673180  0.80675572  1
  O  O396  1  0.72818294  0.25035495  0.05664014  1
  O  O397  1  0.72830903  0.24816133  0.30816179  1
  O  O398  1  0.72831065  0.25123668  0.55843034  1
  O  O399  1  0.72835932  0.24846856  0.80831471  1
  O  O400  1  0.72796058  0.58575852  0.05845700  1
  O  O401  1  0.72808984  0.58616820  0.30837317  1
  O  O402  1  0.72907360  0.58327932  0.55674205  1
  O  O403  1  0.72817364  0.58113691  0.80818155  1
  O  O404  1  0.72829122  0.91508376  0.05830393  1
  O  O405  1  0.72836240  0.91821785  0.30848853  1
  O  O406  1  0.72847473  0.91911616  0.55819623  1
  O  O407  1  0.72879375  0.91724483  0.80659287  1
  O  O408  1  0.27163238  0.08478957  0.19102925  1
  O  O409  1  0.27222149  0.08505160  0.44141291  1
  O  O410  1  0.27247549  0.08220324  0.69184147  1
  O  O411  1  0.27213723  0.08511659  0.94196247  1
  O  O412  1  0.27108030  0.41512630  0.19154622  1
  O  O413  1  0.27118436  0.41815942  0.44118537  1
  O  O414  1  0.27208102  0.41445498  0.69228640  1
  O  O415  1  0.27254213  0.41530739  0.94108522  1
  O  O416  1  0.27284999  0.74853437  0.19019504  1
  O  O417  1  0.27230284  0.74839505  0.44134444  1
  O  O418  1  0.27167603  0.74973248  0.69308751  1
  O  O419  1  0.27206113  0.74797037  0.94200045  1
  O  O420  1  0.77133488  0.08314745  0.19366330  1
  O  O421  1  0.77311739  0.08394382  0.44083486  1
  O  O422  1  0.77238971  0.08190875  0.69208206  1
  O  O423  1  0.77237132  0.08499575  0.94251183  1
  O  O424  1  0.77120079  0.41743973  0.19376267  1
  O  O425  1  0.77103563  0.41682399  0.44342504  1
  O  O426  1  0.77231037  0.41436668  0.69220778  1
  O  O427  1  0.77205160  0.41817140  0.94261069  1
  O  O428  1  0.77324018  0.75079252  0.19118189  1
  O  O429  1  0.77246155  0.74930808  0.44240004  1
  O  O430  1  0.77153536  0.75010934  0.69377251  1
  O  O431  1  0.77163219  0.74990051  0.94368602  1
  O  O432  1  0.02225406  0.08139231  0.18253978  1
  O  O433  1  0.02279347  0.08419120  0.43362778  1
  O  O434  1  0.02343200  0.08357071  0.68441013  1
  O  O435  1  0.02325919  0.08235164  0.93377655  1
  O  O436  1  0.02175009  0.41690936  0.18090830  1
  O  O437  1  0.02116848  0.41667836  0.43191140  1
  O  O438  1  0.02228553  0.41559604  0.68303489  1
  O  O439  1  0.02305674  0.41562720  0.93353186  1
  O  O440  1  0.02277835  0.75253960  0.18264198  1
  O  O441  1  0.02356470  0.75121244  0.43437304  1
  O  O442  1  0.02278243  0.75008755  0.68482109  1
  O  O443  1  0.02211135  0.74919493  0.93303621  1
  O  O444  1  0.52129563  0.08391876  0.18144542  1
  O  O445  1  0.52189945  0.08130298  0.43293203  1
  O  O446  1  0.52228296  0.08170341  0.68351467  1
  O  O447  1  0.52255541  0.08276463  0.93458653  1
  O  O448  1  0.52210541  0.41685261  0.18459515  1
  O  O449  1  0.52102969  0.41713122  0.43158531  1
  O  O450  1  0.52100118  0.41727485  0.68209794  1
  O  O451  1  0.52140169  0.41526602  0.93376992  1
  O  O452  1  0.52211895  0.74801979  0.18304948  1
  O  O453  1  0.52209716  0.74860221  0.43287329  1
  O  O454  1  0.52179162  0.75223939  0.68335477  1
  O  O455  1  0.52164155  0.74869143  0.93378182  1
  O  O456  1  0.47695241  0.24989893  0.06565181  1
  O  O457  1  0.47752901  0.25166709  0.31688547  1
  O  O458  1  0.47847912  0.24941616  0.56851379  1
  O  O459  1  0.47786191  0.24955828  0.81901076  1
  O  O460  1  0.47749495  0.58461824  0.06728160  1
  O  O461  1  0.47684745  0.58324006  0.31563781  1
  O  O462  1  0.47778292  0.58557322  0.56695621  1
  O  O463  1  0.47820640  0.58400185  0.81894755  1
  O  O464  1  0.47828615  0.91792747  0.06701581  1
  O  O465  1  0.47877626  0.91602147  0.31815724  1
  O  O466  1  0.47811529  0.91837249  0.56684006  1
  O  O467  1  0.47733551  0.91661500  0.81581826  1
  O  O468  1  0.97700676  0.25039882  0.06467768  1
  O  O469  1  0.97846892  0.24947101  0.31759600  1
  O  O470  1  0.97792542  0.24736121  0.56689018  1
  O  O471  1  0.97698639  0.24897955  0.81542065  1
  O  O472  1  0.97702144  0.58403225  0.06514225  1
  O  O473  1  0.97839259  0.58465658  0.31768821  1
  O  O474  1  0.97807943  0.58514935  0.56699611  1
  O  O475  1  0.97771155  0.58450404  0.81663776  1
  O  O476  1  0.97832433  0.91839881  0.06638095  1
  O  O477  1  0.97788131  0.91706210  0.31564940  1
  O  O478  1  0.97857297  0.91448098  0.56706981  1
  O  O479  1  0.97776580  0.91573500  0.81552889  1
  O  O480  1  0.07254281  0.31306017  0.07218425  1
  O  O481  1  0.07350041  0.31324989  0.32496952  1
  O  O482  1  0.07281183  0.31172914  0.57543566  1
  O  O483  1  0.07135840  0.31323244  0.82292443  1
  O  O484  1  0.07212093  0.64764331  0.07276424  1
  O  O485  1  0.07413312  0.64735000  0.32456381  1
  O  O486  1  0.07344481  0.64788863  0.57423438  1
  O  O487  1  0.07276965  0.64766804  0.82443192  1
  O  O488  1  0.07342955  0.98147753  0.07380977  1
  O  O489  1  0.07263404  0.98085003  0.32377449  1
  O  O490  1  0.07345963  0.97852192  0.57522849  1
  O  O491  1  0.07226690  0.98016332  0.82258945  1
  O  O492  1  0.57176353  0.31418498  0.07357231  1
  O  O493  1  0.57293818  0.31432763  0.32394197  1
  O  O494  1  0.57339934  0.31364895  0.57556071  1
  O  O495  1  0.57319138  0.31318141  0.82646483  1
  O  O496  1  0.57243722  0.64793635  0.07516203  1
  O  O497  1  0.57189981  0.64710820  0.32299095  1
  O  O498  1  0.57294673  0.64870070  0.57390322  1
  O  O499  1  0.57420601  0.64660632  0.82590975  1
  O  O500  1  0.57345170  0.98110515  0.07394388  1
  O  O501  1  0.57392089  0.98006403  0.32518812  1
  O  O502  1  0.57319077  0.98148253  0.57449982  1
  O  O503  1  0.57244022  0.98030234  0.82385680  1
  O  O504  1  0.42627920  0.01992247  0.17375626  1
  O  O505  1  0.42656739  0.01848389  0.42589692  1
  O  O506  1  0.42698119  0.01871655  0.67669903  1
  O  O507  1  0.42742695  0.01903374  0.92688173  1
  O  O508  1  0.42729753  0.35276350  0.17660488  1
  O  O509  1  0.42576846  0.35356822  0.42399329  1
  O  O510  1  0.42569533  0.35373073  0.67524684  1
  O  O511  1  0.42624878  0.35199402  0.92681307  1
  O  O512  1  0.42643047  0.68551859  0.17609001  1
  O  O513  1  0.42712399  0.68500075  0.42596154  1
  O  O514  1  0.42642666  0.68824475  0.67578253  1
  O  O515  1  0.42678404  0.68541568  0.92594420  1
  O  O516  1  0.92696153  0.01888982  0.17580682  1
  O  O517  1  0.92766090  0.02030610  0.42597095  1
  O  O518  1  0.92943098  0.01862776  0.67658526  1
  O  O519  1  0.92797272  0.01934669  0.92540919  1
  O  O520  1  0.92634056  0.35354612  0.17352401  1
  O  O521  1  0.92572114  0.35346166  0.42460183  1
  O  O522  1  0.92781430  0.35133327  0.67646004  1
  O  O523  1  0.92730233  0.35302901  0.92567625  1
  O  O524  1  0.92757822  0.68850595  0.17574248  1
  O  O525  1  0.92886304  0.68744114  0.42641997  1
  O  O526  1  0.92803554  0.68619912  0.67655046  1
  O  O527  1  0.92700258  0.68608559  0.92562595  1
  O  O528  1  0.17648942  0.02112820  0.19943775  1
  O  O529  1  0.17680294  0.02133122  0.44894266  1
  O  O530  1  0.17767187  0.01877822  0.69892693  1
  O  O531  1  0.17706435  0.02112152  0.95004994  1
  O  O532  1  0.17623574  0.35171454  0.19867953  1
  O  O533  1  0.17623666  0.35380814  0.44947680  1
  O  O534  1  0.17707916  0.35139984  0.69943102  1
  O  O535  1  0.17663524  0.35301338  0.94803460  1
  O  O536  1  0.17720242  0.68580935  0.19793749  1
  O  O537  1  0.17701936  0.68560574  0.44832687  1
  O  O538  1  0.17649537  0.68568304  0.70010163  1
  O  O539  1  0.17690670  0.68509552  0.94938200  1
  O  O540  1  0.67577376  0.02017311  0.20088850  1
  O  O541  1  0.67819606  0.02002293  0.44841058  1
  O  O542  1  0.67737215  0.01882280  0.69953739  1
  O  O543  1  0.67726669  0.02071564  0.94942197  1
  O  O544  1  0.67609526  0.35360227  0.20006020  1
  O  O545  1  0.67535676  0.35348990  0.45007759  1
  O  O546  1  0.67723498  0.35137012  0.70026485  1
  O  O547  1  0.67653090  0.35487903  0.95001903  1
  O  O548  1  0.67821149  0.68707270  0.19858407  1
  O  O549  1  0.67727943  0.68614984  0.44897471  1
  O  O550  1  0.67625519  0.68617374  0.70044863  1
  O  O551  1  0.67599105  0.68712566  0.95145889  1
  O  O552  1  0.32108262  0.31390131  0.05142588  1
  O  O553  1  0.32274650  0.31210919  0.29945736  1
  O  O554  1  0.32284647  0.31525899  0.55089080  1
  O  O555  1  0.32271212  0.31297066  0.80225644  1
  O  O556  1  0.32270027  0.64682118  0.05104402  1
  O  O557  1  0.32130388  0.64615722  0.30113610  1
  O  O558  1  0.32322062  0.64636714  0.54924995  1
  O  O559  1  0.32232410  0.64645726  0.80196518  1
  O  O560  1  0.32322814  0.97885114  0.04988852  1
  O  O561  1  0.32380200  0.97983989  0.29799724  1
  O  O562  1  0.32270662  0.98168338  0.55065314  1
  O  O563  1  0.32395270  0.97995824  0.80013927  1
  O  O564  1  0.82335814  0.31384511  0.04899810  1
  O  O565  1  0.82326851  0.31285836  0.30053987  1
  O  O566  1  0.82320101  0.31446765  0.55121723  1
  O  O567  1  0.82398248  0.31169391  0.80065760  1
  O  O568  1  0.82332607  0.64818667  0.05064672  1
  O  O569  1  0.82359761  0.64899795  0.30113885  1
  O  O570  1  0.82446320  0.64709635  0.55064870  1
  O  O571  1  0.82327539  0.64526944  0.80091128  1
  O  O572  1  0.82306270  0.97985875  0.05067624  1
  O  O573  1  0.82325479  0.98154020  0.30079961  1
  O  O574  1  0.82396607  0.98184319  0.55094524  1
  O  O575  1  0.82477912  0.97974748  0.80003294  1
  O  O576  1  0.42563537  0.14670896  0.17374587  1
  O  O577  1  0.42683118  0.14577140  0.42583632  1
  O  O578  1  0.42705698  0.14569340  0.67558495  1
  O  O579  1  0.42756899  0.14642302  0.92649921  1
  O  O580  1  0.42699976  0.48022275  0.17594835  1
  O  O581  1  0.42558374  0.48033464  0.42364298  1
  O  O582  1  0.42552088  0.48081602  0.67544683  1
  O  O583  1  0.42608160  0.47911603  0.92654067  1
  O  O584  1  0.42734795  0.81262138  0.17517225  1
  O  O585  1  0.42663406  0.81207246  0.42474857  1
  O  O586  1  0.42676361  0.81534170  0.67596433  1
  O  O587  1  0.42617247  0.81254337  0.92609128  1
  O  O588  1  0.92723522  0.14578385  0.17423242  1
  O  O589  1  0.92778172  0.14736945  0.42611728  1
  O  O590  1  0.92748053  0.14589453  0.67683259  1
  O  O591  1  0.92869427  0.14654078  0.92606492  1
  O  O592  1  0.92630423  0.48035720  0.17349145  1
  O  O593  1  0.92590523  0.48048323  0.42486026  1
  O  O594  1  0.92643240  0.47855652  0.67539718  1
  O  O595  1  0.92887844  0.48039125  0.92595359  1
  O  O596  1  0.92766509  0.81556400  0.17560201  1
  O  O597  1  0.92827734  0.81472485  0.42692895  1
  O  O598  1  0.92760204  0.81335404  0.67614320  1
  O  O599  1  0.92689400  0.81303617  0.92477766  1
  O  O600  1  0.07130344  0.18563631  0.07204267  1
  O  O601  1  0.07418457  0.18641145  0.32417109  1
  O  O602  1  0.07328874  0.18470089  0.57482354  1
  O  O603  1  0.07244805  0.18602108  0.82406474  1
  O  O604  1  0.07184554  0.52010888  0.07210880  1
  O  O605  1  0.07328831  0.52051211  0.32518747  1
  O  O606  1  0.07296873  0.52066249  0.57548478  1
  O  O607  1  0.07290468  0.52067005  0.82544917  1
  O  O608  1  0.07359012  0.85467986  0.07444896  1
  O  O609  1  0.07307782  0.85352278  0.32272628  1
  O  O610  1  0.07393382  0.85165354  0.57445433  1
  O  O611  1  0.07310746  0.85277041  0.82426149  1
  O  O612  1  0.57226666  0.18680521  0.07398569  1
  O  O613  1  0.57249521  0.18709743  0.32414264  1
  O  O614  1  0.57432319  0.18659799  0.57539924  1
  O  O615  1  0.57346275  0.18644486  0.82650721  1
  O  O616  1  0.57291393  0.52095822  0.07600700  1
  O  O617  1  0.57193117  0.51981053  0.32368002  1
  O  O618  1  0.57301809  0.52145189  0.57422117  1
  O  O619  1  0.57312994  0.51972733  0.82602861  1
  O  O620  1  0.57349485  0.85386632  0.07439714  1
  O  O621  1  0.57439637  0.85313024  0.32592233  1
  O  O622  1  0.57343316  0.85459059  0.57510422  1
  O  O623  1  0.57209355  0.85286499  0.82414459  1
  O  O624  1  0.32131026  0.18670790  0.05081402  1
  O  O625  1  0.32270837  0.18519359  0.30054929  1
  O  O626  1  0.32378986  0.18818019  0.55069594  1
  O  O627  1  0.32179145  0.18571155  0.80164050  1
  O  O628  1  0.32263902  0.51997519  0.05023646  1
  O  O629  1  0.32122172  0.51864800  0.30040334  1
  O  O630  1  0.32379610  0.51972816  0.54928428  1
  O  O631  1  0.32171502  0.51889986  0.80260853  1
  O  O632  1  0.32242535  0.85150825  0.05088019  1
  O  O633  1  0.32395248  0.85296580  0.29918995  1
  O  O634  1  0.32303132  0.85431501  0.54965840  1
  O  O635  1  0.32367571  0.85321621  0.79912906  1
  O  O636  1  0.82384867  0.18687047  0.04999228  1
  O  O637  1  0.82382301  0.18559154  0.30120991  1
  O  O638  1  0.82381075  0.18739587  0.55073313  1
  O  O639  1  0.82303962  0.18457467  0.80070954  1
  O  O640  1  0.82306553  0.52114099  0.05136778  1
  O  O641  1  0.82301782  0.52173517  0.29981223  1
  O  O642  1  0.82465894  0.52024059  0.54923685  1
  O  O643  1  0.82346907  0.51794220  0.80178240  1
  O  O644  1  0.82387821  0.85258387  0.05147522  1
  O  O645  1  0.82381782  0.85451646  0.30118762  1
  O  O646  1  0.82333650  0.85463208  0.54974938  1
  O  O647  1  0.82374962  0.85297196  0.79916557  1
  O  O648  1  0.17637807  0.14814696  0.19802421  1
  O  O649  1  0.17740437  0.14851597  0.44947245  1
  O  O650  1  0.17699342  0.14585426  0.69949502  1
  O  O651  1  0.17682657  0.14823933  0.94838249  1
  O  O652  1  0.17549021  0.47875127  0.19865293  1
  O  O653  1  0.17597375  0.48086833  0.44934549  1
  O  O654  1  0.17684936  0.47844410  0.70053975  1
  O  O655  1  0.17846599  0.48030019  0.94795134  1
  O  O656  1  0.17856976  0.81319904  0.19797267  1
  O  O657  1  0.17735107  0.81284500  0.44868431  1
  O  O658  1  0.17615051  0.81259847  0.70067305  1
  O  O659  1  0.17678693  0.81205960  0.94986670  1
  O  O660  1  0.67592418  0.14681963  0.20070372  1
  O  O661  1  0.67811206  0.14743813  0.44931481  1
  O  O662  1  0.67688570  0.14580375  0.69965081  1
  O  O663  1  0.67706004  0.14802523  0.94874154  1
  O  O664  1  0.67557698  0.48072375  0.20070566  1
  O  O665  1  0.67579071  0.48037968  0.45094054  1
  O  O666  1  0.67699197  0.47859404  0.69962651  1
  O  O667  1  0.67714825  0.48208343  0.94932791  1
  O  O668  1  0.67826449  0.81443500  0.19949010  1
  O  O669  1  0.67715858  0.81335564  0.44986007  1
  O  O670  1  0.67593765  0.81325885  0.70013783  1
  O  O671  1  0.67638943  0.81381571  0.95082377  1
