# generated using pymatgen
data_Na2MnFe(PO4)2
_symmetry_space_group_name_H-M   'P 1'
_cell_length_a   22.34028240
_cell_length_b   20.08776031
_cell_length_c   19.45249330
_cell_angle_alpha   90.05745191
_cell_angle_beta   89.98489082
_cell_angle_gamma   89.98548441
_symmetry_Int_Tables_number   1
_chemical_formula_structural   Na2MnFe(PO4)2
_chemical_formula_sum   'Na96 Mn48 Fe48 P96 O384'
_cell_volume   8729.61726477
_cell_formula_units_Z   48
loop_
 _symmetry_equiv_pos_site_id
 _symmetry_equiv_pos_as_xyz
  1  'x, y, z'
loop_
 _atom_site_type_symbol
 _atom_site_label
 _atom_site_symmetry_multiplicity
 _atom_site_fract_x
 _atom_site_fract_y
 _atom_site_fract_z
 _atom_site_occupancy
  Na  Na0  1  0.14099289  0.24904627  0.24407945  1
  Na  Na1  1  0.14105691  0.24877440  0.49351836  1
  Na  Na2  1  0.14079054  0.24989895  0.74464553  1
  Na  Na3  1  0.14059472  0.25142662  0.99328300  1
  Na  Na4  1  0.14035882  0.58277429  0.24399214  1
  Na  Na5  1  0.14016608  0.58220555  0.49428186  1
  Na  Na6  1  0.13962977  0.58332641  0.74386242  1
  Na  Na7  1  0.14042094  0.58493676  0.99383944  1
  Na  Na8  1  0.14032167  0.91605004  0.24311156  1
  Na  Na9  1  0.14043516  0.91618723  0.49271243  1
  Na  Na10  1  0.14020676  0.91656202  0.74489815  1
  Na  Na11  1  0.13995698  0.91808373  0.99286102  1
  Na  Na12  1  0.64097830  0.25041816  0.24437354  1
  Na  Na13  1  0.64050782  0.25069050  0.49275970  1
  Na  Na14  1  0.64090474  0.24976707  0.74288823  1
  Na  Na15  1  0.64045485  0.24990797  0.99392958  1
  Na  Na16  1  0.63987338  0.58315736  0.24370858  1
  Na  Na17  1  0.64065941  0.58334294  0.49203501  1
  Na  Na18  1  0.64024203  0.58280463  0.74345376  1
  Na  Na19  1  0.63995485  0.58276317  0.99478883  1
  Na  Na20  1  0.64042992  0.91585388  0.24379052  1
  Na  Na21  1  0.64093610  0.91634415  0.49366717  1
  Na  Na22  1  0.63979559  0.91655648  0.74356765  1
  Na  Na23  1  0.64003814  0.91652312  0.99316626  1
  Na  Na24  1  0.35964659  0.08485016  0.00618109  1
  Na  Na25  1  0.35971780  0.08326745  0.25634051  1
  Na  Na26  1  0.35990457  0.08319691  0.50514361  1
  Na  Na27  1  0.35999244  0.08242777  0.75738682  1
  Na  Na28  1  0.35954252  0.41872048  0.00633010  1
  Na  Na29  1  0.35962178  0.41639058  0.25647344  1
  Na  Na30  1  0.35989685  0.41543615  0.50600230  1
  Na  Na31  1  0.36000966  0.41715312  0.75594430  1
  Na  Na32  1  0.35934897  0.75220704  0.00633473  1
  Na  Na33  1  0.35959363  0.74948958  0.25617291  1
  Na  Na34  1  0.35985741  0.74812805  0.50575033  1
  Na  Na35  1  0.35965568  0.75051121  0.75709823  1
  Na  Na36  1  0.85953183  0.08337929  0.00577108  1
  Na  Na37  1  0.85937163  0.08239595  0.25644592  1
  Na  Na38  1  0.85998014  0.08315520  0.50638694  1
  Na  Na39  1  0.85965928  0.08313137  0.75569563  1
  Na  Na40  1  0.85967201  0.41731920  0.00646653  1
  Na  Na41  1  0.85933553  0.41818862  0.25653655  1
  Na  Na42  1  0.85925716  0.41702674  0.50582613  1
  Na  Na43  1  0.85923380  0.41674844  0.75647275  1
  Na  Na44  1  0.85922491  0.74992459  0.00652164  1
  Na  Na45  1  0.85889660  0.75004313  0.25744454  1
  Na  Na46  1  0.85962291  0.74947556  0.50630009  1
  Na  Na47  1  0.85994448  0.75006892  0.75679393  1
  Na  Na48  1  0.10997941  0.08273768  0.11788922  1
  Na  Na49  1  0.11031270  0.08148186  0.36791172  1
  Na  Na50  1  0.11007005  0.08377507  0.61936478  1
  Na  Na51  1  0.10998961  0.08236948  0.86854878  1
  Na  Na52  1  0.10977811  0.41713119  0.11899271  1
  Na  Na53  1  0.10963597  0.41615035  0.36899967  1
  Na  Na54  1  0.10963174  0.41854026  0.61957188  1
  Na  Na55  1  0.10937441  0.41696587  0.86867438  1
  Na  Na56  1  0.10947578  0.75097849  0.11900101  1
  Na  Na57  1  0.10957861  0.74813656  0.36870814  1
  Na  Na58  1  0.10950241  0.75101447  0.61964047  1
  Na  Na59  1  0.10903781  0.75019874  0.86915472  1
  Na  Na60  1  0.60992352  0.08140714  0.11858779  1
  Na  Na61  1  0.61000974  0.08329153  0.36903496  1
  Na  Na62  1  0.60960234  0.08309981  0.61853076  1
  Na  Na63  1  0.60972297  0.08344420  0.86851262  1
  Na  Na64  1  0.60968612  0.41687488  0.11935796  1
  Na  Na65  1  0.61002988  0.41708604  0.36829611  1
  Na  Na66  1  0.61022881  0.41747582  0.61715517  1
  Na  Na67  1  0.60940264  0.41700009  0.86888773  1
  Na  Na68  1  0.60957842  0.74793496  0.11895713  1
  Na  Na69  1  0.60985440  0.74898649  0.36757142  1
  Na  Na70  1  0.60946062  0.75054696  0.61874334  1
  Na  Na71  1  0.60926894  0.74999880  0.86897581  1
  Na  Na72  1  0.39058871  0.24951099  0.13183735  1
  Na  Na73  1  0.39032072  0.24972922  0.38140702  1
  Na  Na74  1  0.39100728  0.25007592  0.63019371  1
  Na  Na75  1  0.39095461  0.25067927  0.88183643  1
  Na  Na76  1  0.39004706  0.58331520  0.13142649  1
  Na  Na77  1  0.39016262  0.58252654  0.38122730  1
  Na  Na78  1  0.39046045  0.58389791  0.63128594  1
  Na  Na79  1  0.39009384  0.58349902  0.88105327  1
  Na  Na80  1  0.39023235  0.91614566  0.13093996  1
  Na  Na81  1  0.39035937  0.91701844  0.38102395  1
  Na  Na82  1  0.39046330  0.91705729  0.63139185  1
  Na  Na83  1  0.39016627  0.91776314  0.88172729  1
  Na  Na84  1  0.89076898  0.25113215  0.13091815  1
  Na  Na85  1  0.89054539  0.24979396  0.38165028  1
  Na  Na86  1  0.89028008  0.25101624  0.63140915  1
  Na  Na87  1  0.89043540  0.24854641  0.88069234  1
  Na  Na88  1  0.88966029  0.58412814  0.13245627  1
  Na  Na89  1  0.88975184  0.58303685  0.38132303  1
  Na  Na90  1  0.89008968  0.58464327  0.63179552  1
  Na  Na91  1  0.88994520  0.58382099  0.88162327  1
  Na  Na92  1  0.88971983  0.91700092  0.13105630  1
  Na  Na93  1  0.88991432  0.91538256  0.38167015  1
  Na  Na94  1  0.89064269  0.91757369  0.63081774  1
  Na  Na95  1  0.89059952  0.91619968  0.88100915  1
  Mn  Mn96  1  0.74994230  0.83257997  0.87499560  1
  Mn  Mn97  1  0.50075005  0.00055632  0.50067464  1
  Mn  Mn98  1  -0.00004075  0.16631193  0.24956142  1
  Mn  Mn99  1  -0.00040449  0.66671339  0.24984863  1
  Mn  Mn100  1  0.50029780  0.50055795  0.49943488  1
  Mn  Mn101  1  0.74940189  0.83288641  0.12531393  1
  Mn  Mn102  1  0.24982581  -0.00056691  0.62520094  1
  Mn  Mn103  1  0.49943400  0.66618093  -0.00070089  1
  Mn  Mn104  1  -0.00008489  0.83306839  0.50061459  1
  Mn  Mn105  1  0.25060776  0.83276679  0.62456248  1
  Mn  Mn106  1  0.50067418  0.33329002  0.24994078  1
  Mn  Mn107  1  0.25033317  0.33442612  0.87482016  1
  Mn  Mn108  1  0.00100241  0.16587307  0.50014497  1
  Mn  Mn109  1  0.50025746  0.83290231  0.49974838  1
  Mn  Mn110  1  -0.00033635  0.66759803  0.00072712  1
  Mn  Mn111  1  -0.00065983  0.50143357  0.50048711  1
  Mn  Mn112  1  0.75043920  0.16633551  0.12529097  1
  Mn  Mn113  1  0.24995212  0.66724514  0.87495821  1
  Mn  Mn114  1  0.00019480  0.33339319  0.74997090  1
  Mn  Mn115  1  0.50002717  0.66738221  0.75039391  1
  Mn  Mn116  1  0.75016670  0.16642413  0.62382833  1
  Mn  Mn117  1  0.50098199  0.16572672  0.25059179  1
  Mn  Mn118  1  0.25002751  0.49921665  0.37451499  1
  Mn  Mn119  1  0.00041784  0.33409221  0.25049226  1
  Mn  Mn120  1  -0.00037013  -0.00147376  0.24905385  1
  Mn  Mn121  1  0.75042832  0.16674534  0.37510106  1
  Mn  Mn122  1  0.74947546  0.50047222  0.87527152  1
  Mn  Mn123  1  0.00030003  0.00006716  0.75008548  1
  Mn  Mn124  1  0.25004524  0.83256905  0.37434935  1
  Mn  Mn125  1  0.50008645  -0.00066494  -0.00022244  1
  Mn  Mn126  1  0.49974831  0.33361056  0.00041968  1
  Mn  Mn127  1  0.75024523  0.00048638  0.87461297  1
  Mn  Mn128  1  0.49976225  0.83249445  0.25019077  1
  Mn  Mn129  1  0.50082528  0.33445217  0.75040134  1
  Mn  Mn130  1  0.75055858  0.33430481  0.12476319  1
  Mn  Mn131  1  0.00011126  0.49980552  0.00005482  1
  Mn  Mn132  1  0.24990424  0.16724094  0.12515223  1
  Mn  Mn133  1  0.74995171  0.83331215  0.62507778  1
  Mn  Mn134  1  0.50069871  0.16676596  0.75011306  1
  Mn  Mn135  1  0.24983706  0.83422081  0.12543416  1
  Mn  Mn136  1  0.74922597  0.66599705  0.62471007  1
  Mn  Mn137  1  0.00045139  0.33383177  0.50069668  1
  Mn  Mn138  1  0.25071535  0.33318091  0.62524940  1
  Mn  Mn139  1  0.24946764  0.66514843  0.62624193  1
  Mn  Mn140  1  0.74964531  0.33286344  0.87506110  1
  Mn  Mn141  1  0.00039655  0.16630957  0.00005326  1
  Mn  Mn142  1  0.24981791  0.50068665  0.12567834  1
  Mn  Mn143  1  0.25048562  0.16590024  0.62470213  1
  Fe  Fe144  1  -0.00060779  -0.00067153  -0.00063332  1
  Fe  Fe145  1  0.00051199  -0.00025830  0.50001897  1
  Fe  Fe146  1  0.50027198  0.33380943  0.49982627  1
  Fe  Fe147  1  0.25052046  -0.00039866  0.37433585  1
  Fe  Fe148  1  -0.00087521  0.83344973  -0.00038373  1
  Fe  Fe149  1  0.50056585  0.16622403  0.00027402  1
  Fe  Fe150  1  0.75032032  0.49969457  0.62429728  1
  Fe  Fe151  1  0.24985622  0.66745166  0.12457768  1
  Fe  Fe152  1  0.74989898  -0.00043984  0.37514538  1
  Fe  Fe153  1  0.50017205  0.50062951  0.74912137  1
  Fe  Fe154  1  0.75004191  0.33365324  0.62386948  1
  Fe  Fe155  1  -0.00005648  0.50023667  0.25017229  1
  Fe  Fe156  1  0.24965911  0.50074611  0.87554556  1
  Fe  Fe157  1  0.74980819  0.83328651  0.37494112  1
  Fe  Fe158  1  0.75046068  0.33416558  0.37457659  1
  Fe  Fe159  1  0.25044877  0.16746384  0.87540098  1
  Fe  Fe160  1  -0.00014081  0.83326603  0.24985802  1
  Fe  Fe161  1  0.24991542  0.00094498  0.12431848  1
  Fe  Fe162  1  -0.00010358  0.33327718  -0.00026625  1
  Fe  Fe163  1  0.00029085  0.16648915  0.75027342  1
  Fe  Fe164  1  0.49995399  -0.00054142  0.24975478  1
  Fe  Fe165  1  0.25000428  0.66580666  0.37537911  1
  Fe  Fe166  1  0.50010443  0.83309561  -0.00024487  1
  Fe  Fe167  1  0.74969084  0.66628513  0.12620577  1
  Fe  Fe168  1  0.00007525  0.66724706  0.50050896  1
  Fe  Fe169  1  0.49972184  0.50002164  0.00006592  1
  Fe  Fe170  1  0.25027622  0.16605813  0.37436974  1
  Fe  Fe171  1  -0.00044074  0.66739892  0.75044357  1
  Fe  Fe172  1  0.24986563  0.00064960  0.87526010  1
  Fe  Fe173  1  0.25020140  0.33356311  0.12520550  1
  Fe  Fe174  1  0.25010789  0.49904979  0.62467844  1
  Fe  Fe175  1  0.49991718  0.00016572  0.75011352  1
  Fe  Fe176  1  0.24949421  0.83426241  0.87612110  1
  Fe  Fe177  1  0.24980186  0.33252125  0.37543309  1
  Fe  Fe178  1  0.50012903  0.66666193  0.49974992  1
  Fe  Fe179  1  0.49921718  0.49978003  0.25015255  1
  Fe  Fe180  1  0.74990945  0.16634999  0.87440146  1
  Fe  Fe181  1  -0.00075839  0.50058471  0.75056692  1
  Fe  Fe182  1  0.74959191  -0.00028140  0.12525022  1
  Fe  Fe183  1  0.74969844  0.66601304  0.87565611  1
  Fe  Fe184  1  0.49955533  0.66579090  0.24899402  1
  Fe  Fe185  1  0.49989755  0.16665786  0.50015796  1
  Fe  Fe186  1  0.74938529  0.50087960  0.12583922  1
  Fe  Fe187  1  0.00038114  0.83369825  0.74981609  1
  Fe  Fe188  1  0.49940884  0.83385717  0.74958411  1
  Fe  Fe189  1  0.75036073  -0.00026116  0.62470494  1
  Fe  Fe190  1  0.74986833  0.66630208  0.37522742  1
  Fe  Fe191  1  0.74986528  0.50020570  0.37506271  1
  P  P192  1  0.04260412  0.25155423  0.10230108  1
  P  P193  1  0.04320700  0.24940965  0.35314048  1
  P  P194  1  0.04330926  0.25000022  0.60383719  1
  P  P195  1  0.04225010  0.24877038  0.85286693  1
  P  P196  1  0.04258461  0.58356974  0.10356774  1
  P  P197  1  0.04210421  0.58244971  0.35268669  1
  P  P198  1  0.04182209  0.58604987  0.60374032  1
  P  P199  1  0.04099860  0.58374350  0.85187122  1
  P  P200  1  0.04116122  0.91613397  0.10130004  1
  P  P201  1  0.04230596  0.91477116  0.35246761  1
  P  P202  1  0.04289692  0.91795386  0.60265041  1
  P  P203  1  0.04189082  0.91521575  0.85313352  1
  P  P204  1  0.54260988  0.24856837  0.10255268  1
  P  P205  1  0.54303482  0.25010486  0.35413980  1
  P  P206  1  0.54184854  0.25026098  0.60131580  1
  P  P207  1  0.54332879  0.25021810  0.85366694  1
  P  P208  1  0.54145724  0.58198345  0.10297846  1
  P  P209  1  0.54105535  0.58329527  0.35141425  1
  P  P210  1  0.54266171  0.58490801  0.60218784  1
  P  P211  1  0.54192345  0.58201114  0.85248363  1
  P  P212  1  0.54224483  0.91468961  0.10253448  1
  P  P213  1  0.54230026  0.91757632  0.35227204  1
  P  P214  1  0.54283225  0.91648941  0.60389455  1
  P  P215  1  0.54122093  0.91660298  0.85168091  1
  P  P216  1  0.45816291  0.08176732  0.14731125  1
  P  P217  1  0.45816038  0.08411796  0.39741522  1
  P  P218  1  0.45778966  0.08273513  0.64758059  1
  P  P219  1  0.45817415  0.08425414  0.89750670  1
  P  P220  1  0.45764002  0.41779274  0.14736067  1
  P  P221  1  0.45807008  0.41585089  0.39717697  1
  P  P222  1  0.45841057  0.41783740  0.64682767  1
  P  P223  1  0.45773751  0.41836580  0.89726473  1
  P  P224  1  0.45748373  0.74855539  0.14695615  1
  P  P225  1  0.45807557  0.74808625  0.39678833  1
  P  P226  1  0.45738350  0.75104410  0.64734446  1
  P  P227  1  0.45747706  0.75176707  0.89696890  1
  P  P228  1  0.95706777  0.08272611  0.14594911  1
  P  P229  1  0.95800024  0.08117480  0.39738581  1
  P  P230  1  0.95804364  0.08447998  0.64730810  1
  P  P231  1  0.95797664  0.08202305  0.89716038  1
  P  P232  1  0.95756850  0.41804174  0.14747035  1
  P  P233  1  0.95730441  0.41722167  0.39691112  1
  P  P234  1  0.95748406  0.41866709  0.64809632  1
  P  P235  1  0.95756946  0.41544049  0.89726753  1
  P  P236  1  0.95700000  0.75194069  0.14754991  1
  P  P237  1  0.95773064  0.74868801  0.39765940  1
  P  P238  1  0.95819980  0.75052755  0.64845636  1
  P  P239  1  0.95739559  0.75095565  0.89690643  1
  P  P240  1  0.20802141  0.08218390  0.22772941  1
  P  P241  1  0.20865964  0.08275251  0.47588391  1
  P  P242  1  0.20776555  0.08326914  0.72921977  1
  P  P243  1  0.20867052  0.08439841  0.97684488  1
  P  P244  1  0.20787660  0.41488803  0.22803578  1
  P  P245  1  0.20782231  0.41533582  0.47773630  1
  P  P246  1  0.20784967  0.41791604  0.72800132  1
  P  P247  1  0.20757567  0.41868486  0.97791689  1
  P  P248  1  0.20779570  0.74855422  0.22780222  1
  P  P249  1  0.20775273  0.74800409  0.47750298  1
  P  P250  1  0.20740373  0.75052861  0.72904678  1
  P  P251  1  0.20748913  0.75171676  0.97807000  1
  P  P252  1  0.70790233  0.08169017  0.22802991  1
  P  P253  1  0.70816261  0.08195954  0.47754124  1
  P  P254  1  0.70781070  0.08233696  0.72695989  1
  P  P255  1  0.70760347  0.08448731  0.97752421  1
  P  P256  1  0.70791573  0.41834335  0.22833075  1
  P  P257  1  0.70870287  0.41684381  0.47672986  1
  P  P258  1  0.70866976  0.41658317  0.72587011  1
  P  P259  1  0.70704348  0.41725825  0.97858031  1
  P  P260  1  0.70760299  0.74865620  0.22865903  1
  P  P261  1  0.70858984  0.74999404  0.47635342  1
  P  P262  1  0.70699309  0.74943694  0.72846662  1
  P  P263  1  0.70750594  0.74801379  0.97820398  1
  P  P264  1  0.29235616  0.25186068  0.02241682  1
  P  P265  1  0.29175610  0.24992716  0.27315485  1
  P  P266  1  0.29277705  0.24936484  0.52086481  1
  P  P267  1  0.29317826  0.24915245  0.77286088  1
  P  P268  1  0.29203161  0.58521057  0.02237434  1
  P  P269  1  0.29199161  0.58457277  0.27215450  1
  P  P270  1  0.29234031  0.58144179  0.52249301  1
  P  P271  1  0.29203556  0.58167012  0.77248903  1
  P  P272  1  0.29161799  0.91880000  0.02187752  1
  P  P273  1  0.29234103  0.91775130  0.27180899  1
  P  P274  1  0.29299234  0.91651587  0.52097875  1
  P  P275  1  0.29133712  0.91652787  0.77405731  1
  P  P276  1  0.79296989  0.24980160  0.02143939  1
  P  P277  1  0.79269028  0.25141415  0.27263817  1
  P  P278  1  0.79247962  0.25167582  0.52164393  1
  P  P279  1  0.79208115  0.24875425  0.77182956  1
  P  P280  1  0.79129405  0.58372918  0.02389033  1
  P  P281  1  0.79072201  0.58335626  0.27313741  1
  P  P282  1  0.79185203  0.58189454  0.52170373  1
  P  P283  1  0.79198768  0.58416555  0.77251050  1
  P  P284  1  0.79161432  0.91753174  0.02275645  1
  P  P285  1  0.79109115  0.91663508  0.27319856  1
  P  P286  1  0.79224862  0.91751071  0.52173710  1
  P  P287  1  0.79281968  0.91660397  0.77150543  1
  O  O288  1  0.03747577  0.25130482  0.18226059  1
  O  O289  1  0.03834651  0.24941745  0.43312431  1
  O  O290  1  0.03792721  0.24938777  0.68377154  1
  O  O291  1  0.03673470  0.24954163  0.93276308  1
  O  O292  1  0.03748974  0.58308671  0.18349001  1
  O  O293  1  0.03690699  0.58332311  0.43259809  1
  O  O294  1  0.03631158  0.58616343  0.68356959  1
  O  O295  1  0.03609357  0.58350526  0.93185197  1
  O  O296  1  0.03617786  0.91564927  0.18129714  1
  O  O297  1  0.03754378  0.91565934  0.43240570  1
  O  O298  1  0.03774461  0.91746567  0.68256940  1
  O  O299  1  0.03612716  0.91545872  0.93294368  1
  O  O300  1  0.53773059  0.24885240  0.18253896  1
  O  O301  1  0.53757094  0.25034435  0.43401294  1
  O  O302  1  0.53694162  0.25059264  0.68132927  1
  O  O303  1  0.53798362  0.24983417  0.93357218  1
  O  O304  1  0.53583715  0.58239158  0.18282889  1
  O  O305  1  0.53640838  0.58399604  0.43140902  1
  O  O306  1  0.53767214  0.58446182  0.68211540  1
  O  O307  1  0.53642030  0.58171168  0.93238183  1
  O  O308  1  0.53703161  0.91535157  0.18242307  1
  O  O309  1  0.53738524  0.91745273  0.43221289  1
  O  O310  1  0.53740207  0.91652297  0.68378985  1
  O  O311  1  0.53621932  0.91604428  0.93167621  1
  O  O312  1  0.46337383  0.08244588  0.06738526  1
  O  O313  1  0.46349488  0.08309831  0.31752027  1
  O  O314  1  0.46324650  0.08351117  0.56766666  1
  O  O315  1  0.46334486  0.08351969  0.81758007  1
  O  O316  1  0.46293235  0.41788555  0.06742278  1
  O  O317  1  0.46301566  0.41632410  0.31723411  1
  O  O318  1  0.46361650  0.41705871  0.56688301  1
  O  O319  1  0.46319108  0.41838370  0.81732246  1
  O  O320  1  0.46252600  0.74910990  0.06702766  1
  O  O321  1  0.46328492  0.74777128  0.31683565  1
  O  O322  1  0.46254654  0.75024097  0.56740576  1
  O  O323  1  0.46270314  0.75213757  0.81702597  1
  O  O324  1  0.96231574  0.08227644  0.06601814  1
  O  O325  1  0.96271265  0.08124541  0.31736040  1
  O  O326  1  0.96352983  0.08361570  0.56740220  1
  O  O327  1  0.96335871  0.08283060  0.81724769  1
  O  O328  1  0.96271736  0.41709630  0.06753154  1
  O  O329  1  0.96260719  0.41761181  0.31698578  1
  O  O330  1  0.96267899  0.41848973  0.56817532  1
  O  O331  1  0.96279683  0.41615711  0.81736611  1
  O  O332  1  0.96194096  0.75209215  0.06759428  1
  O  O333  1  0.96265068  0.74915471  0.31778307  1
  O  O334  1  0.96332410  0.75001092  0.56848403  1
  O  O335  1  0.96293926  0.75045688  0.81707866  1
  O  O336  1  0.21344660  0.08397557  0.05684014  1
  O  O337  1  0.21354344  0.08222516  0.30756260  1
  O  O338  1  0.21359651  0.08267387  0.55589160  1
  O  O339  1  0.21299489  0.08365559  0.80910397  1
  O  O340  1  0.21279830  0.41818108  0.05781618  1
  O  O341  1  0.21320065  0.41441230  0.30795673  1
  O  O342  1  0.21321255  0.41621233  0.55766950  1
  O  O343  1  0.21295156  0.41832351  0.80795698  1
  O  O344  1  0.21286299  0.75121123  0.05799000  1
  O  O345  1  0.21316252  0.74818009  0.30771886  1
  O  O346  1  0.21289748  0.74841117  0.55747119  1
  O  O347  1  0.21265962  0.75140672  0.80897614  1
  O  O348  1  0.71280293  0.08366532  0.05744293  1
  O  O349  1  0.71336430  0.08166736  0.30793865  1
  O  O350  1  0.71347043  0.08194945  0.55743833  1
  O  O351  1  0.71315407  0.08345343  0.80687511  1
  O  O352  1  0.71217963  0.41803180  0.05848022  1
  O  O353  1  0.71353756  0.41802505  0.30817610  1
  O  O354  1  0.71395836  0.41661797  0.55663108  1
  O  O355  1  0.71328331  0.41651015  0.80586333  1
  O  O356  1  0.71285557  0.74812862  0.05816687  1
  O  O357  1  0.71288701  0.74912556  0.30849666  1
  O  O358  1  0.71309618  0.74993986  0.55635317  1
  O  O359  1  0.71199872  0.74900670  0.80841392  1
  O  O360  1  0.28660391  0.25064965  0.19316825  1
  O  O361  1  0.28708576  0.24932716  0.44099882  1
  O  O362  1  0.28810136  0.24919662  0.69288976  1
  O  O363  1  0.28714342  0.25120237  0.94249349  1
  O  O364  1  0.28655368  0.58505368  0.19225568  1
  O  O365  1  0.28716886  0.58198491  0.44252760  1
  O  O366  1  0.28679933  0.58116840  0.69255637  1
  O  O367  1  0.28667471  0.58439909  0.94245846  1
  O  O368  1  0.28711338  0.91803244  0.19187373  1
  O  O369  1  0.28790794  0.91674726  0.44100328  1
  O  O370  1  0.28679451  0.91641506  0.69400489  1
  O  O371  1  0.28606791  0.91821412  0.94202443  1
  O  O372  1  0.78754390  0.25100729  0.19269146  1
  O  O373  1  0.78734654  0.25181912  0.44171512  1
  O  O374  1  0.78685522  0.24930074  0.69190564  1
  O  O375  1  0.78763921  0.24925356  0.94149331  1
  O  O376  1  0.78563544  0.58371162  0.19324734  1
  O  O377  1  0.78648494  0.58189253  0.44184721  1
  O  O378  1  0.78700152  0.58348082  0.69261328  1
  O  O379  1  0.78635999  0.58413769  0.94390628  1
  O  O380  1  0.78609104  0.91667136  0.19323639  1
  O  O381  1  0.78653945  0.91712190  0.44188267  1
  O  O382  1  0.78785855  0.91693568  0.69156469  1
  O  O383  1  0.78668599  0.91717481  0.94282901  1
  O  O384  1  0.22805730  0.25198018  0.05815284  1
  O  O385  1  0.22767060  0.24901715  0.30936534  1
  O  O386  1  0.22867386  0.24972075  0.55694152  1
  O  O387  1  0.22880200  0.24903795  0.80835017  1
  O  O388  1  0.22781932  0.58533046  0.05830719  1
  O  O389  1  0.22780963  0.58412704  0.30811202  1
  O  O390  1  0.22802530  0.58082872  0.55828033  1
  O  O391  1  0.22776233  0.58213686  0.80827671  1
  O  O392  1  0.22752564  0.91891452  0.05819765  1
  O  O393  1  0.22810259  0.91744885  0.30761054  1
  O  O394  1  0.22856594  0.91617214  0.55617825  1
  O  O395  1  0.22707316  0.91651460  0.80967479  1
  O  O396  1  0.72869467  0.25016411  0.05694888  1
  O  O397  1  0.72840974  0.25134719  0.30820256  1
  O  O398  1  0.72817980  0.25137696  0.55727825  1
  O  O399  1  0.72784645  0.24828550  0.80778753  1
  O  O400  1  0.72706642  0.58334637  0.05984039  1
  O  O401  1  0.72671619  0.58285930  0.30947710  1
  O  O402  1  0.72765049  0.58139434  0.55769019  1
  O  O403  1  0.72761000  0.58490510  0.80813638  1
  O  O404  1  0.72730410  0.91758871  0.05831084  1
  O  O405  1  0.72696146  0.91681459  0.30921498  1
  O  O406  1  0.72817131  0.91800559  0.55818057  1
  O  O407  1  0.72843651  0.91656223  0.80669432  1
  O  O408  1  0.27214462  0.08223930  0.19146512  1
  O  O409  1  0.27285541  0.08335265  0.44000283  1
  O  O410  1  0.27205618  0.08271202  0.69358627  1
  O  O411  1  0.27283241  0.08476814  0.94091481  1
  O  O412  1  0.27207533  0.41547701  0.19208277  1
  O  O413  1  0.27202398  0.41507759  0.44184449  1
  O  O414  1  0.27219481  0.41809296  0.69230802  1
  O  O415  1  0.27188904  0.41904764  0.94217448  1
  O  O416  1  0.27198687  0.74886014  0.19185729  1
  O  O417  1  0.27206870  0.74813789  0.44193558  1
  O  O418  1  0.27171928  0.74963240  0.69359072  1
  O  O419  1  0.27170386  0.75198850  0.94218609  1
  O  O420  1  0.77212852  0.08150259  0.19213529  1
  O  O421  1  0.77238979  0.08188983  0.44172254  1
  O  O422  1  0.77207211  0.08193990  0.69110334  1
  O  O423  1  0.77190803  0.08507198  0.94176641  1
  O  O424  1  0.77198625  0.41906024  0.19196344  1
  O  O425  1  0.77274426  0.41730489  0.44033138  1
  O  O426  1  0.77292511  0.41662478  0.69017390  1
  O  O427  1  0.77136574  0.41684216  0.94322974  1
  O  O428  1  0.77171830  0.74868690  0.19246815  1
  O  O429  1  0.77282250  0.75017790  0.44086522  1
  O  O430  1  0.77136384  0.74936986  0.69320358  1
  O  O431  1  0.77172927  0.74785424  0.94224332  1
  O  O432  1  0.02145686  0.08266524  0.18119845  1
  O  O433  1  0.02252742  0.08099981  0.43240565  1
  O  O434  1  0.02223934  0.08495137  0.68328820  1
  O  O435  1  0.02215754  0.08134881  0.93307006  1
  O  O436  1  0.02192058  0.41884977  0.18311918  1
  O  O437  1  0.02160236  0.41746835  0.43237884  1
  O  O438  1  0.02178707  0.41878565  0.68362420  1
  O  O439  1  0.02188902  0.41515812  0.93294085  1
  O  O440  1  0.02143210  0.75149547  0.18287421  1
  O  O441  1  0.02203383  0.74861956  0.43331925  1
  O  O442  1  0.02232575  0.75044959  0.68456109  1
  O  O443  1  0.02149403  0.75166469  0.93320229  1
  O  O444  1  0.52246048  0.08106880  0.18299538  1
  O  O445  1  0.52235801  0.08518428  0.43333171  1
  O  O446  1  0.52205935  0.08168916  0.68337768  1
  O  O447  1  0.52241797  0.08433299  0.93326726  1
  O  O448  1  0.52188180  0.41834153  0.18314831  1
  O  O449  1  0.52235864  0.41576787  0.43275431  1
  O  O450  1  0.52270920  0.41849365  0.68251229  1
  O  O451  1  0.52191356  0.41813884  0.93322058  1
  O  O452  1  0.52173572  0.74834045  0.18264149  1
  O  O453  1  0.52232732  0.74818053  0.43260966  1
  O  O454  1  0.52166392  0.75150397  0.68302347  1
  O  O455  1  0.52170336  0.75114666  0.93278647  1
  O  O456  1  0.47823729  0.24848533  0.06718537  1
  O  O457  1  0.47885375  0.24980359  0.31831742  1
  O  O458  1  0.47766731  0.24993439  0.56543468  1
  O  O459  1  0.47903730  0.25052385  0.81825626  1
  O  O460  1  0.47739504  0.58186904  0.06660956  1
  O  O461  1  0.47682994  0.58290426  0.31562946  1
  O  O462  1  0.47827371  0.58498643  0.56671250  1
  O  O463  1  0.47779106  0.58213362  0.81640477  1
  O  O464  1  0.47796488  0.91466411  0.06677529  1
  O  O465  1  0.47794930  0.91759875  0.31680915  1
  O  O466  1  0.47863411  0.91652822  0.56816879  1
  O  O467  1  0.47707385  0.91737238  0.81560352  1
  O  O468  1  0.97827716  0.25128570  0.06685189  1
  O  O469  1  0.97868554  0.24978023  0.31832935  1
  O  O470  1  0.97897724  0.24982018  0.56844639  1
  O  O471  1  0.97811746  0.24856022  0.81675943  1
  O  O472  1  0.97818175  0.58357248  0.06846131  1
  O  O473  1  0.97780654  0.58186905  0.31692501  1
  O  O474  1  0.97764333  0.58625107  0.56757904  1
  O  O475  1  0.97679584  0.58384924  0.81609587  1
  O  O476  1  0.97691940  0.91650897  0.06540387  1
  O  O477  1  0.97781290  0.91440733  0.31722026  1
  O  O478  1  0.97854006  0.91824092  0.56707390  1
  O  O479  1  0.97794048  0.91522670  0.81657075  1
  O  O480  1  0.07290397  0.31527533  0.07372908  1
  O  O481  1  0.07442870  0.31279668  0.32514694  1
  O  O482  1  0.07389735  0.31406524  0.57628137  1
  O  O483  1  0.07370077  0.31213026  0.82489948  1
  O  O484  1  0.07325303  0.64744613  0.07561064  1
  O  O485  1  0.07309458  0.64588534  0.32428275  1
  O  O486  1  0.07282914  0.64925827  0.57464699  1
  O  O487  1  0.07199896  0.64744554  0.82426564  1
  O  O488  1  0.07191152  0.98002254  0.07335906  1
  O  O489  1  0.07337626  0.97800069  0.32362998  1
  O  O490  1  0.07350205  0.98157547  0.57410865  1
  O  O491  1  0.07333376  0.97870352  0.82534747  1
  O  O492  1  0.57359853  0.31231767  0.07494903  1
  O  O493  1  0.57412058  0.31343586  0.32539735  1
  O  O494  1  0.57238418  0.31412665  0.57317666  1
  O  O495  1  0.57439772  0.31384523  0.82568794  1
  O  O496  1  0.57264180  0.64548358  0.07472842  1
  O  O497  1  0.57186462  0.64667950  0.32254000  1
  O  O498  1  0.57308856  0.64862562  0.57362148  1
  O  O499  1  0.57288801  0.64604606  0.82541044  1
  O  O500  1  0.57360699  0.97794308  0.07418087  1
  O  O501  1  0.57284288  0.98114039  0.32372138  1
  O  O502  1  0.57415625  0.97982680  0.57562280  1
  O  O503  1  0.57223160  0.98044458  0.82408315  1
  O  O504  1  0.42737547  0.01810053  0.17550918  1
  O  O505  1  0.42728356  0.02058242  0.42571062  1
  O  O506  1  0.42666263  0.01926554  0.67575108  1
  O  O507  1  0.42679566  0.02092748  0.92559984  1
  O  O508  1  0.42716891  0.35364753  0.17495162  1
  O  O509  1  0.42753426  0.35221425  0.42575790  1
  O  O510  1  0.42738068  0.35436294  0.67515763  1
  O  O511  1  0.42659431  0.35462071  0.92491866  1
  O  O512  1  0.42680268  0.68489364  0.17528572  1
  O  O513  1  0.42722756  0.68488184  0.42584899  1
  O  O514  1  0.42627786  0.68764276  0.67578306  1
  O  O515  1  0.42621125  0.68794475  0.92412418  1
  O  O516  1  0.92568994  0.01962900  0.17450658  1
  O  O517  1  0.92746760  0.01765889  0.42615091  1
  O  O518  1  0.92687666  0.02100467  0.67536896  1
  O  O519  1  0.92702326  0.01833546  0.92507972  1
  O  O520  1  0.92665483  0.35451578  0.17582050  1
  O  O521  1  0.92668544  0.35336960  0.42491521  1
  O  O522  1  0.92646394  0.35495002  0.67564887  1
  O  O523  1  0.92709414  0.35162820  0.92552628  1
  O  O524  1  0.92584205  0.68827517  0.17530239  1
  O  O525  1  0.92724526  0.68498081  0.42617720  1
  O  O526  1  0.92685731  0.68734902  0.67697532  1
  O  O527  1  0.92663768  0.68727163  0.92541944  1
  O  O528  1  0.17698226  0.01888537  0.19878929  1
  O  O529  1  0.17840267  0.01865857  0.44778811  1
  O  O530  1  0.17636659  0.01986451  0.70090042  1
  O  O531  1  0.17808621  0.02064528  0.94823843  1
  O  O532  1  0.17727797  0.35152344  0.19886795  1
  O  O533  1  0.17714295  0.35151151  0.44969914  1
  O  O534  1  0.17732607  0.35370781  0.70054287  1
  O  O535  1  0.17657144  0.35519359  0.94954101  1
  O  O536  1  0.17679575  0.68541292  0.19876603  1
  O  O537  1  0.17732591  0.68413230  0.44936584  1
  O  O538  1  0.17617640  0.68675006  0.70167306  1
  O  O539  1  0.17627914  0.68821069  0.94999224  1
  O  O540  1  0.67694522  0.01839214  0.19912923  1
  O  O541  1  0.67697592  0.01877297  0.44884034  1
  O  O542  1  0.67722666  0.01842699  0.69911878  1
  O  O543  1  0.67653965  0.02092751  0.94922401  1
  O  O544  1  0.67706273  0.35452892  0.20026477  1
  O  O545  1  0.67817482  0.35305851  0.44800410  1
  O  O546  1  0.67799295  0.35280496  0.69755201  1
  O  O547  1  0.67593842  0.35366496  0.95061267  1
  O  O548  1  0.67682500  0.68508396  0.20002718  1
  O  O549  1  0.67805722  0.68605721  0.44824252  1
  O  O550  1  0.67561956  0.68634638  0.69969159  1
  O  O551  1  0.67646907  0.68469754  0.94962098  1
  O  O552  1  0.32293805  0.31563033  0.05074320  1
  O  O553  1  0.32229953  0.31360397  0.30184925  1
  O  O554  1  0.32423373  0.31262388  0.54930865  1
  O  O555  1  0.32400970  0.31310179  0.80037545  1
  O  O556  1  0.32259774  0.64919499  0.05015305  1
  O  O557  1  0.32275519  0.64778632  0.30137465  1
  O  O558  1  0.32316785  0.64506262  0.55085345  1
  O  O559  1  0.32315375  0.64563099  0.79973188  1
  O  O560  1  0.32253297  0.98240566  0.05017296  1
  O  O561  1  0.32319252  0.98106590  0.30072733  1
  O  O562  1  0.32396110  0.97983780  0.54976939  1
  O  O563  1  0.32179574  0.98051360  0.80221098  1
  O  O564  1  0.82407176  0.31348449  0.04931976  1
  O  O565  1  0.82329461  0.31516686  0.30075708  1
  O  O566  1  0.82320468  0.31502173  0.55071007  1
  O  O567  1  0.82314595  0.31235130  0.79992463  1
  O  O568  1  0.82211574  0.64728522  0.05253301  1
  O  O569  1  0.82118369  0.64727631  0.30184924  1
  O  O570  1  0.82266720  0.64578075  0.54964030  1
  O  O571  1  0.82285767  0.64762629  0.80111347  1
  O  O572  1  0.82223911  0.98119240  0.05109978  1
  O  O573  1  0.82252767  0.97986849  0.30153955  1
  O  O574  1  0.82338657  0.98087031  0.55027306  1
  O  O575  1  0.82418222  0.97982324  0.79993783  1
  O  O576  1  0.42718316  0.14532284  0.17566644  1
  O  O577  1  0.42711504  0.14772300  0.42550145  1
  O  O578  1  0.42704546  0.14648490  0.67573813  1
  O  O579  1  0.42775951  0.14810258  0.92597152  1
  O  O580  1  0.42619539  0.48081444  0.17615193  1
  O  O581  1  0.42677954  0.47933622  0.42524642  1
  O  O582  1  0.42762177  0.48158166  0.67500160  1
  O  O583  1  0.42679680  0.48170232  0.92600822  1
  O  O584  1  0.42621687  0.81196935  0.17528687  1
  O  O585  1  0.42714088  0.81212055  0.42411731  1
  O  O586  1  0.42652487  0.81473624  0.67557171  1
  O  O587  1  0.42696215  0.81517479  0.92617146  1
  O  O588  1  0.92631698  0.14657744  0.17398946  1
  O  O589  1  0.92711109  0.14498235  0.42519554  1
  O  O590  1  0.92721320  0.14816510  0.67551589  1
  O  O591  1  0.92687551  0.14549174  0.92539274  1
  O  O592  1  0.92673706  0.48172466  0.17567804  1
  O  O593  1  0.92576483  0.48034176  0.42532176  1
  O  O594  1  0.92675310  0.48226833  0.67655207  1
  O  O595  1  0.92627668  0.47890822  0.92544085  1
  O  O596  1  0.92648589  0.81536350  0.17675301  1
  O  O597  1  0.92647126  0.81206293  0.42601961  1
  O  O598  1  0.92781690  0.81478820  0.67611421  1
  O  O599  1  0.92603269  0.81424121  0.92537653  1
  O  O600  1  0.07400912  0.18794814  0.07472153  1
  O  O601  1  0.07376691  0.18570036  0.32469483  1
  O  O602  1  0.07495836  0.18701785  0.57516464  1
  O  O603  1  0.07284144  0.18489310  0.82482555  1
  O  O604  1  0.07412981  0.52061599  0.07477368  1
  O  O605  1  0.07300444  0.51878123  0.32454564  1
  O  O606  1  0.07283815  0.52224789  0.57580063  1
  O  O607  1  0.07156984  0.51985111  0.82360232  1
  O  O608  1  0.07201194  0.85257946  0.07285986  1
  O  O609  1  0.07280328  0.85091160  0.32408853  1
  O  O610  1  0.07396286  0.85437155  0.57451665  1
  O  O611  1  0.07277976  0.85176477  0.82433898  1
  O  O612  1  0.57320222  0.18481925  0.07427134  1
  O  O613  1  0.57452722  0.18677360  0.32584327  1
  O  O614  1  0.57269244  0.18638460  0.57360218  1
  O  O615  1  0.57453533  0.18703011  0.82488789  1
  O  O616  1  0.57251178  0.51853461  0.07448298  1
  O  O617  1  0.57171752  0.51923151  0.32372990  1
  O  O618  1  0.57390107  0.52153083  0.57378425  1
  O  O619  1  0.57295076  0.51886582  0.82332910  1
  O  O620  1  0.57272959  0.85084637  0.07414438  1
  O  O621  1  0.57324532  0.85374831  0.32465386  1
  O  O622  1  0.57402805  0.85313247  0.57517817  1
  O  O623  1  0.57185941  0.85288715  0.82321693  1
  O  O624  1  0.32360483  0.18850855  0.05074462  1
  O  O625  1  0.32291631  0.18608079  0.30048056  1
  O  O626  1  0.32387970  0.18588114  0.54914031  1
  O  O627  1  0.32401183  0.18580593  0.80151596  1
  O  O628  1  0.32338128  0.52197788  0.05076317  1
  O  O629  1  0.32315981  0.52064188  0.29925003  1
  O  O630  1  0.32331365  0.51786135  0.55056821  1
  O  O631  1  0.32285935  0.51852404  0.80164855  1
  O  O632  1  0.32291603  0.85537654  0.05015553  1
  O  O633  1  0.32347863  0.85390313  0.29918975  1
  O  O634  1  0.32406610  0.85289357  0.54898603  1
  O  O635  1  0.32224491  0.85300467  0.80233456  1
  O  O636  1  0.82417253  0.18661579  0.05007024  1
  O  O637  1  0.82387967  0.18777491  0.30036635  1
  O  O638  1  0.82369612  0.18794765  0.54916771  1
  O  O639  1  0.82277419  0.18507287  0.80014046  1
  O  O640  1  0.82210489  0.51994230  0.05189799  1
  O  O641  1  0.82230406  0.52014516  0.30129961  1
  O  O642  1  0.82304635  0.51878166  0.55072246  1
  O  O643  1  0.82272031  0.52050440  0.80087808  1
  O  O644  1  0.82263776  0.85387788  0.05058627  1
  O  O645  1  0.82133777  0.85252160  0.30146919  1
  O  O646  1  0.82326964  0.85375626  0.54967329  1
  O  O647  1  0.82362335  0.85296187  0.79976928  1
  O  O648  1  0.17677447  0.14578197  0.19973855  1
  O  O649  1  0.17741771  0.14620845  0.44794524  1
  O  O650  1  0.17687266  0.14662332  0.70030102  1
  O  O651  1  0.17773551  0.14816123  0.94903364  1
  O  O652  1  0.17660766  0.47873534  0.20094284  1
  O  O653  1  0.17640303  0.47861616  0.44942978  1
  O  O654  1  0.17665054  0.48090542  0.69897083  1
  O  O655  1  0.17676991  0.48232551  0.94964916  1
  O  O656  1  0.17677767  0.81253708  0.20053839  1
  O  O657  1  0.17643689  0.81142266  0.44951493  1
  O  O658  1  0.17649683  0.81369136  0.69997014  1
  O  O659  1  0.17670685  0.81536891  0.94993220  1
  O  O660  1  0.67696802  0.14562352  0.20059599  1
  O  O661  1  0.67735254  0.14594089  0.45000823  1
  O  O662  1  0.67646211  0.14559242  0.69849647  1
  O  O663  1  0.67688087  0.14806341  0.94914696  1
  O  O664  1  0.67658919  0.48158036  0.19984291  1
  O  O665  1  0.67727587  0.48027228  0.44866480  1
  O  O666  1  0.67799219  0.48038845  0.69782157  1
  O  O667  1  0.67596274  0.48045980  0.94969597  1
  O  O668  1  0.67618962  0.81200696  0.20034051  1
  O  O669  1  0.67764023  0.81359957  0.44824488  1
  O  O670  1  0.67622441  0.81315820  0.70036577  1
  O  O671  1  0.67667011  0.81192746  0.95050703  1
