# generated using pymatgen
data_Na2MnFe(PO4)2
_symmetry_space_group_name_H-M   'P 1'
_cell_length_a   22.34123430
_cell_length_b   20.09486441
_cell_length_c   19.44956044
_cell_angle_alpha   89.98614200
_cell_angle_beta   89.97072691
_cell_angle_gamma   89.92887382
_symmetry_Int_Tables_number   1
_chemical_formula_structural   Na2MnFe(PO4)2
_chemical_formula_sum   'Na96 Mn48 Fe48 P96 O384'
_cell_volume   8731.75678369
_cell_formula_units_Z   48
loop_
 _symmetry_equiv_pos_site_id
 _symmetry_equiv_pos_as_xyz
  1  'x, y, z'
loop_
 _atom_site_type_symbol
 _atom_site_label
 _atom_site_symmetry_multiplicity
 _atom_site_fract_x
 _atom_site_fract_y
 _atom_site_fract_z
 _atom_site_occupancy
  Na  Na0  1  0.14077053  0.25082098  0.24449700  1
  Na  Na1  1  0.14061317  0.25033443  0.49325880  1
  Na  Na2  1  0.14072167  0.25029373  0.74535867  1
  Na  Na3  1  0.14156957  0.25073747  0.99373515  1
  Na  Na4  1  0.14033076  0.58307282  0.24321248  1
  Na  Na5  1  0.14025257  0.58341308  0.49271861  1
  Na  Na6  1  0.14032378  0.58333965  0.74541182  1
  Na  Na7  1  0.14087070  0.58279498  0.99269532  1
  Na  Na8  1  0.14004396  0.91761367  0.24364846  1
  Na  Na9  1  0.14053221  0.91728221  0.49294656  1
  Na  Na10  1  0.14038670  0.91706523  0.74520569  1
  Na  Na11  1  0.14025083  0.91654417  0.99209836  1
  Na  Na12  1  0.64026052  0.25034466  0.24242982  1
  Na  Na13  1  0.64035439  0.24919069  0.49387138  1
  Na  Na14  1  0.64068901  0.24967631  0.74360836  1
  Na  Na15  1  0.64041989  0.25077286  0.99398471  1
  Na  Na16  1  0.63976529  0.58377489  0.24283575  1
  Na  Na17  1  0.63957451  0.58282929  0.49260076  1
  Na  Na18  1  0.64056878  0.58356048  0.74369800  1
  Na  Na19  1  0.64020798  0.58262323  0.99408953  1
  Na  Na20  1  0.64033297  0.91654555  0.24331158  1
  Na  Na21  1  0.64045788  0.91552415  0.49382982  1
  Na  Na22  1  0.64051686  0.91742560  0.74394211  1
  Na  Na23  1  0.64017165  0.91608870  0.99423406  1
  Na  Na24  1  0.35938385  0.08457247  0.00578949  1
  Na  Na25  1  0.35949503  0.08496369  0.25691383  1
  Na  Na26  1  0.35962926  0.08355741  0.50440677  1
  Na  Na27  1  0.35912378  0.08349167  0.75732697  1
  Na  Na28  1  0.36012366  0.41634063  0.00691352  1
  Na  Na29  1  0.35973411  0.41688668  0.25739792  1
  Na  Na30  1  0.36028372  0.41633667  0.50548274  1
  Na  Na31  1  0.35985569  0.41607533  0.75691171  1
  Na  Na32  1  0.36026906  0.74925160  0.00703546  1
  Na  Na33  1  0.35986980  0.74923718  0.25716473  1
  Na  Na34  1  0.35966300  0.74867439  0.50522742  1
  Na  Na35  1  0.35929763  0.74926955  0.75784599  1
  Na  Na36  1  0.85923756  0.08306436  0.00661994  1
  Na  Na37  1  0.85983015  0.08230575  0.25601876  1
  Na  Na38  1  0.85898490  0.08214636  0.50717621  1
  Na  Na39  1  0.85954666  0.08363794  0.75617254  1
  Na  Na40  1  0.85952090  0.41663372  0.00575701  1
  Na  Na41  1  0.85950310  0.41780679  0.25499594  1
  Na  Na42  1  0.85923249  0.41621239  0.50655894  1
  Na  Na43  1  0.85944061  0.41683671  0.75679001  1
  Na  Na44  1  0.86002958  0.74945684  0.00703656  1
  Na  Na45  1  0.85974893  0.75059189  0.25558533  1
  Na  Na46  1  0.85924596  0.75017141  0.50551924  1
  Na  Na47  1  0.85914977  0.75082381  0.75563929  1
  Na  Na48  1  0.10987483  0.08191655  0.11901752  1
  Na  Na49  1  0.10989906  0.08306227  0.36890451  1
  Na  Na50  1  0.11011434  0.08323372  0.61942418  1
  Na  Na51  1  0.10990028  0.08283399  0.86887155  1
  Na  Na52  1  0.11073758  0.41741911  0.11800382  1
  Na  Na53  1  0.10993970  0.41769666  0.36780338  1
  Na  Na54  1  0.10953222  0.41852406  0.61968886  1
  Na  Na55  1  0.11050036  0.41753059  0.86945002  1
  Na  Na56  1  0.10951077  0.74959754  0.11794187  1
  Na  Na57  1  0.10941012  0.75025997  0.36880146  1
  Na  Na58  1  0.10978124  0.75089933  0.61937815  1
  Na  Na59  1  0.11009182  0.75017845  0.86894340  1
  Na  Na60  1  0.60954602  0.08352491  0.11873845  1
  Na  Na61  1  0.60983149  0.08268349  0.36789603  1
  Na  Na62  1  0.60993356  0.08371342  0.61788117  1
  Na  Na63  1  0.60975127  0.08414793  0.86843136  1
  Na  Na64  1  0.61013130  0.41753488  0.11875863  1
  Na  Na65  1  0.60912988  0.41676663  0.36807730  1
  Na  Na66  1  0.60921991  0.41651683  0.61865803  1
  Na  Na67  1  0.61028132  0.41584281  0.86926698  1
  Na  Na68  1  0.60936858  0.75018849  0.11902554  1
  Na  Na69  1  0.60927508  0.74834955  0.36803709  1
  Na  Na70  1  0.60935808  0.74901023  0.61826444  1
  Na  Na71  1  0.61000498  0.74945237  0.86959873  1
  Na  Na72  1  0.39038639  0.25207704  0.13228125  1
  Na  Na73  1  0.39034897  0.25084292  0.38063271  1
  Na  Na74  1  0.38997715  0.25063102  0.63045025  1
  Na  Na75  1  0.39012913  0.25087440  0.88180203  1
  Na  Na76  1  0.39056365  0.58336880  0.13250163  1
  Na  Na77  1  0.39013523  0.58196672  0.38141356  1
  Na  Na78  1  0.39015550  0.58199847  0.63015078  1
  Na  Na79  1  0.39020404  0.58287957  0.88312178  1
  Na  Na80  1  0.39039862  0.91621241  0.13115911  1
  Na  Na81  1  0.39053315  0.91549765  0.38066101  1
  Na  Na82  1  0.39001109  0.91623529  0.63110555  1
  Na  Na83  1  0.39021948  0.91575957  0.88252545  1
  Na  Na84  1  0.89064825  0.24955861  0.13062857  1
  Na  Na85  1  0.89026787  0.24926030  0.38148689  1
  Na  Na86  1  0.88973168  0.25007138  0.63291602  1
  Na  Na87  1  0.88989043  0.24994010  0.88176761  1
  Na  Na88  1  0.89042157  0.58308665  0.13018078  1
  Na  Na89  1  0.88993985  0.58448454  0.38031399  1
  Na  Na90  1  0.89021135  0.58462797  0.63071346  1
  Na  Na91  1  0.89037854  0.58422357  0.88174262  1
  Na  Na92  1  0.88995613  0.91550653  0.13119135  1
  Na  Na93  1  0.88972964  0.91695741  0.38123219  1
  Na  Na94  1  0.88987218  0.91731118  0.63077080  1
  Na  Na95  1  0.89042258  0.91626179  0.88184523  1
  Mn  Mn96  1  0.25019087  0.83303513  0.62506437  1
  Mn  Mn97  1  0.49965209  0.66568148  0.75016205  1
  Mn  Mn98  1  0.50020802  0.50002588  0.00075312  1
  Mn  Mn99  1  0.74974585  0.66714674  0.62441120  1
  Mn  Mn100  1  0.24971776  0.33346906  0.62497624  1
  Mn  Mn101  1  0.74994262  0.66663420  0.12487336  1
  Mn  Mn102  1  0.49992841  0.83146897  0.50010866  1
  Mn  Mn103  1  -0.00001923  0.83394899  0.49957493  1
  Mn  Mn104  1  0.50025551  0.49887458  0.75059621  1
  Mn  Mn105  1  -0.00045345  0.66690196  0.75003800  1
  Mn  Mn106  1  0.25007934  0.49983711  0.62538917  1
  Mn  Mn107  1  -0.00020885  0.33419414  0.50073893  1
  Mn  Mn108  1  0.00021174  0.16580243  0.75097874  1
  Mn  Mn109  1  0.49942620  -0.00005802  0.00017854  1
  Mn  Mn110  1  0.00004977  0.33331968  0.24983236  1
  Mn  Mn111  1  0.24989774  0.66570443  0.12515920  1
  Mn  Mn112  1  0.00070636  0.16531324  0.00080858  1
  Mn  Mn113  1  0.24984909  0.66606824  0.62567323  1
  Mn  Mn114  1  0.25016120  0.00077734  0.12432781  1
  Mn  Mn115  1  -0.00018798  0.50133080  0.24921794  1
  Mn  Mn116  1  0.49998113  0.16827031  -0.00055228  1
  Mn  Mn117  1  0.00015133  0.16577495  0.50111270  1
  Mn  Mn118  1  -0.00045035  0.50186399  0.49907596  1
  Mn  Mn119  1  -0.00045583  0.83450229  0.74947068  1
  Mn  Mn120  1  0.00007886  0.83286343  0.24992221  1
  Mn  Mn121  1  0.74979760  0.49963564  0.87452336  1
  Mn  Mn122  1  0.75031960  0.00089472  0.87446892  1
  Mn  Mn123  1  0.24975706  0.83339899  0.37471945  1
  Mn  Mn124  1  0.75053773  0.83303625  0.87468416  1
  Mn  Mn125  1  0.49991102  -0.00054369  0.49899007  1
  Mn  Mn126  1  0.00025523  0.33459331  0.75089265  1
  Mn  Mn127  1  0.49975133  0.83248141  0.75003574  1
  Mn  Mn128  1  0.25014538  0.00004703  0.62522177  1
  Mn  Mn129  1  0.74987221  0.83356272  0.37495704  1
  Mn  Mn130  1  0.25018152  0.83340715  0.12499803  1
  Mn  Mn131  1  0.75012356  0.16661410  0.12498772  1
  Mn  Mn132  1  0.49933417  0.16802664  0.74896470  1
  Mn  Mn133  1  0.75019958  0.16551784  0.37442665  1
  Mn  Mn134  1  0.49945038  0.16753311  0.49903685  1
  Mn  Mn135  1  0.75026347  0.49936882  0.62482835  1
  Mn  Mn136  1  0.00034398  0.16517412  0.25089897  1
  Mn  Mn137  1  0.25023461  0.16676221  0.62510884  1
  Mn  Mn138  1  0.24953815  0.16802077  0.12541387  1
  Mn  Mn139  1  0.49975218  -0.00048666  0.24915419  1
  Mn  Mn140  1  0.49990865  -0.00001243  0.75017098  1
  Mn  Mn141  1  0.75000591  0.33289427  0.37484247  1
  Mn  Mn142  1  0.00070132  0.33380689  0.00026346  1
  Mn  Mn143  1  0.74909955  0.50025581  0.37493694  1
  Fe  Fe144  1  0.25059404  0.33429510  0.12518674  1
  Fe  Fe145  1  0.74966330  0.00001500  0.62507940  1
  Fe  Fe146  1  0.75010144  0.16655463  0.62531196  1
  Fe  Fe147  1  0.50025426  0.83256689  0.00091745  1
  Fe  Fe148  1  0.49962100  0.66631132  0.25029354  1
  Fe  Fe149  1  0.24964537  0.49971286  0.37475060  1
  Fe  Fe150  1  -0.00001743  0.50118846  0.75002923  1
  Fe  Fe151  1  -0.00026715  -0.00119690  0.24954885  1
  Fe  Fe152  1  0.00000185  0.00002635  0.50014756  1
  Fe  Fe153  1  0.50015430  0.50007097  0.25051605  1
  Fe  Fe154  1  0.74950018  -0.00050651  0.37534324  1
  Fe  Fe155  1  0.00008623  0.83317748  0.00007249  1
  Fe  Fe156  1  0.75076260  0.33338603  0.12410508  1
  Fe  Fe157  1  0.74982946  0.16700914  0.87500633  1
  Fe  Fe158  1  0.24940059  0.66619559  0.37494859  1
  Fe  Fe159  1  0.24991931  0.16738226  0.37471484  1
  Fe  Fe160  1  0.50046275  0.66674580  0.00148735  1
  Fe  Fe161  1  0.75007054  0.66676826  0.87517976  1
  Fe  Fe162  1  0.75019379  0.50001889  0.12432483  1
  Fe  Fe163  1  0.25021329  0.00004091  0.87508025  1
  Fe  Fe164  1  0.74963386  0.33247566  0.62551061  1
  Fe  Fe165  1  0.50049638  0.33401909  0.00097634  1
  Fe  Fe166  1  0.25039627  0.33378631  0.87584374  1
  Fe  Fe167  1  0.50002836  0.83227261  0.25004872  1
  Fe  Fe168  1  0.74960491  0.66694992  0.37436623  1
  Fe  Fe169  1  0.50045015  0.33343630  0.49914021  1
  Fe  Fe170  1  0.25054794  0.66603354  0.87570512  1
  Fe  Fe171  1  0.50028351  0.33409039  0.25041387  1
  Fe  Fe172  1  0.00054865  0.66667307  -0.00069436  1
  Fe  Fe173  1  0.74973146  0.83350121  0.12526280  1
  Fe  Fe174  1  -0.00022722  -0.00086350  0.00022993  1
  Fe  Fe175  1  0.74989985  0.33293753  0.87514206  1
  Fe  Fe176  1  0.49996026  0.16753425  0.24932205  1
  Fe  Fe177  1  -0.00024456  0.50061068  -0.00017010  1
  Fe  Fe178  1  0.25056554  0.49945581  0.87577822  1
  Fe  Fe179  1  0.49989522  0.33351986  0.74954837  1
  Fe  Fe180  1  0.49934698  0.66524061  0.49904040  1
  Fe  Fe181  1  0.00009622  0.66691069  0.24879465  1
  Fe  Fe182  1  0.24999973  0.33411742  0.37461169  1
  Fe  Fe183  1  0.25017553  0.16735491  0.87557089  1
  Fe  Fe184  1  0.00006683  0.66754171  0.49993219  1
  Fe  Fe185  1  0.25087770  0.00045106  0.37464560  1
  Fe  Fe186  1  0.00007310  -0.00026801  0.75048442  1
  Fe  Fe187  1  0.25042910  0.83304474  0.87508685  1
  Fe  Fe188  1  0.49997900  0.49927453  0.49955416  1
  Fe  Fe189  1  0.74909437  0.83333444  0.62479137  1
  Fe  Fe190  1  0.74946710  0.00013860  0.12490391  1
  Fe  Fe191  1  0.25077628  0.49954621  0.12501227  1
  P  P192  1  0.04358564  0.24941806  0.10343268  1
  P  P193  1  0.04280892  0.24982137  0.35363694  1
  P  P194  1  0.04285514  0.25032289  0.60386370  1
  P  P195  1  0.04281448  0.24998002  0.85379575  1
  P  P196  1  0.04193997  0.58392689  0.10108721  1
  P  P197  1  0.04206261  0.58579739  0.35198205  1
  P  P198  1  0.04241967  0.58523630  0.60247035  1
  P  P199  1  0.04186982  0.58271638  0.85338735  1
  P  P200  1  0.04171358  0.91615242  0.10176005  1
  P  P201  1  0.04199694  0.91785099  0.35258740  1
  P  P202  1  0.04262388  0.91835330  0.60259508  1
  P  P203  1  0.04183019  0.91759318  0.85351302  1
  P  P204  1  0.54208928  0.25183222  0.10353486  1
  P  P205  1  0.54181507  0.25060225  0.35125633  1
  P  P206  1  0.54183889  0.25178042  0.60204960  1
  P  P207  1  0.54226574  0.25187533  0.85233634  1
  P  P208  1  0.54209951  0.58456891  0.10384117  1
  P  P209  1  0.54108834  0.58297962  0.35215661  1
  P  P210  1  0.54129963  0.58262978  0.60096809  1
  P  P211  1  0.54292258  0.58288338  0.85391065  1
  P  P212  1  0.54173393  0.91508261  0.10294218  1
  P  P213  1  0.54223131  0.91460659  0.35191452  1
  P  P214  1  0.54266821  0.91604481  0.60279128  1
  P  P215  1  0.54257853  0.91578319  0.85387121  1
  P  P216  1  0.45767332  0.08518996  0.14732726  1
  P  P217  1  0.45771806  0.08381887  0.39530847  1
  P  P218  1  0.45674595  0.08354992  0.64642782  1
  P  P219  1  0.45708736  0.08400592  0.89677892  1
  P  P220  1  0.45894482  0.41712019  0.14889429  1
  P  P221  1  0.45903044  0.41637727  0.39740817  1
  P  P222  1  0.45758984  0.41553844  0.64675295  1
  P  P223  1  0.45823211  0.41516994  0.89800496  1
  P  P224  1  0.45830142  0.74957813  0.14820955  1
  P  P225  1  0.45778540  0.74750740  0.39640299  1
  P  P226  1  0.45647401  0.74859933  0.64656910  1
  P  P227  1  0.45882644  0.74920009  0.89940001  1
  P  P228  1  0.95791667  0.08089248  0.14734097  1
  P  P229  1  0.95740561  0.08166973  0.39770548  1
  P  P230  1  0.95798705  0.08159369  0.64781205  1
  P  P231  1  0.95767629  0.08134342  0.89787010  1
  P  P232  1  0.95781540  0.41741179  0.14605185  1
  P  P233  1  0.95687444  0.41743147  0.39660236  1
  P  P234  1  0.95748273  0.41907767  0.64793730  1
  P  P235  1  0.95805996  0.41867006  0.89740389  1
  P  P236  1  0.95811995  0.74868701  0.14621177  1
  P  P237  1  0.95761769  0.74899463  0.39692563  1
  P  P238  1  0.95699241  0.75058865  0.64637401  1
  P  P239  1  0.95850568  0.75021487  0.89842244  1
  P  P240  1  0.20780067  0.08396054  0.22889493  1
  P  P241  1  0.20874618  0.08373014  0.47610220  1
  P  P242  1  0.20784027  0.08336738  0.72945327  1
  P  P243  1  0.20863492  0.08372127  0.97643702  1
  P  P244  1  0.20889880  0.41712915  0.22723027  1
  P  P245  1  0.20826124  0.41684407  0.47631268  1
  P  P246  1  0.20766731  0.41671930  0.72946873  1
  P  P247  1  0.20912455  0.41683077  0.97779234  1
  P  P248  1  0.20738180  0.74946480  0.22837995  1
  P  P249  1  0.20760159  0.74881362  0.47723614  1
  P  P250  1  0.20758975  0.74990769  0.72957285  1
  P  P251  1  0.20912107  0.74975397  0.97667010  1
  P  P252  1  0.70757971  0.08181662  0.22759085  1
  P  P253  1  0.70766203  0.08160427  0.47808859  1
  P  P254  1  0.70846835  0.08380815  0.72676484  1
  P  P255  1  0.70765288  0.08454654  0.97760712  1
  P  P256  1  0.70889631  0.41682714  0.22589688  1
  P  P257  1  0.70683555  0.41567453  0.47844828  1
  P  P258  1  0.70788439  0.41488734  0.72784600  1
  P  P259  1  0.70816960  0.41532246  0.97799978  1
  P  P260  1  0.70778403  0.75126043  0.22758147  1
  P  P261  1  0.70724076  0.74898407  0.47715690  1
  P  P262  1  0.70729733  0.75113569  0.72758593  1
  P  P263  1  0.70829508  0.74908216  0.97790493  1
  P  P264  1  0.29228927  0.25192639  0.02239656  1
  P  P265  1  0.29131422  0.25109794  0.27322096  1
  P  P266  1  0.29228548  0.25025165  0.52066320  1
  P  P267  1  0.29154775  0.25056407  0.77406730  1
  P  P268  1  0.29247027  0.58153073  0.02231878  1
  P  P269  1  0.29117869  0.58258201  0.27334367  1
  P  P270  1  0.29197615  0.58282518  0.52095758  1
  P  P271  1  0.29188967  0.58256981  0.77433859  1
  P  P272  1  0.29254285  0.91667083  0.02070567  1
  P  P273  1  0.29240919  0.91792076  0.27233691  1
  P  P274  1  0.29273037  0.91691229  0.52122497  1
  P  P275  1  0.29189229  0.91641094  0.77382485  1
  P  P276  1  0.79232112  0.25092204  0.02165366  1
  P  P277  1  0.79291202  0.25002952  0.27118769  1
  P  P278  1  0.79154326  0.24950601  0.52371306  1
  P  P279  1  0.79145883  0.24985189  0.77289028  1
  P  P280  1  0.79199383  0.58214849  0.02186688  1
  P  P281  1  0.79161287  0.58457467  0.27183768  1
  P  P282  1  0.79233603  0.58341095  0.52117539  1
  P  P283  1  0.79221711  0.58472021  0.77253262  1
  P  P284  1  0.79116388  0.91659158  0.02352289  1
  P  P285  1  0.79182398  0.91804947  0.27191392  1
  P  P286  1  0.79098542  0.91645214  0.52329850  1
  P  P287  1  0.79262972  0.91713635  0.77101130  1
  O  O288  1  0.03832431  0.24929702  0.18339775  1
  O  O289  1  0.03768811  0.24990011  0.43362307  1
  O  O290  1  0.03779300  0.25025676  0.68387728  1
  O  O291  1  0.03788981  0.24973949  0.93377333  1
  O  O292  1  0.03708978  0.58459520  0.18108639  1
  O  O293  1  0.03686992  0.58589741  0.43190347  1
  O  O294  1  0.03715618  0.58422322  0.68242219  1
  O  O295  1  0.03641759  0.58282930  0.93326950  1
  O  O296  1  0.03694704  0.91607225  0.18178426  1
  O  O297  1  0.03684130  0.91796009  0.43251685  1
  O  O298  1  0.03742485  0.91838108  0.68257096  1
  O  O299  1  0.03639864  0.91703405  0.93339136  1
  O  O300  1  0.53649092  0.25125497  0.18338866  1
  O  O301  1  0.53682568  0.25076569  0.43122432  1
  O  O302  1  0.53640550  0.25187373  0.68196132  1
  O  O303  1  0.53746910  0.25182111  0.93235165  1
  O  O304  1  0.53664776  0.58442743  0.18367608  1
  O  O305  1  0.53614248  0.58254092  0.43205750  1
  O  O306  1  0.53673377  0.58228255  0.68099144  1
  O  O307  1  0.53812450  0.58334437  0.93388906  1
  O  O308  1  0.53641851  0.91481860  0.18286888  1
  O  O309  1  0.53704861  0.91478881  0.43186730  1
  O  O310  1  0.53762480  0.91617905  0.68278825  1
  O  O311  1  0.53734100  0.91553677  0.93387367  1
  O  O312  1  0.46279038  0.08513967  0.06732950  1
  O  O313  1  0.46328308  0.08443822  0.31538023  1
  O  O314  1  0.46188482  0.08354617  0.56639273  1
  O  O315  1  0.46205327  0.08394318  0.81680593  1
  O  O316  1  0.46362846  0.41726481  0.06894124  1
  O  O317  1  0.46408322  0.41672081  0.31755739  1
  O  O318  1  0.46288411  0.41589155  0.56688756  1
  O  O319  1  0.46310131  0.41495738  0.81805581  1
  O  O320  1  0.46379386  0.74963720  0.06829936  1
  O  O321  1  0.46333795  0.74786385  0.31651795  1
  O  O322  1  0.46137943  0.74808705  0.56657955  1
  O  O323  1  0.46331301  0.74917228  0.81938156  1
  O  O324  1  0.96331919  0.08082083  0.06742210  1
  O  O325  1  0.96237046  0.08175576  0.31771237  1
  O  O326  1  0.96322422  0.08171004  0.56785731  1
  O  O327  1  0.96295486  0.08138088  0.81791499  1
  O  O328  1  0.96314671  0.41795862  0.06612232  1
  O  O329  1  0.96200541  0.41733952  0.31660286  1
  O  O330  1  0.96254158  0.41874502  0.56793700  1
  O  O331  1  0.96315374  0.41906563  0.81743484  1
  O  O332  1  0.96361346  0.74903564  0.06635838  1
  O  O333  1  0.96303246  0.74898339  0.31694750  1
  O  O334  1  0.96218691  0.75031901  0.56645177  1
  O  O335  1  0.96304184  0.75061872  0.81840987  1
  O  O336  1  0.21320016  0.08420968  0.05645367  1
  O  O337  1  0.21342556  0.08374988  0.30873754  1
  O  O338  1  0.21375112  0.08350759  0.55614004  1
  O  O339  1  0.21322800  0.08331340  0.80933008  1
  O  O340  1  0.21446044  0.41703552  0.05769199  1
  O  O341  1  0.21389050  0.41729632  0.30714467  1
  O  O342  1  0.21269688  0.41658180  0.55633864  1
  O  O343  1  0.21313279  0.41667144  0.80935548  1
  O  O344  1  0.21363022  0.74957302  0.05668410  1
  O  O345  1  0.21240066  0.74904339  0.30831552  1
  O  O346  1  0.21244904  0.74893001  0.55724929  1
  O  O347  1  0.21305080  0.74999691  0.80948651  1
  O  O348  1  0.71286499  0.08393464  0.05755503  1
  O  O349  1  0.71261495  0.08162408  0.30755895  1
  O  O350  1  0.71302764  0.08194529  0.55794388  1
  O  O351  1  0.71325615  0.08484535  0.80673293  1
  O  O352  1  0.71393850  0.41568644  0.05783251  1
  O  O353  1  0.71374037  0.41698490  0.30589668  1
  O  O354  1  0.71205666  0.41525850  0.55838940  1
  O  O355  1  0.71330844  0.41495513  0.80779453  1
  O  O356  1  0.71350728  0.74970661  0.05781640  1
  O  O357  1  0.71293278  0.75062067  0.30748687  1
  O  O358  1  0.71214575  0.74977156  0.55709371  1
  O  O359  1  0.71289560  0.75026860  0.80749588  1
  O  O360  1  0.28650436  0.25179860  0.19326319  1
  O  O361  1  0.28691127  0.25038113  0.44079590  1
  O  O362  1  0.28679845  0.25020730  0.69405396  1
  O  O363  1  0.28684250  0.25178269  0.94254412  1
  O  O364  1  0.28662261  0.58226870  0.19333371  1
  O  O365  1  0.28651322  0.58271623  0.44108790  1
  O  O366  1  0.28707972  0.58304734  0.69433883  1
  O  O367  1  0.28735513  0.58169371  0.94244792  1
  O  O368  1  0.28757259  0.91765223  0.19232265  1
  O  O369  1  0.28751553  0.91741277  0.44124909  1
  O  O370  1  0.28698338  0.91625009  0.69376646  1
  O  O371  1  0.28710267  0.91652298  0.94079126  1
  O  O372  1  0.78783961  0.25042144  0.19123223  1
  O  O373  1  0.78707436  0.24896116  0.44367735  1
  O  O374  1  0.78621182  0.24996516  0.69295922  1
  O  O375  1  0.78674896  0.25049117  0.94178340  1
  O  O376  1  0.78645892  0.58382377  0.19188155  1
  O  O377  1  0.78691038  0.58383802  0.44125236  1
  O  O378  1  0.78704428  0.58441776  0.69258587  1
  O  O379  1  0.78672954  0.58280871  0.94196983  1
  O  O380  1  0.78636909  0.91783764  0.19206407  1
  O  O381  1  0.78587384  0.91683058  0.44331634  1
  O  O382  1  0.78705101  0.91698817  0.69118073  1
  O  O383  1  0.78660321  0.91663510  0.94353773  1
  O  O384  1  0.22813608  0.25255988  0.05858001  1
  O  O385  1  0.22723327  0.25032176  0.30926606  1
  O  O386  1  0.22810705  0.25001325  0.55666723  1
  O  O387  1  0.22739277  0.25129883  0.80989183  1
  O  O388  1  0.22822668  0.58095292  0.05820575  1
  O  O389  1  0.22693993  0.58235115  0.30908533  1
  O  O390  1  0.22782508  0.58283690  0.55698759  1
  O  O391  1  0.22768999  0.58214121  0.81007108  1
  O  O392  1  0.22825211  0.91670509  0.05638581  1
  O  O393  1  0.22805178  0.91804460  0.30760813  1
  O  O394  1  0.22839430  0.91664451  0.55666847  1
  O  O395  1  0.22768682  0.91629414  0.80968015  1
  O  O396  1  0.72824338  0.25120753  0.05794176  1
  O  O397  1  0.72848609  0.24945576  0.30638857  1
  O  O398  1  0.72722154  0.25015751  0.55917322  1
  O  O399  1  0.72743145  0.24961917  0.80946224  1
  O  O400  1  0.72781139  0.58189792  0.05781323  1
  O  O401  1  0.72731116  0.58497310  0.30759994  1
  O  O402  1  0.72803646  0.58300681  0.55665566  1
  O  O403  1  0.72790847  0.58479013  0.80812994  1
  O  O404  1  0.72693236  0.91612247  0.05925442  1
  O  O405  1  0.72770753  0.91816141  0.30822643  1
  O  O406  1  0.72689320  0.91642303  0.55954133  1
  O  O407  1  0.72848075  0.91689275  0.80694640  1
  O  O408  1  0.27193922  0.08438328  0.19286578  1
  O  O409  1  0.27289749  0.08439634  0.44011881  1
  O  O410  1  0.27203812  0.08346359  0.69352834  1
  O  O411  1  0.27285702  0.08314721  0.94085054  1
  O  O412  1  0.27310895  0.41704647  0.19102352  1
  O  O413  1  0.27261846  0.41750468  0.44090615  1
  O  O414  1  0.27190785  0.41659673  0.69365628  1
  O  O415  1  0.27317439  0.41647468  0.94133749  1
  O  O416  1  0.27179699  0.74952389  0.19320478  1
  O  O417  1  0.27188403  0.74904435  0.44177661  1
  O  O418  1  0.27180765  0.74972453  0.69370566  1
  O  O419  1  0.27338267  0.75043493  0.94114951  1
  O  O420  1  0.77187510  0.08181866  0.19197607  1
  O  O421  1  0.77186288  0.08121636  0.44192533  1
  O  O422  1  0.77262871  0.08278430  0.69083874  1
  O  O423  1  0.77193002  0.08544614  0.94180910  1
  O  O424  1  0.77306795  0.41718537  0.18998811  1
  O  O425  1  0.77120277  0.41645672  0.44313863  1
  O  O426  1  0.77207747  0.41481778  0.69188170  1
  O  O427  1  0.77211904  0.41523838  0.94139942  1
  O  O428  1  0.77201149  0.75144524  0.19176317  1
  O  O429  1  0.77159837  0.74856275  0.44160264  1
  O  O430  1  0.77148230  0.75191347  0.69155498  1
  O  O431  1  0.77256293  0.74855768  0.94207308  1
  O  O432  1  0.02213013  0.08076147  0.18319951  1
  O  O433  1  0.02184518  0.08159098  0.43306040  1
  O  O434  1  0.02224541  0.08134393  0.68354907  1
  O  O435  1  0.02203781  0.08079081  0.93339991  1
  O  O436  1  0.02208037  0.41745552  0.18147414  1
  O  O437  1  0.02133313  0.41763660  0.43154884  1
  O  O438  1  0.02186738  0.41937410  0.68336503  1
  O  O439  1  0.02234078  0.41866519  0.93301468  1
  O  O440  1  0.02222148  0.74857408  0.18246859  1
  O  O441  1  0.02183178  0.74915041  0.43286080  1
  O  O442  1  0.02127710  0.75053352  0.68178084  1
  O  O443  1  0.02280425  0.74995681  0.93392978  1
  O  O444  1  0.52196931  0.08463380  0.18270442  1
  O  O445  1  0.52185533  0.08374494  0.43109485  1
  O  O446  1  0.52122161  0.08385621  0.68139054  1
  O  O447  1  0.52149062  0.08384742  0.93183774  1
  O  O448  1  0.52317922  0.41646217  0.18455718  1
  O  O449  1  0.52302546  0.41592204  0.43374675  1
  O  O450  1  0.52184112  0.41491659  0.68281167  1
  O  O451  1  0.52253715  0.41537844  0.93362327  1
  O  O452  1  0.52232506  0.74935314  0.18464551  1
  O  O453  1  0.52184753  0.74687097  0.43269670  1
  O  O454  1  0.52103976  0.74884047  0.68139904  1
  O  O455  1  0.52310469  0.74873996  0.93497455  1
  O  O456  1  0.47798005  0.25233545  0.06730568  1
  O  O457  1  0.47757523  0.25111918  0.31544173  1
  O  O458  1  0.47765011  0.25220432  0.56612766  1
  O  O459  1  0.47783308  0.25226773  0.81697143  1
  O  O460  1  0.47803097  0.58487645  0.06757460  1
  O  O461  1  0.47701397  0.58333238  0.31599685  1
  O  O462  1  0.47706671  0.58314487  0.56530849  1
  O  O463  1  0.47841013  0.58240647  0.81899858  1
  O  O464  1  0.47757899  0.91512576  0.06711080  1
  O  O465  1  0.47794850  0.91465693  0.31633736  1
  O  O466  1  0.47824541  0.91584351  0.56773160  1
  O  O467  1  0.47820181  0.91611562  0.81860588  1
  O  O468  1  0.97916823  0.24950284  0.06839431  1
  O  O469  1  0.97841703  0.24957129  0.31850043  1
  O  O470  1  0.97835567  0.25007336  0.56899350  1
  O  O471  1  0.97842242  0.25012339  0.81877176  1
  O  O472  1  0.97766923  0.58428679  0.06541555  1
  O  O473  1  0.97777829  0.58592572  0.31625440  1
  O  O474  1  0.97806464  0.58605157  0.56683215  1
  O  O475  1  0.97775459  0.58230347  0.81715094  1
  O  O476  1  0.97742964  0.91641998  0.06610862  1
  O  O477  1  0.97773615  0.91738028  0.31685224  1
  O  O478  1  0.97825197  0.91833723  0.56703760  1
  O  O479  1  0.97769989  0.91841391  0.81729434  1
  O  O480  1  0.07459080  0.31290120  0.07537421  1
  O  O481  1  0.07365651  0.31338024  0.32544976  1
  O  O482  1  0.07362307  0.31400405  0.57582312  1
  O  O483  1  0.07382348  0.31355243  0.82601230  1
  O  O484  1  0.07329151  0.64703150  0.07231554  1
  O  O485  1  0.07313557  0.64883037  0.32302916  1
  O  O486  1  0.07326950  0.64887465  0.57443071  1
  O  O487  1  0.07268121  0.64654326  0.82549482  1
  O  O488  1  0.07288780  0.97949000  0.07343742  1
  O  O489  1  0.07257053  0.98118988  0.32354812  1
  O  O490  1  0.07355108  0.98155497  0.57369355  1
  O  O491  1  0.07313868  0.98079156  0.82506590  1
  O  O492  1  0.57302185  0.31535611  0.07516158  1
  O  O493  1  0.57319602  0.31390697  0.32304521  1
  O  O494  1  0.57316547  0.31474220  0.57324160  1
  O  O495  1  0.57331038  0.31494741  0.82341665  1
  O  O496  1  0.57323755  0.64782355  0.07513067  1
  O  O497  1  0.57241623  0.64622985  0.32377125  1
  O  O498  1  0.57239909  0.64606793  0.57284308  1
  O  O499  1  0.57380065  0.64607127  0.82486385  1
  O  O500  1  0.57271976  0.97894773  0.07550904  1
  O  O501  1  0.57329724  0.97821032  0.32412722  1
  O  O502  1  0.57350923  0.97954651  0.57450298  1
  O  O503  1  0.57364316  0.97939109  0.82581749  1
  O  O504  1  0.42618775  0.02163275  0.17461361  1
  O  O505  1  0.42680400  0.01999284  0.42283884  1
  O  O506  1  0.42595585  0.02003334  0.67470805  1
  O  O507  1  0.42600040  0.02066377  0.92503715  1
  O  O508  1  0.42735865  0.35406237  0.17723062  1
  O  O509  1  0.42776192  0.35296799  0.42556634  1
  O  O510  1  0.42639796  0.35236294  0.67550884  1
  O  O511  1  0.42755731  0.35197734  0.92726951  1
  O  O512  1  0.42705531  0.68613362  0.17644130  1
  O  O513  1  0.42660061  0.68424644  0.42495707  1
  O  O514  1  0.42553954  0.68534861  0.67551365  1
  O  O515  1  0.42775450  0.68576377  0.92767574  1
  O  O516  1  0.92697233  0.01753832  0.17592404  1
  O  O517  1  0.92661648  0.01832822  0.42648187  1
  O  O518  1  0.92690650  0.01842093  0.67641271  1
  O  O519  1  0.92630157  0.01835182  0.92663188  1
  O  O520  1  0.92690925  0.35367350  0.17376882  1
  O  O521  1  0.92596290  0.35398364  0.42500599  1
  O  O522  1  0.92676073  0.35527432  0.67586355  1
  O  O523  1  0.92728715  0.35464670  0.92481458  1
  O  O524  1  0.92712322  0.68528932  0.17473917  1
  O  O525  1  0.92673156  0.68581871  0.42575701  1
  O  O526  1  0.92561524  0.68752962  0.67504290  1
  O  O527  1  0.92763412  0.68652474  0.92625797  1
  O  O528  1  0.17684783  0.02057523  0.20017393  1
  O  O529  1  0.17863831  0.01965355  0.44795029  1
  O  O530  1  0.17682933  0.01991698  0.70097005  1
  O  O531  1  0.17746040  0.02020621  0.94870294  1
  O  O532  1  0.17801725  0.35355250  0.19888486  1
  O  O533  1  0.17821158  0.35292021  0.44765291  1
  O  O534  1  0.17643710  0.35348493  0.70090794  1
  O  O535  1  0.17779627  0.35346971  0.94965391  1
  O  O536  1  0.17627413  0.68632378  0.19958336  1
  O  O537  1  0.17734658  0.68513620  0.44845771  1
  O  O538  1  0.17637668  0.68645845  0.70142353  1
  O  O539  1  0.17925791  0.68544899  0.94858300  1
  O  O540  1  0.67663546  0.01865423  0.19858452  1
  O  O541  1  0.67661964  0.01829057  0.44943844  1
  O  O542  1  0.67704873  0.02027215  0.69932917  1
  O  O543  1  0.67710069  0.02074576  0.94946973  1
  O  O544  1  0.67855377  0.35285639  0.19800752  1
  O  O545  1  0.67620640  0.35224858  0.44967891  1
  O  O546  1  0.67692061  0.35162791  0.69931389  1
  O  O547  1  0.67724177  0.35191623  0.94946241  1
  O  O548  1  0.67646513  0.68799611  0.19941638  1
  O  O549  1  0.67671203  0.68533032  0.44866881  1
  O  O550  1  0.67627669  0.68760638  0.69943190  1
  O  O551  1  0.67765847  0.68535978  0.94968791  1
  O  O552  1  0.32351367  0.31499910  0.05134959  1
  O  O553  1  0.32162390  0.31491076  0.30194614  1
  O  O554  1  0.32315370  0.31376225  0.54919002  1
  O  O555  1  0.32295335  0.31386735  0.80195992  1
  O  O556  1  0.32303543  0.64536481  0.05057122  1
  O  O557  1  0.32120017  0.64675868  0.30149890  1
  O  O558  1  0.32311572  0.64613916  0.54940994  1
  O  O559  1  0.32214839  0.64647791  0.80292064  1
  O  O560  1  0.32366904  0.98014465  0.04886742  1
  O  O561  1  0.32308075  0.98152074  0.30063329  1
  O  O562  1  0.32388736  0.98013039  0.54977442  1
  O  O563  1  0.32246769  0.98029156  0.80160462  1
  O  O564  1  0.82337656  0.31434665  0.05005761  1
  O  O565  1  0.82382748  0.31336585  0.29973586  1
  O  O566  1  0.82269086  0.31296001  0.55169965  1
  O  O567  1  0.82232754  0.31346008  0.80125919  1
  O  O568  1  0.82326035  0.64543325  0.05007373  1
  O  O569  1  0.82211979  0.64840694  0.29993958  1
  O  O570  1  0.82350244  0.64664633  0.54958655  1
  O  O571  1  0.82276195  0.64838944  0.80086443  1
  O  O572  1  0.82130686  0.98065435  0.05159664  1
  O  O573  1  0.82268780  0.98125205  0.30097882  1
  O  O574  1  0.82205225  0.97977933  0.55173334  1
  O  O575  1  0.82350856  0.98059107  0.79960575  1
  O  O576  1  0.42729336  0.14900762  0.17578361  1
  O  O577  1  0.42625030  0.14699455  0.42371465  1
  O  O578  1  0.42554993  0.14711021  0.67438927  1
  O  O579  1  0.42617002  0.14766570  0.92472007  1
  O  O580  1  0.42889679  0.48127853  0.17745478  1
  O  O581  1  0.42854268  0.48016206  0.42628248  1
  O  O582  1  0.42687855  0.47928777  0.67536063  1
  O  O583  1  0.42723053  0.47897054  0.92579081  1
  O  O584  1  0.42742426  0.81330456  0.17657038  1
  O  O585  1  0.42680356  0.81127115  0.42434723  1
  O  O586  1  0.42557208  0.81224512  0.67484518  1
  O  O587  1  0.42851001  0.81321321  0.92763540  1
  O  O588  1  0.92690863  0.14475309  0.17495121  1
  O  O589  1  0.92647513  0.14541392  0.42588523  1
  O  O590  1  0.92716830  0.14554907  0.67562089  1
  O  O591  1  0.92714981  0.14543193  0.92566974  1
  O  O592  1  0.92635813  0.48062393  0.17447096  1
  O  O593  1  0.92574212  0.48103356  0.42441618  1
  O  O594  1  0.92659679  0.48261222  0.67618747  1
  O  O595  1  0.92692290  0.48183756  0.92636846  1
  O  O596  1  0.92690671  0.81216221  0.17461877  1
  O  O597  1  0.92656990  0.81293798  0.42437944  1
  O  O598  1  0.92611303  0.81431360  0.67443254  1
  O  O599  1  0.92793453  0.81395694  0.92696832  1
  O  O600  1  0.07463950  0.18584398  0.07540566  1
  O  O601  1  0.07392780  0.18629117  0.32568606  1
  O  O602  1  0.07406388  0.18684462  0.57578673  1
  O  O603  1  0.07378362  0.18642792  0.82567187  1
  O  O604  1  0.07226138  0.51970902  0.07328796  1
  O  O605  1  0.07283503  0.52176572  0.32427043  1
  O  O606  1  0.07335739  0.52174374  0.57384649  1
  O  O607  1  0.07311302  0.51953271  0.82461224  1
  O  O608  1  0.07212604  0.85216118  0.07339511  1
  O  O609  1  0.07332964  0.85416975  0.32496105  1
  O  O610  1  0.07353258  0.85449424  0.57477265  1
  O  O611  1  0.07258132  0.85383233  0.82515539  1
  O  O612  1  0.57330079  0.18835437  0.07515852  1
  O  O613  1  0.57211920  0.18654971  0.32294962  1
  O  O614  1  0.57253653  0.18769694  0.57447624  1
  O  O615  1  0.57280050  0.18783310  0.82432018  1
  O  O616  1  0.57317439  0.52089637  0.07580751  1
  O  O617  1  0.57168068  0.51914615  0.32335317  1
  O  O618  1  0.57158147  0.51862854  0.57251022  1
  O  O619  1  0.57393957  0.51926516  0.82570779  1
  O  O620  1  0.57273109  0.85172797  0.07422957  1
  O  O621  1  0.57290544  0.85089021  0.32372136  1
  O  O622  1  0.57374116  0.85248105  0.57478551  1
  O  O623  1  0.57365479  0.85240534  0.82537981  1
  O  O624  1  0.32310612  0.18806929  0.05041060  1
  O  O625  1  0.32264963  0.18757268  0.30101293  1
  O  O626  1  0.32369988  0.18698241  0.54917783  1
  O  O627  1  0.32165152  0.18644983  0.80254138  1
  O  O628  1  0.32390301  0.51846714  0.05125243  1
  O  O629  1  0.32257737  0.51932161  0.30176588  1
  O  O630  1  0.32324206  0.51941520  0.54945337  1
  O  O631  1  0.32325814  0.51906815  0.80203693  1
  O  O632  1  0.32375999  0.85333854  0.04938357  1
  O  O633  1  0.32353075  0.85426816  0.30012556  1
  O  O634  1  0.32372417  0.85317399  0.54915546  1
  O  O635  1  0.32293117  0.85278241  0.80192202  1
  O  O636  1  0.82364897  0.18745340  0.04988793  1
  O  O637  1  0.82404987  0.18645581  0.29934313  1
  O  O638  1  0.82173781  0.18551280  0.55240142  1
  O  O639  1  0.82252331  0.18620134  0.80114310  1
  O  O640  1  0.82263954  0.51838039  0.05010348  1
  O  O641  1  0.82286811  0.52117171  0.30001553  1
  O  O642  1  0.82353159  0.51983347  0.54917825  1
  O  O643  1  0.82336366  0.52107090  0.80019625  1
  O  O644  1  0.82229012  0.85303001  0.05165267  1
  O  O645  1  0.82308782  0.85437770  0.29987046  1
  O  O646  1  0.82156352  0.85234353  0.55100175  1
  O  O647  1  0.82419799  0.85394622  0.79957967  1
  O  O648  1  0.17626730  0.14728374  0.20073250  1
  O  O649  1  0.17733426  0.14721548  0.44836510  1
  O  O650  1  0.17657830  0.14672406  0.70090972  1
  O  O651  1  0.17846263  0.14786082  0.94817212  1
  O  O652  1  0.17799354  0.48066459  0.19847043  1
  O  O653  1  0.17684868  0.48020892  0.44825138  1
  O  O654  1  0.17655664  0.48019234  0.70094390  1
  O  O655  1  0.17838037  0.48052762  0.94922165  1
  O  O656  1  0.17647076  0.81322074  0.20038689  1
  O  O657  1  0.17609995  0.81233366  0.44967314  1
  O  O658  1  0.17639964  0.81327138  0.70089804  1
  O  O659  1  0.17755953  0.81299635  0.94863233  1
  O  O660  1  0.67657615  0.14565154  0.19994895  1
  O  O661  1  0.67668590  0.14530510  0.44973832  1
  O  O662  1  0.67817641  0.14757881  0.69761666  1
  O  O663  1  0.67644836  0.14793555  0.94931502  1
  O  O664  1  0.67780413  0.48049464  0.19790699  1
  O  O665  1  0.67538450  0.47904739  0.45030064  1
  O  O666  1  0.67692077  0.47888374  0.70039480  1
  O  O667  1  0.67667520  0.47881440  0.95003919  1
  O  O668  1  0.67723940  0.81507008  0.19928438  1
  O  O669  1  0.67611627  0.81245252  0.44890060  1
  O  O670  1  0.67629597  0.81472957  0.69947288  1
  O  O671  1  0.67714330  0.81254280  0.94973606  1
