# generated using pymatgen
data_Na2MnFe(PO4)2
_symmetry_space_group_name_H-M   'P 1'
_cell_length_a   22.34516757
_cell_length_b   20.09770558
_cell_length_c   19.44760098
_cell_angle_alpha   89.99740771
_cell_angle_beta   90.04604635
_cell_angle_gamma   90.04250303
_symmetry_Int_Tables_number   1
_chemical_formula_structural   Na2MnFe(PO4)2
_chemical_formula_sum   'Na96 Mn48 Fe48 P96 O384'
_cell_volume   8733.65174778
_cell_formula_units_Z   48
loop_
 _symmetry_equiv_pos_site_id
 _symmetry_equiv_pos_as_xyz
  1  'x, y, z'
loop_
 _atom_site_type_symbol
 _atom_site_label
 _atom_site_symmetry_multiplicity
 _atom_site_fract_x
 _atom_site_fract_y
 _atom_site_fract_z
 _atom_site_occupancy
  Na  Na0  1  0.14078416  0.24992644  0.24441331  1
  Na  Na1  1  0.14062139  0.24965132  0.49522571  1
  Na  Na2  1  0.14091989  0.24902296  0.74351949  1
  Na  Na3  1  0.14028081  0.25006901  0.99379290  1
  Na  Na4  1  0.14051489  0.58261888  0.24385857  1
  Na  Na5  1  0.14019414  0.58305215  0.49250623  1
  Na  Na6  1  0.14045396  0.58419036  0.74243595  1
  Na  Na7  1  0.14047516  0.58510030  0.99260348  1
  Na  Na8  1  0.14051214  0.91550561  0.24401800  1
  Na  Na9  1  0.14076950  0.91695354  0.49356703  1
  Na  Na10  1  0.14169784  0.91724877  0.74326620  1
  Na  Na11  1  0.14133083  0.91683985  0.99316556  1
  Na  Na12  1  0.63981268  0.25039520  0.24413095  1
  Na  Na13  1  0.63948510  0.25039728  0.49408230  1
  Na  Na14  1  0.63921496  0.24854369  0.74314700  1
  Na  Na15  1  0.63951757  0.25004437  0.99358707  1
  Na  Na16  1  0.63899704  0.58318666  0.24303349  1
  Na  Na17  1  0.63951507  0.58343680  0.49283498  1
  Na  Na18  1  0.63983110  0.58229619  0.74371120  1
  Na  Na19  1  0.63912295  0.58244173  0.99380703  1
  Na  Na20  1  0.63941897  0.91783595  0.24310803  1
  Na  Na21  1  0.64011679  0.91740316  0.49371861  1
  Na  Na22  1  0.64021262  0.91629587  0.74392679  1
  Na  Na23  1  0.63968058  0.91672672  0.99419349  1
  Na  Na24  1  0.36034383  0.08461117  0.00772280  1
  Na  Na25  1  0.35967578  0.08375150  0.25721072  1
  Na  Na26  1  0.35906528  0.08434053  0.50744414  1
  Na  Na27  1  0.36013754  0.08303140  0.75703667  1
  Na  Na28  1  0.35962319  0.41693988  0.00829426  1
  Na  Na29  1  0.35949730  0.41649819  0.25715257  1
  Na  Na30  1  0.35977966  0.41582855  0.50691314  1
  Na  Na31  1  0.35965787  0.41607647  0.75662831  1
  Na  Na32  1  0.36027371  0.75058288  0.00715159  1
  Na  Na33  1  0.36016809  0.74983536  0.25758222  1
  Na  Na34  1  0.36019614  0.75124490  0.50586430  1
  Na  Na35  1  0.35976848  0.75072482  0.75619680  1
  Na  Na36  1  0.86021500  0.08390295  0.00574267  1
  Na  Na37  1  0.85961370  0.08374421  0.25563554  1
  Na  Na38  1  0.85941915  0.08333005  0.50657802  1
  Na  Na39  1  0.85996539  0.08293486  0.75503533  1
  Na  Na40  1  0.85957403  0.41617694  0.00514135  1
  Na  Na41  1  0.85948229  0.41671342  0.25529363  1
  Na  Na42  1  0.85974065  0.41679972  0.50614862  1
  Na  Na43  1  0.85968118  0.41576171  0.75547784  1
  Na  Na44  1  0.86016380  0.74812763  0.00552128  1
  Na  Na45  1  0.85991419  0.74988911  0.25560933  1
  Na  Na46  1  0.85979376  0.75021216  0.50676142  1
  Na  Na47  1  0.85994437  0.74894396  0.75529252  1
  Na  Na48  1  0.11033877  0.08392411  0.11903340  1
  Na  Na49  1  0.10981840  0.08207036  0.36953096  1
  Na  Na50  1  0.11049617  0.08407799  0.61873475  1
  Na  Na51  1  0.11050315  0.08505959  0.86829972  1
  Na  Na52  1  0.10982747  0.41701905  0.11862175  1
  Na  Na53  1  0.10982211  0.41615174  0.36943176  1
  Na  Na54  1  0.10981862  0.41698003  0.61906683  1
  Na  Na55  1  0.10949562  0.41659081  0.86778597  1
  Na  Na56  1  0.11043098  0.74991094  0.11879040  1
  Na  Na57  1  0.11010844  0.74833224  0.36831805  1
  Na  Na58  1  0.11015782  0.74979658  0.61790691  1
  Na  Na59  1  0.11073136  0.74893432  0.86772654  1
  Na  Na60  1  0.60897653  0.08340383  0.11867990  1
  Na  Na61  1  0.60919783  0.08407029  0.36895422  1
  Na  Na62  1  0.60902879  0.08385661  0.61784516  1
  Na  Na63  1  0.60923412  0.08310506  0.86969434  1
  Na  Na64  1  0.60849275  0.41765020  0.11738122  1
  Na  Na65  1  0.60861152  0.41748146  0.36899768  1
  Na  Na66  1  0.60859458  0.41613967  0.61759450  1
  Na  Na67  1  0.60878814  0.41594838  0.86915319  1
  Na  Na68  1  0.60855495  0.74991274  0.11876787  1
  Na  Na69  1  0.60873652  0.75062291  0.36881007  1
  Na  Na70  1  0.60929835  0.74986784  0.61761641  1
  Na  Na71  1  0.60936467  0.74968395  0.86975129  1
  Na  Na72  1  0.38952132  0.25006358  0.13273961  1
  Na  Na73  1  0.38977548  0.25087468  0.38295528  1
  Na  Na74  1  0.38968051  0.25012526  0.63181606  1
  Na  Na75  1  0.39054716  0.24937655  0.88313889  1
  Na  Na76  1  0.39024802  0.58496776  0.13176954  1
  Na  Na77  1  0.39081425  0.58414619  0.38147562  1
  Na  Na78  1  0.39037071  0.58361778  0.62993770  1
  Na  Na79  1  0.39027943  0.58414699  0.88304129  1
  Na  Na80  1  0.39099358  0.91582637  0.13166709  1
  Na  Na81  1  0.39042143  0.91634095  0.38196351  1
  Na  Na82  1  0.38996565  0.91683206  0.63179896  1
  Na  Na83  1  0.39074957  0.91640829  0.88265060  1
  Na  Na84  1  0.89034968  0.24984746  0.13092040  1
  Na  Na85  1  0.89022710  0.24967322  0.38129179  1
  Na  Na86  1  0.89060473  0.25092631  0.63158652  1
  Na  Na87  1  0.89057051  0.24991189  0.87978746  1
  Na  Na88  1  0.89038139  0.58404336  0.13023385  1
  Na  Na89  1  0.89066684  0.58277014  0.38011813  1
  Na  Na90  1  0.89110603  0.58237508  0.63077043  1
  Na  Na91  1  0.89047681  0.58250356  0.88000703  1
  Na  Na92  1  0.89132387  0.91633621  0.13028373  1
  Na  Na93  1  0.89073999  0.91494733  0.38144516  1
  Na  Na94  1  0.89025244  0.91676075  0.63135743  1
  Na  Na95  1  0.89100509  0.91657037  0.87992165  1
  Mn  Mn96  1  0.00119673  0.00078423  0.00009902  1
  Mn  Mn97  1  0.24977758  0.50096470  0.87572240  1
  Mn  Mn98  1  0.25053887  0.83251923  0.12470217  1
  Mn  Mn99  1  0.74942617  0.49988417  0.37484331  1
  Mn  Mn100  1  0.49976305  0.66659630  0.75018637  1
  Mn  Mn101  1  0.25071967  0.49958604  0.62466647  1
  Mn  Mn102  1  0.25012401  0.50054557  0.12569772  1
  Mn  Mn103  1  0.75059885  0.00094477  0.12453988  1
  Mn  Mn104  1  0.74964592  0.16627606  0.87391600  1
  Mn  Mn105  1  0.50054665  0.00072613  0.75086309  1
  Mn  Mn106  1  0.74952485  0.33317160  0.12465077  1
  Mn  Mn107  1  -0.00001461  -0.00150709  0.24910695  1
  Mn  Mn108  1  0.74911327  0.33304735  0.37431569  1
  Mn  Mn109  1  0.75017097  -0.00033224  0.87481870  1
  Mn  Mn110  1  0.49929154  0.33252120  0.74988428  1
  Mn  Mn111  1  0.75011392  0.83327791  0.12481004  1
  Mn  Mn112  1  0.25072295  0.00072320  0.87491368  1
  Mn  Mn113  1  0.75053838  0.00134356  0.37427650  1
  Mn  Mn114  1  0.00014859  0.33420245  0.50061574  1
  Mn  Mn115  1  0.00052055  0.66622246  0.24983887  1
  Mn  Mn116  1  0.49922362  0.49995540  0.75022429  1
  Mn  Mn117  1  0.25003802  0.49919140  0.37482183  1
  Mn  Mn118  1  0.49998800  0.83317409  0.75070989  1
  Mn  Mn119  1  0.00037662  0.33407692  0.25016952  1
  Mn  Mn120  1  0.24990392  0.00030705  0.37549861  1
  Mn  Mn121  1  0.49982136  0.33439345  0.25043187  1
  Mn  Mn122  1  0.75051160  0.83278203  0.87445517  1
  Mn  Mn123  1  0.00055275  0.16604824  0.50042697  1
  Mn  Mn124  1  0.74909949  0.66557890  0.12483941  1
  Mn  Mn125  1  0.75002726  0.33327503  0.87481217  1
  Mn  Mn126  1  0.74967075  0.49895163  0.62433379  1
  Mn  Mn127  1  0.00098407  0.83239629  0.74994170  1
  Mn  Mn128  1  0.25006746  0.33275794  0.87614521  1
  Mn  Mn129  1  0.74999178  0.16661931  0.62472443  1
  Mn  Mn130  1  0.00036409  0.83231135  0.50039704  1
  Mn  Mn131  1  0.74980107  0.66689815  0.37480715  1
  Mn  Mn132  1  0.25055431  0.66787549  0.62424871  1
  Mn  Mn133  1  0.49941469  0.00029835  0.50008575  1
  Mn  Mn134  1  0.74956966  0.83411092  0.37521419  1
  Mn  Mn135  1  -0.00000711  0.16595904  0.25058162  1
  Mn  Mn136  1  0.00121624  0.00102758  0.75061946  1
  Mn  Mn137  1  0.00007508  0.50075754  -0.00156950  1
  Mn  Mn138  1  0.25074681  0.00101891  0.12500878  1
  Mn  Mn139  1  0.49980651  0.16659404  0.25025172  1
  Mn  Mn140  1  0.74908992  0.66505759  0.87505643  1
  Mn  Mn141  1  0.00106120  0.83241933  -0.00040347  1
  Mn  Mn142  1  0.74997689  0.66669121  0.62479585  1
  Mn  Mn143  1  -0.00043747  0.33285041  -0.00099804  1
  Fe  Fe144  1  0.24983029  0.33309158  0.12609426  1
  Fe  Fe145  1  0.25019128  0.83351947  0.37504825  1
  Fe  Fe146  1  0.49965146  0.50072752  0.49931594  1
  Fe  Fe147  1  0.49923239  0.50031448  0.00040274  1
  Fe  Fe148  1  0.00032934  0.66588624  0.74875706  1
  Fe  Fe149  1  0.00029392  0.16714952  -0.00060858  1
  Fe  Fe150  1  0.25023385  0.33267703  0.62596857  1
  Fe  Fe151  1  0.49991903  0.83373626  0.49978965  1
  Fe  Fe152  1  0.25054870  0.00015485  0.62518808  1
  Fe  Fe153  1  0.74935843  0.83365787  0.62526233  1
  Fe  Fe154  1  0.49972127  0.16626976  0.00087898  1
  Fe  Fe155  1  0.00006371  0.49985695  0.50021628  1
  Fe  Fe156  1  0.00052642  0.83234102  0.25016563  1
  Fe  Fe157  1  0.25059218  0.16668088  0.62544905  1
  Fe  Fe158  1  0.49997878  0.66698636  0.25027777  1
  Fe  Fe159  1  0.00030862  0.50013338  0.24957151  1
  Fe  Fe160  1  0.49900694  0.16715217  0.49991796  1
  Fe  Fe161  1  0.49994357  0.66692589  0.49925035  1
  Fe  Fe162  1  0.00033002  0.50046847  0.74931350  1
  Fe  Fe163  1  0.49978882  0.66696750  0.00144053  1
  Fe  Fe164  1  0.50010009  -0.00034146  0.00061613  1
  Fe  Fe165  1  0.00022410  0.66556671  0.49917151  1
  Fe  Fe166  1  0.25013029  0.83384049  0.62496346  1
  Fe  Fe167  1  0.74997646  0.16733382  0.37532040  1
  Fe  Fe168  1  -0.00013266  0.16713591  0.74957456  1
  Fe  Fe169  1  0.74931769  0.33291088  0.62465220  1
  Fe  Fe170  1  0.74979433  0.49947702  0.12463932  1
  Fe  Fe171  1  0.25089786  0.83370183  0.87469276  1
  Fe  Fe172  1  0.49909381  -0.00007527  0.25025320  1
  Fe  Fe173  1  0.25071817  0.16682000  0.87512249  1
  Fe  Fe174  1  0.49907266  0.50070748  0.24998921  1
  Fe  Fe175  1  0.74954847  0.16712923  0.12487036  1
  Fe  Fe176  1  0.24979361  0.16704935  0.37617632  1
  Fe  Fe177  1  0.25029149  0.66686705  0.37478079  1
  Fe  Fe178  1  0.49995680  0.83354914  0.25026350  1
  Fe  Fe179  1  0.49948169  0.16657272  0.75090385  1
  Fe  Fe180  1  0.25074281  0.66757938  0.87426774  1
  Fe  Fe181  1  0.49912700  0.33373050  0.50014211  1
  Fe  Fe182  1  0.49930611  0.33322804  0.00045326  1
  Fe  Fe183  1  0.00063567  0.33371026  0.74961572  1
  Fe  Fe184  1  0.24988628  0.33246035  0.37581223  1
  Fe  Fe185  1  0.74918055  0.49896218  0.87435864  1
  Fe  Fe186  1  0.74963358  0.00010083  0.62470606  1
  Fe  Fe187  1  0.00059821  0.66648627  -0.00058434  1
  Fe  Fe188  1  0.24986756  0.66707985  0.12482264  1
  Fe  Fe189  1  0.50021219  0.83318115  0.00151104  1
  Fe  Fe190  1  0.24978695  0.16754166  0.12630250  1
  Fe  Fe191  1  0.00000809  -0.00060220  0.50025586  1
  P  P192  1  0.04226739  0.24918796  0.10219995  1
  P  P193  1  0.04286849  0.24990956  0.35354597  1
  P  P194  1  0.04249910  0.25048022  0.60429253  1
  P  P195  1  0.04172300  0.24998346  0.85126611  1
  P  P196  1  0.04275108  0.58440526  0.10194414  1
  P  P197  1  0.04266279  0.58148748  0.35284534  1
  P  P198  1  0.04201405  0.58315063  0.60169088  1
  P  P199  1  0.04213843  0.58353094  0.85082241  1
  P  P200  1  0.04405582  0.91608842  0.10312706  1
  P  P201  1  0.04233513  0.91462541  0.35286413  1
  P  P202  1  0.04275686  0.91764161  0.60250593  1
  P  P203  1  0.04402971  0.91655511  0.85299031  1
  P  P204  1  0.54049879  0.25021950  0.10197237  1
  P  P205  1  0.54169042  0.25050965  0.35413327  1
  P  P206  1  0.54037816  0.24980503  0.60174288  1
  P  P207  1  0.54164669  0.24863992  0.85353696  1
  P  P208  1  0.54054342  0.58323906  0.10269351  1
  P  P209  1  0.54071004  0.58352482  0.35211591  1
  P  P210  1  0.54114189  0.58329605  0.60101799  1
  P  P211  1  0.54186405  0.58298893  0.85428373  1
  P  P212  1  0.54115508  0.91677333  0.10292206  1
  P  P213  1  0.54102650  0.91691640  0.35190757  1
  P  P214  1  0.54185592  0.91594348  0.60232994  1
  P  P215  1  0.54264479  0.91673900  0.85456562  1
  P  P216  1  0.45773980  0.08189678  0.14732913  1
  P  P217  1  0.45690687  0.08444722  0.39769523  1
  P  P218  1  0.45788975  0.08503294  0.64777104  1
  P  P219  1  0.45863892  0.08316885  0.89912009  1
  P  P220  1  0.45739002  0.41847231  0.14722894  1
  P  P221  1  0.45806942  0.41761656  0.39829762  1
  P  P222  1  0.45701216  0.41672723  0.64620422  1
  P  P223  1  0.45788678  0.41649264  0.89912963  1
  P  P224  1  0.45867096  0.75029004  0.14857044  1
  P  P225  1  0.45903437  0.75069065  0.39761624  1
  P  P226  1  0.45758160  0.75007216  0.64605749  1
  P  P227  1  0.45898673  0.75005556  0.89968944  1
  P  P228  1  0.95751637  0.08347653  0.14619138  1
  P  P229  1  0.95771504  0.08114851  0.39783649  1
  P  P230  1  0.95832658  0.08414496  0.64715095  1
  P  P231  1  0.95840829  0.08519529  0.89686504  1
  P  P232  1  0.95795356  0.41823666  0.14699820  1
  P  P233  1  0.95783033  0.41829128  0.39717950  1
  P  P234  1  0.95879444  0.41740326  0.64811543  1
  P  P235  1  0.95755081  0.41661880  0.89499631  1
  P  P236  1  0.95813993  0.75065297  0.14704383  1
  P  P237  1  0.95800097  0.74814282  0.39723326  1
  P  P238  1  0.95842410  0.74808968  0.64669126  1
  P  P239  1  0.95845790  0.74789321  0.89645988  1
  P  P240  1  0.20811292  0.08480792  0.22837890  1
  P  P241  1  0.20812762  0.08455292  0.47880579  1
  P  P242  1  0.20949282  0.08326908  0.72688462  1
  P  P243  1  0.20857106  0.08543910  0.97789070  1
  P  P244  1  0.20803871  0.41515235  0.22823725  1
  P  P245  1  0.20815687  0.41454517  0.47818959  1
  P  P246  1  0.20822501  0.41545151  0.72772272  1
  P  P247  1  0.20722350  0.41677081  0.97903291  1
  P  P248  1  0.20840328  0.74839361  0.22814561  1
  P  P249  1  0.20891594  0.75068457  0.47655794  1
  P  P250  1  0.20840587  0.75172622  0.72760454  1
  P  P251  1  0.20932719  0.75019825  0.97626735  1
  P  P252  1  0.70747727  0.08542453  0.22753263  1
  P  P253  1  0.70766420  0.08471568  0.47761720  1
  P  P254  1  0.70705820  0.08184967  0.72687006  1
  P  P255  1  0.70725484  0.08382089  0.97832526  1
  P  P256  1  0.70668096  0.41748127  0.22688411  1
  P  P257  1  0.70650214  0.41595619  0.47819858  1
  P  P258  1  0.70686751  0.41487037  0.72723711  1
  P  P259  1  0.70727964  0.41757309  0.97751342  1
  P  P260  1  0.70647877  0.74997079  0.22801132  1
  P  P261  1  0.70699019  0.75070528  0.47872390  1
  P  P262  1  0.70719300  0.75060233  0.72722190  1
  P  P263  1  0.70712934  0.74934223  0.97806821  1
  P  P264  1  0.29129522  0.24998710  0.02417151  1
  P  P265  1  0.29150069  0.24979367  0.27375281  1
  P  P266  1  0.29108895  0.25014191  0.52349858  1
  P  P267  1  0.29271376  0.24875834  0.77266484  1
  P  P268  1  0.29206589  0.58535976  0.02247185  1
  P  P269  1  0.29205969  0.58444281  0.27245258  1
  P  P270  1  0.29233832  0.58381321  0.52092846  1
  P  P271  1  0.29250266  0.58471655  0.77252392  1
  P  P272  1  0.29302534  0.91690307  0.02165243  1
  P  P273  1  0.29234436  0.91578279  0.27300155  1
  P  P274  1  0.29146706  0.91681802  0.52325504  1
  P  P275  1  0.29280039  0.91591037  0.77211549  1
  P  P276  1  0.79212564  0.24902866  0.02220643  1
  P  P277  1  0.79217080  0.24868594  0.27196958  1
  P  P278  1  0.79229284  0.25111105  0.52209716  1
  P  P279  1  0.79249251  0.25005190  0.77076907  1
  P  P280  1  0.79174072  0.58093846  0.02175878  1
  P  P281  1  0.79236063  0.58282262  0.27108356  1
  P  P282  1  0.79283112  0.58321049  0.52166094  1
  P  P283  1  0.79187560  0.58117008  0.77216398  1
  P  P284  1  0.79351216  0.91653756  0.02149825  1
  P  P285  1  0.79300340  0.91709964  0.27165626  1
  P  P286  1  0.79123930  0.91704078  0.52349676  1
  P  P287  1  0.79299732  0.91647444  0.77047863  1
  O  O288  1  0.03720998  0.24954356  0.18216101  1
  O  O289  1  0.03776716  0.25011754  0.43350746  1
  O  O290  1  0.03706702  0.25058400  0.68420474  1
  O  O291  1  0.03653528  0.24946418  0.93127226  1
  O  O292  1  0.03775974  0.58378956  0.18188478  1
  O  O293  1  0.03730437  0.58173075  0.43270202  1
  O  O294  1  0.03686409  0.58331951  0.68162881  1
  O  O295  1  0.03713198  0.58403042  0.93078312  1
  O  O296  1  0.03874877  0.91529345  0.18311663  1
  O  O297  1  0.03697425  0.91536754  0.43280387  1
  O  O298  1  0.03802627  0.91743334  0.68246918  1
  O  O299  1  0.03898596  0.91660816  0.93294126  1
  O  O300  1  0.53628796  0.25032108  0.18198360  1
  O  O301  1  0.53606775  0.25046107  0.43397380  1
  O  O302  1  0.53580947  0.24969685  0.68174650  1
  O  O303  1  0.53642453  0.24896866  0.93340691  1
  O  O304  1  0.53543259  0.58321494  0.18257605  1
  O  O305  1  0.53574026  0.58359840  0.43201733  1
  O  O306  1  0.53647106  0.58346995  0.68102649  1
  O  O307  1  0.53666184  0.58284011  0.93416841  1
  O  O308  1  0.53585857  0.91645786  0.18280154  1
  O  O309  1  0.53575335  0.91669757  0.43186444  1
  O  O310  1  0.53711398  0.91626570  0.68230784  1
  O  O311  1  0.53754636  0.91692545  0.93446176  1
  O  O312  1  0.46322683  0.08183480  0.06748323  1
  O  O313  1  0.46189086  0.08383072  0.31777193  1
  O  O314  1  0.46288171  0.08512163  0.56781675  1
  O  O315  1  0.46351989  0.08396981  0.81913250  1
  O  O316  1  0.46265062  0.41812182  0.06736402  1
  O  O317  1  0.46297426  0.41768186  0.31832426  1
  O  O318  1  0.46222555  0.41685648  0.56633394  1
  O  O319  1  0.46254817  0.41582308  0.81911557  1
  O  O320  1  0.46369156  0.75011984  0.06869649  1
  O  O321  1  0.46413320  0.75089713  0.31774056  1
  O  O322  1  0.46270550  0.75035504  0.56614231  1
  O  O323  1  0.46348521  0.74993187  0.81967318  1
  O  O324  1  0.96287826  0.08431064  0.06624500  1
  O  O325  1  0.96277682  0.08108701  0.31785768  1
  O  O326  1  0.96348691  0.08306904  0.56721765  1
  O  O327  1  0.96383276  0.08551339  0.81689643  1
  O  O328  1  0.96297905  0.41766105  0.06701595  1
  O  O329  1  0.96319367  0.41826372  0.31721980  1
  O  O330  1  0.96372403  0.41791235  0.56811864  1
  O  O331  1  0.96318203  0.41647596  0.81514333  1
  O  O332  1  0.96334505  0.75008220  0.06711057  1
  O  O333  1  0.96324497  0.74907272  0.31729100  1
  O  O334  1  0.96360824  0.74792449  0.56673686  1
  O  O335  1  0.96367823  0.74775220  0.81647608  1
  O  O336  1  0.21355761  0.08557082  0.05787092  1
  O  O337  1  0.21327483  0.08481432  0.30835336  1
  O  O338  1  0.21397585  0.08387062  0.55863972  1
  O  O339  1  0.21435406  0.08365449  0.80683996  1
  O  O340  1  0.21233856  0.41657927  0.05900357  1
  O  O341  1  0.21338106  0.41486449  0.30819309  1
  O  O342  1  0.21375984  0.41471296  0.55810648  1
  O  O343  1  0.21338484  0.41593998  0.80769645  1
  O  O344  1  0.21393992  0.74939239  0.05630902  1
  O  O345  1  0.21385663  0.74858671  0.30801581  1
  O  O346  1  0.21390094  0.75149074  0.55653159  1
  O  O347  1  0.21382047  0.75137531  0.80747652  1
  O  O348  1  0.71243284  0.08461022  0.05831078  1
  O  O349  1  0.71268997  0.08564342  0.30753378  1
  O  O350  1  0.71292734  0.08351984  0.55756500  1
  O  O351  1  0.71197060  0.08214220  0.80685276  1
  O  O352  1  0.71249531  0.41758887  0.05746644  1
  O  O353  1  0.71157745  0.41699374  0.30688295  1
  O  O354  1  0.71156994  0.41537148  0.55815321  1
  O  O355  1  0.71227719  0.41563514  0.80720073  1
  O  O356  1  0.71211748  0.74920060  0.05805377  1
  O  O357  1  0.71146449  0.75001798  0.30803953  1
  O  O358  1  0.71220095  0.75121162  0.55871230  1
  O  O359  1  0.71222590  0.75003710  0.80723490  1
  O  O360  1  0.28616307  0.24994055  0.19382096  1
  O  O361  1  0.28602207  0.24986917  0.44360499  1
  O  O362  1  0.28738194  0.24917452  0.69278753  1
  O  O363  1  0.28699967  0.24990370  0.94417374  1
  O  O364  1  0.28662215  0.58476531  0.19248351  1
  O  O365  1  0.28679967  0.58389538  0.44102517  1
  O  O366  1  0.28763348  0.58437060  0.69249820  1
  O  O367  1  0.28699081  0.58549221  0.94247450  1
  O  O368  1  0.28758069  0.91594395  0.19303665  1
  O  O369  1  0.28600591  0.91650413  0.44331314  1
  O  O370  1  0.28722281  0.91612789  0.69222131  1
  O  O371  1  0.28788870  0.91651104  0.94169815  1
  O  O372  1  0.78690640  0.24859982  0.19197505  1
  O  O373  1  0.78700552  0.25037077  0.44212659  1
  O  O374  1  0.78743890  0.25060413  0.69081131  1
  O  O375  1  0.78723978  0.24940868  0.94220728  1
  O  O376  1  0.78719278  0.58228040  0.19108644  1
  O  O377  1  0.78776685  0.58332680  0.44169172  1
  O  O378  1  0.78688033  0.58173786  0.69220374  1
  O  O379  1  0.78634210  0.58075653  0.94180073  1
  O  O380  1  0.78820495  0.91715648  0.19168999  1
  O  O381  1  0.78663612  0.91733476  0.44343498  1
  O  O382  1  0.78736749  0.91650231  0.69052812  1
  O  O383  1  0.78860233  0.91646271  0.94145460  1
  O  O384  1  0.22702499  0.24976886  0.05973506  1
  O  O385  1  0.22745037  0.24966234  0.31015586  1
  O  O386  1  0.22723396  0.25045202  0.56007811  1
  O  O387  1  0.22845637  0.24843150  0.80853609  1
  O  O388  1  0.22781573  0.58517038  0.05814712  1
  O  O389  1  0.22794709  0.58427621  0.30836391  1
  O  O390  1  0.22826196  0.58365896  0.55675205  1
  O  O391  1  0.22811260  0.58508760  0.80773351  1
  O  O392  1  0.22880930  0.91689468  0.05714847  1
  O  O393  1  0.22801128  0.91555606  0.30837864  1
  O  O394  1  0.22749253  0.91711850  0.55963926  1
  O  O395  1  0.22872808  0.91575406  0.80833492  1
  O  O396  1  0.72767255  0.24906363  0.05738206  1
  O  O397  1  0.72782022  0.24827259  0.30756544  1
  O  O398  1  0.72794924  0.25134371  0.55769357  1
  O  O399  1  0.72811596  0.25006366  0.80588606  1
  O  O400  1  0.72746461  0.58075476  0.05751349  1
  O  O401  1  0.72793024  0.58332724  0.30617585  1
  O  O402  1  0.72831619  0.58310977  0.55637557  1
  O  O403  1  0.72745317  0.58072631  0.80746950  1
  O  O404  1  0.72898539  0.91694502  0.05623399  1
  O  O405  1  0.72845586  0.91762360  0.30635177  1
  O  O406  1  0.72694313  0.91694306  0.55898456  1
  O  O407  1  0.72875597  0.91629134  0.80614428  1
  O  O408  1  0.27234875  0.08530080  0.19261905  1
  O  O409  1  0.27208295  0.08504943  0.44229209  1
  O  O410  1  0.27357204  0.08264527  0.69095879  1
  O  O411  1  0.27287851  0.08536775  0.94229732  1
  O  O412  1  0.27219060  0.41553591  0.19238099  1
  O  O413  1  0.27223845  0.41457579  0.44205541  1
  O  O414  1  0.27248566  0.41498809  0.69214174  1
  O  O415  1  0.27159355  0.41702149  0.94385509  1
  O  O416  1  0.27256811  0.74802470  0.19207248  1
  O  O417  1  0.27304957  0.75062269  0.44055335  1
  O  O418  1  0.27257353  0.75217823  0.69160724  1
  O  O419  1  0.27357850  0.75072059  0.94063842  1
  O  O420  1  0.77181568  0.08557390  0.19201407  1
  O  O421  1  0.77196348  0.08553244  0.44194224  1
  O  O422  1  0.77150198  0.08189110  0.69176987  1
  O  O423  1  0.77161783  0.08351400  0.94308837  1
  O  O424  1  0.77116009  0.41761446  0.19177252  1
  O  O425  1  0.77089920  0.41615523  0.44312031  1
  O  O426  1  0.77121284  0.41423701  0.69159944  1
  O  O427  1  0.77156649  0.41794497  0.94183525  1
  O  O428  1  0.77099347  0.74942130  0.19327639  1
  O  O429  1  0.77137025  0.75047107  0.44352027  1
  O  O430  1  0.77160544  0.75092888  0.69207436  1
  O  O431  1  0.77151442  0.74874555  0.94300114  1
  O  O432  1  0.02182457  0.08292048  0.18167274  1
  O  O433  1  0.02213259  0.08105257  0.43323046  1
  O  O434  1  0.02261332  0.08523866  0.68285545  1
  O  O435  1  0.02268350  0.08557538  0.93272537  1
  O  O436  1  0.02229058  0.41840041  0.18264240  1
  O  O437  1  0.02206951  0.41845463  0.43311111  1
  O  O438  1  0.02293652  0.41738075  0.68420288  1
  O  O439  1  0.02167214  0.41646518  0.93101793  1
  O  O440  1  0.02240315  0.75104825  0.18291733  1
  O  O441  1  0.02227586  0.74796834  0.43301388  1
  O  O442  1  0.02272544  0.74803323  0.68240357  1
  O  O443  1  0.02278039  0.74783661  0.93219703  1
  O  O444  1  0.52181486  0.08177041  0.18366174  1
  O  O445  1  0.52124377  0.08472599  0.43323165  1
  O  O446  1  0.52216833  0.08535184  0.68353407  1
  O  O447  1  0.52272671  0.08254518  0.93519585  1
  O  O448  1  0.52156722  0.41908996  0.18336029  1
  O  O449  1  0.52212875  0.41790501  0.43444583  1
  O  O450  1  0.52119759  0.41649186  0.68210251  1
  O  O451  1  0.52209015  0.41702438  0.93485841  1
  O  O452  1  0.52266853  0.75073331  0.18495056  1
  O  O453  1  0.52292430  0.75129419  0.43423032  1
  O  O454  1  0.52182251  0.74995747  0.68184616  1
  O  O455  1  0.52313924  0.74987484  0.93539033  1
  O  O456  1  0.47620687  0.25024054  0.06669410  1
  O  O457  1  0.47759818  0.25051360  0.31806069  1
  O  O458  1  0.47619085  0.24946555  0.56590157  1
  O  O459  1  0.47741136  0.24828675  0.81748734  1
  O  O460  1  0.47659042  0.58302747  0.06613605  1
  O  O461  1  0.47670241  0.58322700  0.31569244  1
  O  O462  1  0.47697447  0.58291318  0.56516468  1
  O  O463  1  0.47753986  0.58340494  0.81864206  1
  O  O464  1  0.47724023  0.91723484  0.06627325  1
  O  O465  1  0.47688480  0.91670270  0.31577541  1
  O  O466  1  0.47745556  0.91563162  0.56696584  1
  O  O467  1  0.47839218  0.91698422  0.81882799  1
  O  O468  1  0.97791259  0.24847280  0.06659037  1
  O  O469  1  0.97848591  0.25013377  0.31837363  1
  O  O470  1  0.97838726  0.25015218  0.56831961  1
  O  O471  1  0.97762440  0.25027301  0.81512260  1
  O  O472  1  0.97840798  0.58492132  0.06627967  1
  O  O473  1  0.97854692  0.58140028  0.31655020  1
  O  O474  1  0.97790423  0.58310483  0.56533118  1
  O  O475  1  0.97789669  0.58318997  0.81484279  1
  O  O476  1  0.97974523  0.91638474  0.06771542  1
  O  O477  1  0.97813757  0.91413109  0.31684511  1
  O  O478  1  0.97833175  0.91728213  0.56720649  1
  O  O479  1  0.97961841  0.91664335  0.81791092  1
  O  O480  1  0.07277198  0.31312076  0.07423205  1
  O  O481  1  0.07402052  0.31328084  0.32529954  1
  O  O482  1  0.07352687  0.31400746  0.57601464  1
  O  O483  1  0.07267550  0.31387559  0.82366627  1
  O  O484  1  0.07341362  0.64812134  0.07355798  1
  O  O485  1  0.07385188  0.64508122  0.32479083  1
  O  O486  1  0.07297210  0.64666685  0.57303767  1
  O  O487  1  0.07305422  0.64692404  0.82211876  1
  O  O488  1  0.07507757  0.97988604  0.07550688  1
  O  O489  1  0.07363785  0.97801638  0.32469706  1
  O  O490  1  0.07303799  0.98141684  0.57396191  1
  O  O491  1  0.07520902  0.98009858  0.82515516  1
  O  O492  1  0.57121426  0.31392079  0.07360612  1
  O  O493  1  0.57298103  0.31389947  0.32577294  1
  O  O494  1  0.57046780  0.31396095  0.57333005  1
  O  O495  1  0.57264549  0.31220463  0.82509098  1
  O  O496  1  0.57113109  0.64723173  0.07451345  1
  O  O497  1  0.57128763  0.64738300  0.32357927  1
  O  O498  1  0.57145519  0.64722757  0.57254484  1
  O  O499  1  0.57327302  0.64621595  0.82572454  1
  O  O500  1  0.57266362  0.98005900  0.07474182  1
  O  O501  1  0.57141464  0.98103015  0.32391242  1
  O  O502  1  0.57254065  0.97977408  0.57433951  1
  O  O503  1  0.57388029  0.98000990  0.82576369  1
  O  O504  1  0.42670202  0.01860222  0.17624969  1
  O  O505  1  0.42575703  0.02098219  0.42596140  1
  O  O506  1  0.42733367  0.02097166  0.67553911  1
  O  O507  1  0.42742579  0.01953271  0.92671926  1
  O  O508  1  0.42670904  0.35464853  0.17555967  1
  O  O509  1  0.42780019  0.35351539  0.42658478  1
  O  O510  1  0.42573515  0.35345058  0.67482225  1
  O  O511  1  0.42766736  0.35256387  0.92787634  1
  O  O512  1  0.42827046  0.68641688  0.17727734  1
  O  O513  1  0.42878560  0.68652748  0.42584041  1
  O  O514  1  0.42647305  0.68653497  0.67438573  1
  O  O515  1  0.42794613  0.68654506  0.92799533  1
  O  O516  1  0.92637427  0.01973235  0.17369390  1
  O  O517  1  0.92701902  0.01764981  0.42654301  1
  O  O518  1  0.92755416  0.02059655  0.67565112  1
  O  O519  1  0.92780551  0.02104514  0.92423116  1
  O  O520  1  0.92690940  0.35459314  0.17497021  1
  O  O521  1  0.92698907  0.35435858  0.42492901  1
  O  O522  1  0.92812781  0.35345826  0.67586278  1
  O  O523  1  0.92603883  0.35343269  0.92354417  1
  O  O524  1  0.92698528  0.68712830  0.17511942  1
  O  O525  1  0.92748929  0.68424187  0.42518639  1
  O  O526  1  0.92730452  0.68484876  0.67534937  1
  O  O527  1  0.92756044  0.68459391  0.92537194  1
  O  O528  1  0.17757729  0.02075523  0.20054632  1
  O  O529  1  0.17706030  0.02096828  0.45044472  1
  O  O530  1  0.17815789  0.01976747  0.69890611  1
  O  O531  1  0.17760709  0.02165303  0.95004717  1
  O  O532  1  0.17725826  0.35173210  0.19945093  1
  O  O533  1  0.17701105  0.35123347  0.44976516  1
  O  O534  1  0.17726466  0.35188792  0.69974616  1
  O  O535  1  0.17610424  0.35342461  0.95055052  1
  O  O536  1  0.17709178  0.68523951  0.19929167  1
  O  O537  1  0.17834711  0.68657254  0.44891638  1
  O  O538  1  0.17744049  0.68808432  0.69921598  1
  O  O539  1  0.17877687  0.68661890  0.94720903  1
  O  O540  1  0.67675427  0.02142326  0.19986173  1
  O  O541  1  0.67667408  0.02126887  0.44899948  1
  O  O542  1  0.67645312  0.01826661  0.69835491  1
  O  O543  1  0.67630155  0.02004538  0.95065569  1
  O  O544  1  0.67573230  0.35374968  0.19895235  1
  O  O545  1  0.67523506  0.35286777  0.44942388  1
  O  O546  1  0.67594656  0.35128620  0.69898834  1
  O  O547  1  0.67657976  0.35352756  0.94991964  1
  O  O548  1  0.67512059  0.68666234  0.19985982  1
  O  O549  1  0.67599026  0.68703137  0.45080291  1
  O  O550  1  0.67610420  0.68693231  0.69935108  1
  O  O551  1  0.67571902  0.68597371  0.95009479  1
  O  O552  1  0.32144933  0.31408221  0.05274101  1
  O  O553  1  0.32243611  0.31349246  0.30210585  1
  O  O554  1  0.32241446  0.31354282  0.55178455  1
  O  O555  1  0.32383089  0.31222468  0.80117648  1
  O  O556  1  0.32297439  0.64866514  0.05130903  1
  O  O557  1  0.32313465  0.64764413  0.30131334  1
  O  O558  1  0.32371554  0.64716030  0.54894801  1
  O  O559  1  0.32335243  0.64833804  0.80080632  1
  O  O560  1  0.32387363  0.98061745  0.04965714  1
  O  O561  1  0.32320189  0.97947836  0.30099788  1
  O  O562  1  0.32247767  0.98062107  0.55110382  1
  O  O563  1  0.32401730  0.97951708  0.80013250  1
  O  O564  1  0.82318958  0.31271889  0.05011042  1
  O  O565  1  0.82279817  0.31283525  0.29948378  1
  O  O566  1  0.82289369  0.31483225  0.55042255  1
  O  O567  1  0.82391255  0.31301801  0.79961470  1
  O  O568  1  0.82256196  0.64493968  0.04931720  1
  O  O569  1  0.82356316  0.64640197  0.29900968  1
  O  O570  1  0.82384386  0.64662966  0.54996759  1
  O  O571  1  0.82265199  0.64496431  0.80012603  1
  O  O572  1  0.82468365  0.97998444  0.04956207  1
  O  O573  1  0.82426780  0.98046268  0.29985792  1
  O  O574  1  0.82187959  0.98089510  0.55159205  1
  O  O575  1  0.82415081  0.97990614  0.79893114  1
  O  O576  1  0.42662739  0.14557485  0.17513060  1
  O  O577  1  0.42622573  0.14801781  0.42617459  1
  O  O578  1  0.42678286  0.14805300  0.67679587  1
  O  O579  1  0.42822364  0.14685639  0.92808025  1
  O  O580  1  0.42608634  0.48160896  0.17591696  1
  O  O581  1  0.42669392  0.48090373  0.42635530  1
  O  O582  1  0.42595906  0.48015617  0.67473645  1
  O  O583  1  0.42662933  0.48002756  0.92669529  1
  O  O584  1  0.42722654  0.81357062  0.17683559  1
  O  O585  1  0.42743131  0.81379953  0.42612132  1
  O  O586  1  0.42649259  0.81328750  0.67498558  1
  O  O587  1  0.42858623  0.81394669  0.92792145  1
  O  O588  1  0.92642370  0.14657232  0.17513687  1
  O  O589  1  0.92687740  0.14497381  0.42537129  1
  O  O590  1  0.92716714  0.14771182  0.67494963  1
  O  O591  1  0.92711572  0.14828520  0.92544261  1
  O  O592  1  0.92740393  0.48189435  0.17518095  1
  O  O593  1  0.92673298  0.48138145  0.42598035  1
  O  O594  1  0.92777088  0.48084201  0.67646757  1
  O  O595  1  0.92653958  0.48009693  0.92327658  1
  O  O596  1  0.92743359  0.81419263  0.17552333  1
  O  O597  1  0.92658555  0.81129173  0.42573771  1
  O  O598  1  0.92770195  0.81200785  0.67434724  1
  O  O599  1  0.92753548  0.81171713  0.92403720  1
  O  O600  1  0.07338012  0.18590545  0.07385536  1
  O  O601  1  0.07365085  0.18619393  0.32578840  1
  O  O602  1  0.07393967  0.18722791  0.57608805  1
  O  O603  1  0.07264664  0.18655289  0.82272483  1
  O  O604  1  0.07374844  0.52101737  0.07352028  1
  O  O605  1  0.07354786  0.51817636  0.32396093  1
  O  O606  1  0.07287450  0.51943036  0.57358658  1
  O  O607  1  0.07298425  0.51969527  0.82304473  1
  O  O608  1  0.07533690  0.85300112  0.07447526  1
  O  O609  1  0.07296915  0.85086998  0.32472789  1
  O  O610  1  0.07399871  0.85415368  0.57470739  1
  O  O611  1  0.07478743  0.85299740  0.82483207  1
  O  O612  1  0.57104954  0.18638741  0.07380014  1
  O  O613  1  0.57298889  0.18723379  0.32572829  1
  O  O614  1  0.57177945  0.18661936  0.57336422  1
  O  O615  1  0.57253996  0.18529577  0.82464607  1
  O  O616  1  0.57181910  0.52006374  0.07402846  1
  O  O617  1  0.57188114  0.52014985  0.32369111  1
  O  O618  1  0.57230022  0.51980591  0.57311584  1
  O  O619  1  0.57259386  0.51951183  0.82542997  1
  O  O620  1  0.57153933  0.85283717  0.07434359  1
  O  O621  1  0.57241256  0.85370584  0.32366760  1
  O  O622  1  0.57266260  0.85261320  0.57373161  1
  O  O623  1  0.57360346  0.85325244  0.82614669  1
  O  O624  1  0.32250988  0.18679105  0.05279628  1
  O  O625  1  0.32248654  0.18631377  0.30224087  1
  O  O626  1  0.32166256  0.18635892  0.55216500  1
  O  O627  1  0.32349111  0.18527887  0.80142374  1
  O  O628  1  0.32302122  0.52161663  0.05027953  1
  O  O629  1  0.32306789  0.52054073  0.29975067  1
  O  O630  1  0.32339035  0.52024189  0.54894364  1
  O  O631  1  0.32330867  0.52106533  0.80063624  1
  O  O632  1  0.32427301  0.85368882  0.05015289  1
  O  O633  1  0.32303550  0.85226123  0.30152285  1
  O  O634  1  0.32244010  0.85330647  0.55148274  1
  O  O635  1  0.32383730  0.85263060  0.80098013  1
  O  O636  1  0.82268493  0.18554225  0.05077018  1
  O  O637  1  0.82339318  0.18577675  0.30109766  1
  O  O638  1  0.82357151  0.18775129  0.55026367  1
  O  O639  1  0.82321907  0.18617129  0.79847576  1
  O  O640  1  0.82289107  0.51785116  0.05065617  1
  O  O641  1  0.82330831  0.51949216  0.29967832  1
  O  O642  1  0.82381238  0.51971386  0.54975453  1
  O  O643  1  0.82261315  0.51762048  0.80034880  1
  O  O644  1  0.82422254  0.85286819  0.04958001  1
  O  O645  1  0.82357271  0.85346694  0.30003086  1
  O  O646  1  0.82196470  0.85330627  0.55160273  1
  O  O647  1  0.82438775  0.85314893  0.79876667  1
  O  O648  1  0.17683204  0.14791302  0.19972465  1
  O  O649  1  0.17681875  0.14786987  0.45063360  1
  O  O650  1  0.17908321  0.14707214  0.69830652  1
  O  O651  1  0.17782074  0.14865833  0.94868269  1
  O  O652  1  0.17685815  0.47885741  0.20071782  1
  O  O653  1  0.17712649  0.47827625  0.45042355  1
  O  O654  1  0.17751307  0.47920855  0.69969191  1
  O  O655  1  0.17619452  0.48026557  0.95072622  1
  O  O656  1  0.17761213  0.81214216  0.19995887  1
  O  O657  1  0.17783745  0.81401565  0.44787381  1
  O  O658  1  0.17727872  0.81495916  0.69881883  1
  O  O659  1  0.17844774  0.81399301  0.94851971  1
  O  O660  1  0.67634206  0.14854502  0.19857092  1
  O  O661  1  0.67679089  0.14839549  0.44976873  1
  O  O662  1  0.67602687  0.14544924  0.69895809  1
  O  O663  1  0.67607253  0.14693357  0.94946261  1
  O  O664  1  0.67608969  0.48100361  0.19846470  1
  O  O665  1  0.67561988  0.47970272  0.45034301  1
  O  O666  1  0.67588442  0.47842158  0.69906570  1
  O  O667  1  0.67608553  0.48057194  0.94855572  1
  O  O668  1  0.67591280  0.81369488  0.19989368  1
  O  O669  1  0.67588551  0.81397062  0.45012747  1
  O  O670  1  0.67651243  0.81421765  0.69890239  1
  O  O671  1  0.67655110  0.81306908  0.95011019  1
