# generated using pymatgen
data_Na2MnFe(PO4)2
_symmetry_space_group_name_H-M   'P 1'
_cell_length_a   22.34331583
_cell_length_b   20.09200164
_cell_length_c   19.44985031
_cell_angle_alpha   90.00722667
_cell_angle_beta   90.00026727
_cell_angle_gamma   90.05690050
_symmetry_Int_Tables_number   1
_chemical_formula_structural   Na2MnFe(PO4)2
_chemical_formula_sum   'Na96 Mn48 Fe48 P96 O384'
_cell_volume   8731.46012848
_cell_formula_units_Z   48
loop_
 _symmetry_equiv_pos_site_id
 _symmetry_equiv_pos_as_xyz
  1  'x, y, z'
loop_
 _atom_site_type_symbol
 _atom_site_label
 _atom_site_symmetry_multiplicity
 _atom_site_fract_x
 _atom_site_fract_y
 _atom_site_fract_z
 _atom_site_occupancy
  Na  Na0  1  0.14010242  0.24868735  0.24451462  1
  Na  Na1  1  0.14073669  0.24924995  0.49400125  1
  Na  Na2  1  0.14031331  0.24859842  0.74334290  1
  Na  Na3  1  0.14048229  0.25036282  0.99420015  1
  Na  Na4  1  0.14035741  0.58498352  0.24340563  1
  Na  Na5  1  0.14027669  0.58305990  0.49294472  1
  Na  Na6  1  0.13964436  0.58287892  0.74423515  1
  Na  Na7  1  0.14014588  0.58487590  0.99297156  1
  Na  Na8  1  0.14096310  0.91504390  0.24408974  1
  Na  Na9  1  0.14019094  0.91686331  0.49316475  1
  Na  Na10  1  0.14050721  0.91644613  0.74396921  1
  Na  Na11  1  0.14054601  0.91589258  0.99517128  1
  Na  Na12  1  0.64003664  0.25073484  0.24210747  1
  Na  Na13  1  0.64013922  0.25154444  0.49336264  1
  Na  Na14  1  0.64007000  0.25088829  0.74337476  1
  Na  Na15  1  0.64012900  0.25047886  0.99268804  1
  Na  Na16  1  0.64090240  0.58259789  0.24345378  1
  Na  Na17  1  0.64023340  0.58317410  0.49433503  1
  Na  Na18  1  0.64004407  0.58200551  0.74386055  1
  Na  Na19  1  0.64043594  0.58210846  0.99248459  1
  Na  Na20  1  0.64046979  0.91686203  0.24332902  1
  Na  Na21  1  0.64045299  0.91723595  0.49376146  1
  Na  Na22  1  0.64037429  0.91757354  0.74472816  1
  Na  Na23  1  0.64044712  0.91598251  0.99358078  1
  Na  Na24  1  0.35961790  0.08279556  0.00604943  1
  Na  Na25  1  0.35954073  0.08325885  0.25697483  1
  Na  Na26  1  0.36014332  0.08369713  0.50657986  1
  Na  Na27  1  0.35995821  0.08229017  0.75546542  1
  Na  Na28  1  0.35965530  0.41772689  0.00591737  1
  Na  Na29  1  0.35957693  0.41639222  0.25642182  1
  Na  Na30  1  0.35945082  0.41536262  0.50580892  1
  Na  Na31  1  0.36024548  0.41637466  0.75680787  1
  Na  Na32  1  0.36010830  0.75128624  0.00762292  1
  Na  Na33  1  0.36023528  0.75086766  0.25584893  1
  Na  Na34  1  0.36023896  0.75074660  0.50569660  1
  Na  Na35  1  0.35947423  0.74938715  0.75638210  1
  Na  Na36  1  0.85899099  0.08357616  0.00607330  1
  Na  Na37  1  0.85952347  0.08413820  0.25610234  1
  Na  Na38  1  0.85949785  0.08482077  0.50639680  1
  Na  Na39  1  0.85944450  0.08490605  0.75725538  1
  Na  Na40  1  0.85907130  0.41574838  0.00560529  1
  Na  Na41  1  0.85920818  0.41582274  0.25531510  1
  Na  Na42  1  0.85954543  0.41760993  0.50630960  1
  Na  Na43  1  0.85909818  0.41731923  0.75684132  1
  Na  Na44  1  0.85995909  0.74829920  0.00679306  1
  Na  Na45  1  0.85987691  0.74929142  0.25564714  1
  Na  Na46  1  0.85980755  0.74970080  0.50677237  1
  Na  Na47  1  0.85960024  0.74920620  0.75749049  1
  Na  Na48  1  0.10955560  0.08239425  0.11968033  1
  Na  Na49  1  0.10989279  0.08293621  0.36964203  1
  Na  Na50  1  0.10974176  0.08282577  0.61851749  1
  Na  Na51  1  0.10954646  0.08275489  0.86899742  1
  Na  Na52  1  0.10964790  0.41753638  0.11897539  1
  Na  Na53  1  0.10927729  0.41677216  0.36861753  1
  Na  Na54  1  0.10948235  0.41690640  0.61954737  1
  Na  Na55  1  0.10943231  0.41783743  0.86845739  1
  Na  Na56  1  0.11015887  0.74878112  0.11804883  1
  Na  Na57  1  0.11019081  0.75041538  0.36845515  1
  Na  Na58  1  0.10894160  0.74910401  0.61864548  1
  Na  Na59  1  0.10967758  0.74941173  0.86959610  1
  Na  Na60  1  0.60964295  0.08500386  0.11778639  1
  Na  Na61  1  0.60956887  0.08499645  0.36788416  1
  Na  Na62  1  0.60971055  0.08308371  0.61946879  1
  Na  Na63  1  0.60980590  0.08395553  0.86792247  1
  Na  Na64  1  0.60990475  0.41703700  0.11740659  1
  Na  Na65  1  0.60989770  0.41686391  0.36789720  1
  Na  Na66  1  0.61009414  0.41666351  0.61873677  1
  Na  Na67  1  0.60964070  0.41565739  0.86747295  1
  Na  Na68  1  0.60974595  0.75087010  0.11813034  1
  Na  Na69  1  0.60985370  0.75029122  0.36952166  1
  Na  Na70  1  0.60929923  0.74994580  0.61956531  1
  Na  Na71  1  0.60933315  0.74933383  0.86937757  1
  Na  Na72  1  0.39066616  0.25069028  0.13147549  1
  Na  Na73  1  0.38978716  0.24988153  0.38112063  1
  Na  Na74  1  0.39075904  0.24872405  0.63122465  1
  Na  Na75  1  0.39040296  0.24979436  0.87952812  1
  Na  Na76  1  0.39063638  0.58503051  0.13110879  1
  Na  Na77  1  0.39075124  0.58482973  0.38111179  1
  Na  Na78  1  0.39038958  0.58304267  0.63092206  1
  Na  Na79  1  0.39042691  0.58262340  0.88210859  1
  Na  Na80  1  0.39024366  0.91751270  0.13214334  1
  Na  Na81  1  0.39089400  0.91622594  0.38127184  1
  Na  Na82  1  0.39058529  0.91696997  0.63104076  1
  Na  Na83  1  0.39012976  0.91620437  0.88186342  1
  Na  Na84  1  0.88940680  0.24971293  0.13148221  1
  Na  Na85  1  0.88982500  0.24926268  0.38124149  1
  Na  Na86  1  0.88996742  0.25130172  0.63204916  1
  Na  Na87  1  0.88979193  0.25014364  0.88177475  1
  Na  Na88  1  0.88998863  0.58268773  0.13000214  1
  Na  Na89  1  0.89037785  0.58383365  0.38116355  1
  Na  Na90  1  0.89022254  0.58267925  0.63168246  1
  Na  Na91  1  0.88988064  0.58355293  0.88185780  1
  Na  Na92  1  0.89033214  0.91506743  0.13135953  1
  Na  Na93  1  0.89062035  0.91656671  0.38102350  1
  Na  Na94  1  0.89074818  0.91683734  0.63107280  1
  Na  Na95  1  0.89041778  0.91630623  0.88198440  1
  Mn  Mn96  1  0.25044802  0.50022917  0.37457171  1
  Mn  Mn97  1  0.24951617  0.50157576  0.12627223  1
  Mn  Mn98  1  0.00062989  -0.00026271  0.25054142  1
  Mn  Mn99  1  0.49939994  0.00026270  0.00028430  1
  Mn  Mn100  1  -0.00067055  0.33294383  0.24971923  1
  Mn  Mn101  1  0.00072050  0.33370343  0.00005446  1
  Mn  Mn102  1  0.75009016  0.00154090  0.62495016  1
  Mn  Mn103  1  0.24954133  0.16590023  0.87501716  1
  Mn  Mn104  1  -0.00006172  0.33382953  0.75054359  1
  Mn  Mn105  1  0.25042140  0.33399063  0.87455616  1
  Mn  Mn106  1  0.50046199  0.50017044  0.24969340  1
  Mn  Mn107  1  0.49921777  0.83354515  0.75030512  1
  Mn  Mn108  1  0.24955673  0.33216107  0.62559049  1
  Mn  Mn109  1  0.00018692  0.66656324  0.50032171  1
  Mn  Mn110  1  0.74973508  0.33399834  0.37419765  1
  Mn  Mn111  1  0.49941000  0.50035291  0.49939372  1
  Mn  Mn112  1  0.25036894  -0.00042560  0.37518191  1
  Mn  Mn113  1  0.74991457  0.00022106  0.12471671  1
  Mn  Mn114  1  0.00033694  0.16609813  0.50087257  1
  Mn  Mn115  1  0.25002751  0.66651746  0.62500521  1
  Mn  Mn116  1  0.25027284  0.49941792  0.62386999  1
  Mn  Mn117  1  0.74973183  0.66536119  0.12514733  1
  Mn  Mn118  1  0.75011448  0.83394860  0.62606718  1
  Mn  Mn119  1  0.49974360  0.49948932  0.00011323  1
  Mn  Mn120  1  0.74937026  0.16872991  0.62604288  1
  Mn  Mn121  1  0.00024987  0.33415950  0.50084755  1
  Mn  Mn122  1  0.75041668  0.00166471  0.37380756  1
  Mn  Mn123  1  0.75036940  0.83358632  0.37515647  1
  Mn  Mn124  1  0.25022761  0.66698814  0.87493385  1
  Mn  Mn125  1  0.00038422  0.83212259  0.25044163  1
  Mn  Mn126  1  0.50029331  0.00014486  0.49969589  1
  Mn  Mn127  1  0.49920208  0.66598745  0.75003622  1
  Mn  Mn128  1  0.50057794  0.00048859  0.25009347  1
  Mn  Mn129  1  0.49970533  0.33263116  0.49958793  1
  Mn  Mn130  1  -0.00005842  0.16650452  0.00041793  1
  Mn  Mn131  1  0.25054567  0.16586856  0.12514431  1
  Mn  Mn132  1  0.49941391  0.16795015  -0.00122143  1
  Mn  Mn133  1  0.00025086  0.83239173  0.75022818  1
  Mn  Mn134  1  0.24923408  0.83362253  0.62484437  1
  Mn  Mn135  1  0.24974651  0.33371984  0.12500423  1
  Mn  Mn136  1  -0.00080501  -0.00091172  0.00009645  1
  Mn  Mn137  1  0.74956197  0.66570486  0.62583308  1
  Mn  Mn138  1  0.50077216  0.66826641  0.25041730  1
  Mn  Mn139  1  0.75012624  0.83289710  0.87501002  1
  Mn  Mn140  1  -0.00025920  0.50096030  0.24930182  1
  Mn  Mn141  1  0.00035205  0.00015778  0.75070572  1
  Mn  Mn142  1  0.24954723  -0.00105577  0.87560007  1
  Mn  Mn143  1  0.74983856  0.66561361  0.37526437  1
  Fe  Fe144  1  0.50045326  0.66698142  0.50041465  1
  Fe  Fe145  1  -0.00014732  0.83284558  0.50002122  1
  Fe  Fe146  1  0.74955572  0.16686587  0.12421851  1
  Fe  Fe147  1  0.50030330  0.83383833  0.00023088  1
  Fe  Fe148  1  0.50015131  0.49943782  0.75009053  1
  Fe  Fe149  1  0.25075314  0.83314336  0.37438166  1
  Fe  Fe150  1  0.00018453  0.66626230  0.24944247  1
  Fe  Fe151  1  0.75024879  0.49986415  0.62548784  1
  Fe  Fe152  1  0.50057632  -0.00035488  0.74996385  1
  Fe  Fe153  1  0.24964903  -0.00069419  0.12584020  1
  Fe  Fe154  1  0.25053318  0.66773882  0.12439472  1
  Fe  Fe155  1  0.50066638  0.83352038  0.50068460  1
  Fe  Fe156  1  0.74979777  0.33352527  0.87517398  1
  Fe  Fe157  1  -0.00015145  0.16613176  0.25072170  1
  Fe  Fe158  1  0.74933522  0.49898861  0.87456249  1
  Fe  Fe159  1  0.24971841  0.16601224  0.37541848  1
  Fe  Fe160  1  0.75017275  0.83264565  0.12428572  1
  Fe  Fe161  1  0.25055029  0.83319655  0.12547860  1
  Fe  Fe162  1  0.74962439  0.33303922  0.12416483  1
  Fe  Fe163  1  0.24986153  0.50067536  0.87532568  1
  Fe  Fe164  1  0.50036696  0.83372701  0.25056662  1
  Fe  Fe165  1  0.25037395  0.83361886  0.87577690  1
  Fe  Fe166  1  0.75027282  0.33431739  0.62496783  1
  Fe  Fe167  1  0.50050354  0.66676963  -0.00016600  1
  Fe  Fe168  1  0.49982547  0.33347435  -0.00114206  1
  Fe  Fe169  1  0.50003060  0.16619188  0.74981901  1
  Fe  Fe170  1  -0.00066062  0.66632349  0.75016184  1
  Fe  Fe171  1  -0.00019026  0.66602621  -0.00049764  1
  Fe  Fe172  1  0.49978358  0.16771872  0.24938871  1
  Fe  Fe173  1  0.25052663  0.16574364  0.62439290  1
  Fe  Fe174  1  0.50055893  0.16661762  0.49995395  1
  Fe  Fe175  1  0.74963306  0.16801750  0.37469577  1
  Fe  Fe176  1  0.75010774  0.49961418  0.37480989  1
  Fe  Fe177  1  0.74964862  0.16740549  0.87518835  1
  Fe  Fe178  1  0.50007310  0.33285225  0.74910346  1
  Fe  Fe179  1  -0.00024658  0.16670682  0.75003182  1
  Fe  Fe180  1  0.24929222  0.33246693  0.37546025  1
  Fe  Fe181  1  0.74988805  0.49904809  0.12376703  1
  Fe  Fe182  1  0.25047157  0.66747977  0.37409059  1
  Fe  Fe183  1  0.49968398  0.33369412  0.24931830  1
  Fe  Fe184  1  -0.00030675  0.50054886  -0.00058733  1
  Fe  Fe185  1  -0.00041273  -0.00014363  0.50032000  1
  Fe  Fe186  1  0.00011270  0.50045252  0.50000198  1
  Fe  Fe187  1  0.00011493  0.83202717  0.00028733  1
  Fe  Fe188  1  -0.00043629  0.50046599  0.75007328  1
  Fe  Fe189  1  0.75013678  0.00004275  0.87591398  1
  Fe  Fe190  1  0.74954832  0.66571049  0.87558032  1
  Fe  Fe191  1  0.25048178  -0.00032799  0.62455646  1
  P  P192  1  0.04278197  0.24971973  0.10393383  1
  P  P193  1  0.04179441  0.24879635  0.35287550  1
  P  P194  1  0.04285193  0.25000735  0.60411254  1
  P  P195  1  0.04238042  0.24890882  0.85250373  1
  P  P196  1  0.04172654  0.58346014  0.10125551  1
  P  P197  1  0.04244837  0.58477964  0.35236333  1
  P  P198  1  0.04225591  0.58187037  0.60313786  1
  P  P199  1  0.04074294  0.58372767  0.85222019  1
  P  P200  1  0.04198044  0.91462702  0.10254705  1
  P  P201  1  0.04293149  0.91620944  0.35422565  1
  P  P202  1  0.04144409  0.91621602  0.60165545  1
  P  P203  1  0.04272682  0.91552939  0.85389347  1
  P  P204  1  0.54183327  0.25203011  0.10219039  1
  P  P205  1  0.54130698  0.25056703  0.35107556  1
  P  P206  1  0.54213832  0.24848884  0.60294584  1
  P  P207  1  0.54120100  0.25014649  0.85102781  1
  P  P208  1  0.54246245  0.58490636  0.10208519  1
  P  P209  1  0.54306777  0.58412908  0.35344543  1
  P  P210  1  0.54184499  0.58385321  0.60283369  1
  P  P211  1  0.54190287  0.58179007  0.85274755  1
  P  P212  1  0.54216084  0.91607497  0.10290644  1
  P  P213  1  0.54272097  0.91576084  0.35298630  1
  P  P214  1  0.54258105  0.91613724  0.60299371  1
  P  P215  1  0.54209038  0.91739944  0.85314945  1
  P  P216  1  0.45776322  0.08499502  0.14777626  1
  P  P217  1  0.45831737  0.08512033  0.39707938  1
  P  P218  1  0.45904140  0.08284274  0.64812692  1
  P  P219  1  0.45732966  0.08334714  0.89574234  1
  P  P220  1  0.45780419  0.41578368  0.14688633  1
  P  P221  1  0.45714936  0.41623843  0.39604804  1
  P  P222  1  0.45868798  0.41658509  0.64812428  1
  P  P223  1  0.45779100  0.41522589  0.89621976  1
  P  P224  1  0.45849586  0.75225503  0.14697846  1
  P  P225  1  0.45930169  0.75084331  0.39860492  1
  P  P226  1  0.45708423  0.74992167  0.64633597  1
  P  P227  1  0.45842639  0.74994631  0.89889181  1
  P  P228  1  0.95762878  0.08393242  0.14802747  1
  P  P229  1  0.95775832  0.08221756  0.39773423  1
  P  P230  1  0.95763456  0.08399738  0.64767974  1
  P  P231  1  0.95697075  0.08345484  0.89674929  1
  P  P232  1  0.95723585  0.41726145  0.14600475  1
  P  P233  1  0.95771699  0.41804413  0.39769103  1
  P  P234  1  0.95760566  0.41838102  0.64772720  1
  P  P235  1  0.95787799  0.41827861  0.89716716  1
  P  P236  1  0.95823913  0.74790462  0.14659004  1
  P  P237  1  0.95768157  0.75064068  0.39747989  1
  P  P238  1  0.95731697  0.74852205  0.64749724  1
  P  P239  1  0.95823495  0.74916107  0.89818515  1
  P  P240  1  0.20788630  0.08174595  0.22825463  1
  P  P241  1  0.20824496  0.08402810  0.47829066  1
  P  P242  1  0.20856410  0.08235459  0.72629216  1
  P  P243  1  0.20689718  0.08238708  0.97900871  1
  P  P244  1  0.20710119  0.41639968  0.22907380  1
  P  P245  1  0.20774881  0.41528740  0.47712161  1
  P  P246  1  0.20748542  0.41713263  0.72851473  1
  P  P247  1  0.20755946  0.41854743  0.97752502  1
  P  P248  1  0.20896562  0.74993483  0.22696391  1
  P  P249  1  0.20883667  0.75033723  0.47603406  1
  P  P250  1  0.20684697  0.74992784  0.72846426  1
  P  P251  1  0.20854692  0.75160394  0.97832815  1
  P  P252  1  0.70760553  0.08531835  0.22706567  1
  P  P253  1  0.70759208  0.08586498  0.47697973  1
  P  P254  1  0.70746299  0.08429335  0.72951690  1
  P  P255  1  0.70828368  0.08394729  0.97684120  1
  P  P256  1  0.70839624  0.41666183  0.22582077  1
  P  P257  1  0.70760000  0.41813079  0.47773814  1
  P  P258  1  0.70850227  0.41673484  0.72723684  1
  P  P259  1  0.70816382  0.41628519  0.97671583  1
  P  P260  1  0.70787632  0.75062560  0.22719893  1
  P  P261  1  0.70738087  0.74975641  0.47860202  1
  P  P262  1  0.70721917  0.74942925  0.72926354  1
  P  P263  1  0.70813180  0.74838633  0.97788116  1
  P  P264  1  0.29303979  0.25029293  0.02193692  1
  P  P265  1  0.29106722  0.24931802  0.27378309  1
  P  P266  1  0.29209023  0.24835543  0.52195382  1
  P  P267  1  0.29248663  0.24886039  0.77127450  1
  P  P268  1  0.29220639  0.58483120  0.02242961  1
  P  P269  1  0.29262930  0.58558214  0.27194881  1
  P  P270  1  0.29285064  0.58400811  0.52073038  1
  P  P271  1  0.29264323  0.58204884  0.77264425  1
  P  P272  1  0.29178569  0.91655008  0.02393175  1
  P  P273  1  0.29252459  0.91521582  0.27192952  1
  P  P274  1  0.29242929  0.91759474  0.52205674  1
  P  P275  1  0.29234469  0.91537222  0.77251595  1
  P  P276  1  0.79085797  0.24976532  0.02230705  1
  P  P277  1  0.79177726  0.24925358  0.27140338  1
  P  P278  1  0.79206152  0.25214588  0.52249316  1
  P  P279  1  0.79116328  0.25117345  0.77352883  1
  P  P280  1  0.79145240  0.58119798  0.02127622  1
  P  P281  1  0.79225607  0.58119277  0.27192995  1
  P  P282  1  0.79208857  0.58159361  0.52269054  1
  P  P283  1  0.79089085  0.58237170  0.77366727  1
  P  P284  1  0.79213705  0.91560892  0.02213155  1
  P  P285  1  0.79296025  0.91669409  0.27102794  1
  P  P286  1  0.79290163  0.91757860  0.52205866  1
  P  P287  1  0.79249907  0.91835907  0.77321716  1
  O  O288  1  0.03736940  0.24919263  0.18388939  1
  O  O289  1  0.03688363  0.24920020  0.43287002  1
  O  O290  1  0.03761619  0.24969480  0.68405795  1
  O  O291  1  0.03741058  0.24930698  0.93251168  1
  O  O292  1  0.03687388  0.58408469  0.18122626  1
  O  O293  1  0.03761963  0.58430090  0.43229583  1
  O  O294  1  0.03674228  0.58206796  0.68298692  1
  O  O295  1  0.03547239  0.58344239  0.93211288  1
  O  O296  1  0.03713498  0.91481303  0.18251859  1
  O  O297  1  0.03744474  0.91619895  0.43410941  1
  O  O298  1  0.03656551  0.91631525  0.68168361  1
  O  O299  1  0.03716583  0.91502486  0.93377197  1
  O  O300  1  0.53647760  0.25176006  0.18206093  1
  O  O301  1  0.53678199  0.24989147  0.43108417  1
  O  O302  1  0.53670976  0.24858351  0.68278990  1
  O  O303  1  0.53629961  0.25124336  0.93096362  1
  O  O304  1  0.53754039  0.58481477  0.18204375  1
  O  O305  1  0.53763698  0.58438393  0.43337342  1
  O  O306  1  0.53638591  0.58282983  0.68277959  1
  O  O307  1  0.53667412  0.58225593  0.93267023  1
  O  O308  1  0.53716261  0.91605771  0.18289695  1
  O  O309  1  0.53736454  0.91580724  0.43293768  1
  O  O310  1  0.53701510  0.91694217  0.68292118  1
  O  O311  1  0.53680674  0.91681070  0.93310772  1
  O  O312  1  0.46234517  0.08477104  0.06778728  1
  O  O313  1  0.46357781  0.08529002  0.31716809  1
  O  O314  1  0.46406340  0.08318013  0.56814465  1
  O  O315  1  0.46291911  0.08283951  0.81586981  1
  O  O316  1  0.46295894  0.41563133  0.06690147  1
  O  O317  1  0.46238185  0.41593695  0.31610776  1
  O  O318  1  0.46323216  0.41636995  0.56810218  1
  O  O319  1  0.46341274  0.41575194  0.81634745  1
  O  O320  1  0.46388121  0.75213052  0.06714726  1
  O  O321  1  0.46450023  0.75139031  0.31863331  1
  O  O322  1  0.46270411  0.74986206  0.56647906  1
  O  O323  1  0.46299221  0.74974421  0.81887604  1
  O  O324  1  0.96249740  0.08358966  0.06805139  1
  O  O325  1  0.96300532  0.08294218  0.31778685  1
  O  O326  1  0.96294842  0.08298138  0.56771522  1
  O  O327  1  0.96220789  0.08399121  0.81679099  1
  O  O328  1  0.96269706  0.41756011  0.06609530  1
  O  O329  1  0.96266891  0.41767372  0.31771628  1
  O  O330  1  0.96290563  0.41836920  0.56780199  1
  O  O331  1  0.96318433  0.41830687  0.81721547  1
  O  O332  1  0.96357923  0.74811615  0.06668409  1
  O  O333  1  0.96275162  0.74996016  0.31755182  1
  O  O334  1  0.96276456  0.74915535  0.56758481  1
  O  O335  1  0.96321425  0.74881522  0.81821435  1
  O  O336  1  0.21206421  0.08195263  0.05894769  1
  O  O337  1  0.21335846  0.08235413  0.30818165  1
  O  O338  1  0.21381289  0.08390096  0.55815213  1
  O  O339  1  0.21328427  0.08216104  0.80633450  1
  O  O340  1  0.21247917  0.41856084  0.05753963  1
  O  O341  1  0.21254335  0.41575831  0.30897493  1
  O  O342  1  0.21266534  0.41536415  0.55712022  1
  O  O343  1  0.21277598  0.41797889  0.80847273  1
  O  O344  1  0.21391053  0.75131021  0.05820745  1
  O  O345  1  0.21420709  0.74970297  0.30686582  1
  O  O346  1  0.21340773  0.75024177  0.55603961  1
  O  O347  1  0.21203877  0.75020164  0.80837797  1
  O  O348  1  0.71352072  0.08419125  0.05683347  1
  O  O349  1  0.71282468  0.08562598  0.30700112  1
  O  O350  1  0.71263819  0.08574931  0.55697628  1
  O  O351  1  0.71276938  0.08399943  0.80940769  1
  O  O352  1  0.71307213  0.41615555  0.05657082  1
  O  O353  1  0.71319999  0.41687679  0.30577556  1
  O  O354  1  0.71291794  0.41782648  0.55757351  1
  O  O355  1  0.71363557  0.41671687  0.80709812  1
  O  O356  1  0.71354236  0.74897865  0.05781801  1
  O  O357  1  0.71307009  0.75039653  0.30716591  1
  O  O358  1  0.71233593  0.74974079  0.55860167  1
  O  O359  1  0.71251963  0.74878456  0.80922365  1
  O  O360  1  0.28639605  0.24953705  0.19379250  1
  O  O361  1  0.28648349  0.24876260  0.44207215  1
  O  O362  1  0.28720132  0.24825486  0.69132943  1
  O  O363  1  0.28788325  0.25023083  0.94198161  1
  O  O364  1  0.28734629  0.58595788  0.19198566  1
  O  O365  1  0.28767946  0.58464981  0.44077367  1
  O  O366  1  0.28782747  0.58227960  0.69264522  1
  O  O367  1  0.28692990  0.58386415  0.94246855  1
  O  O368  1  0.28693019  0.91548034  0.19208952  1
  O  O369  1  0.28747538  0.91703582  0.44213211  1
  O  O370  1  0.28713638  0.91606279  0.69261112  1
  O  O371  1  0.28680259  0.91606854  0.94393892  1
  O  O372  1  0.78658786  0.24901305  0.19154572  1
  O  O373  1  0.78694089  0.25146747  0.44256125  1
  O  O374  1  0.78634305  0.25198370  0.69356230  1
  O  O375  1  0.78590800  0.24987439  0.94241003  1
  O  O376  1  0.78679515  0.58116373  0.19198552  1
  O  O377  1  0.78701615  0.58150591  0.44272639  1
  O  O378  1  0.78611170  0.58223151  0.69367750  1
  O  O379  1  0.78570066  0.58180251  0.94146500  1
  O  O380  1  0.78765121  0.91603452  0.19105278  1
  O  O381  1  0.78787008  0.91760337  0.44207238  1
  O  O382  1  0.78738440  0.91823990  0.69324216  1
  O  O383  1  0.78674315  0.91641299  0.94219478  1
  O  O384  1  0.22861133  0.24971778  0.05698685  1
  O  O385  1  0.22685701  0.24875936  0.30955186  1
  O  O386  1  0.22798042  0.24782898  0.55814074  1
  O  O387  1  0.22822247  0.24969497  0.80675484  1
  O  O388  1  0.22793882  0.58557761  0.05816329  1
  O  O389  1  0.22836582  0.58516026  0.30757435  1
  O  O390  1  0.22846108  0.58340056  0.55599323  1
  O  O391  1  0.22819194  0.58224354  0.80786331  1
  O  O392  1  0.22765918  0.91663371  0.06005101  1
  O  O393  1  0.22844415  0.91498473  0.30818256  1
  O  O394  1  0.22805564  0.91834357  0.55756488  1
  O  O395  1  0.22802934  0.91449013  0.80824841  1
  O  O396  1  0.72679629  0.24946924  0.05853323  1
  O  O397  1  0.72757777  0.24949128  0.30746889  1
  O  O398  1  0.72775971  0.25285406  0.55819603  1
  O  O399  1  0.72697038  0.25045664  0.80934973  1
  O  O400  1  0.72745614  0.58105768  0.05777422  1
  O  O401  1  0.72802971  0.58104449  0.30786024  1
  O  O402  1  0.72779935  0.58131417  0.55836892  1
  O  O403  1  0.72668075  0.58223411  0.80946593  1
  O  O404  1  0.72795392  0.91545730  0.05800094  1
  O  O405  1  0.72866859  0.91713276  0.30644477  1
  O  O406  1  0.72844695  0.91746299  0.55711574  1
  O  O407  1  0.72816095  0.91807017  0.80864338  1
  O  O408  1  0.27210440  0.08107290  0.19234301  1
  O  O409  1  0.27233043  0.08440787  0.44203458  1
  O  O410  1  0.27282374  0.08208286  0.69053294  1
  O  O411  1  0.27125754  0.08261557  0.94374237  1
  O  O412  1  0.27138949  0.41719063  0.19358332  1
  O  O413  1  0.27207791  0.41548120  0.44180394  1
  O  O414  1  0.27179457  0.41640030  0.69311904  1
  O  O415  1  0.27194780  0.41867355  0.94214093  1
  O  O416  1  0.27305950  0.75005258  0.19063902  1
  O  O417  1  0.27314058  0.75053915  0.44042943  1
  O  O418  1  0.27123899  0.75020625  0.69325133  1
  O  O419  1  0.27264626  0.75160354  0.94208792  1
  O  O420  1  0.77185784  0.08512401  0.19132974  1
  O  O421  1  0.77195767  0.08617963  0.44151681  1
  O  O422  1  0.77166488  0.08482732  0.69372101  1
  O  O423  1  0.77235408  0.08406450  0.94068877  1
  O  O424  1  0.77250142  0.41686076  0.18975203  1
  O  O425  1  0.77178629  0.41803805  0.44153884  1
  O  O426  1  0.77256809  0.41678713  0.69074909  1
  O  O427  1  0.77226150  0.41675306  0.94052819  1
  O  O428  1  0.77214876  0.75022828  0.19162146  1
  O  O429  1  0.77178592  0.74948871  0.44348822  1
  O  O430  1  0.77155547  0.74949407  0.69394775  1
  O  O431  1  0.77226733  0.74815499  0.94193349  1
  O  O432  1  0.02201328  0.08452230  0.18339796  1
  O  O433  1  0.02200828  0.08151022  0.43348084  1
  O  O434  1  0.02194521  0.08492467  0.68341791  1
  O  O435  1  0.02131508  0.08286335  0.93196523  1
  O  O436  1  0.02140651  0.41684400  0.18171504  1
  O  O437  1  0.02207163  0.41837511  0.43321772  1
  O  O438  1  0.02182984  0.41823997  0.68348569  1
  O  O439  1  0.02212763  0.41850721  0.93291926  1
  O  O440  1  0.02240769  0.74770487  0.18269829  1
  O  O441  1  0.02200423  0.75110323  0.43310894  1
  O  O442  1  0.02159053  0.74768117  0.68327154  1
  O  O443  1  0.02238874  0.74933737  0.93424727  1
  O  O444  1  0.52220633  0.08500513  0.18281503  1
  O  O445  1  0.52252776  0.08491185  0.43297754  1
  O  O446  1  0.52311127  0.08279686  0.68431913  1
  O  O447  1  0.52147052  0.08358432  0.93166939  1
  O  O448  1  0.52213254  0.41551902  0.18249113  1
  O  O449  1  0.52143612  0.41646886  0.43145931  1
  O  O450  1  0.52293090  0.41725604  0.68372485  1
  O  O451  1  0.52191946  0.41516554  0.93250656  1
  O  O452  1  0.52265199  0.75272921  0.18317936  1
  O  O453  1  0.52331118  0.75087582  0.43495616  1
  O  O454  1  0.52119577  0.74991303  0.68230485  1
  O  O455  1  0.52273664  0.74993159  0.93440943  1
  O  O456  1  0.47763185  0.25245701  0.06612728  1
  O  O457  1  0.47702041  0.25108731  0.31541398  1
  O  O458  1  0.47801207  0.24804378  0.56670261  1
  O  O459  1  0.47718292  0.24922577  0.81493195  1
  O  O460  1  0.47813469  0.58486726  0.06661752  1
  O  O461  1  0.47882708  0.58399026  0.31789085  1
  O  O462  1  0.47771777  0.58474103  0.56680848  1
  O  O463  1  0.47764979  0.58107497  0.81701385  1
  O  O464  1  0.47780897  0.91576096  0.06744733  1
  O  O465  1  0.47849620  0.91578882  0.31707095  1
  O  O466  1  0.47845194  0.91561128  0.56687189  1
  O  O467  1  0.47785747  0.91819137  0.81736417  1
  O  O468  1  0.97842350  0.25027725  0.06865450  1
  O  O469  1  0.97748083  0.24832186  0.31731932  1
  O  O470  1  0.97852417  0.25021295  0.56882620  1
  O  O471  1  0.97797033  0.24867430  0.81716436  1
  O  O472  1  0.97746159  0.58325959  0.06544007  1
  O  O473  1  0.97803337  0.58512408  0.31695862  1
  O  O474  1  0.97808520  0.58193317  0.56700212  1
  O  O475  1  0.97672491  0.58402598  0.81574103  1
  O  O476  1  0.97765400  0.91413740  0.06707955  1
  O  O477  1  0.97875860  0.91611148  0.31839491  1
  O  O478  1  0.97727578  0.91588328  0.56576304  1
  O  O479  1  0.97849316  0.91599681  0.81831582  1
  O  O480  1  0.07402853  0.31330389  0.07592447  1
  O  O481  1  0.07262966  0.31256989  0.32504264  1
  O  O482  1  0.07389449  0.31366192  0.57607592  1
  O  O483  1  0.07336850  0.31272978  0.82498247  1
  O  O484  1  0.07273013  0.64680989  0.07245912  1
  O  O485  1  0.07299412  0.64845940  0.32369850  1
  O  O486  1  0.07372010  0.64535500  0.57510650  1
  O  O487  1  0.07191449  0.64731891  0.82404360  1
  O  O488  1  0.07268403  0.97858560  0.07496892  1
  O  O489  1  0.07415876  0.97962291  0.32578579  1
  O  O490  1  0.07190933  0.98021138  0.57366623  1
  O  O491  1  0.07401477  0.97913334  0.82605524  1
  O  O492  1  0.57306264  0.31517139  0.07324402  1
  O  O493  1  0.57235824  0.31429162  0.32316693  1
  O  O494  1  0.57298188  0.31233509  0.57488181  1
  O  O495  1  0.57163543  0.31384963  0.82198127  1
  O  O496  1  0.57309859  0.64849294  0.07353527  1
  O  O497  1  0.57441476  0.64741288  0.32521970  1
  O  O498  1  0.57289293  0.64757942  0.57502938  1
  O  O499  1  0.57278230  0.64551031  0.82479806  1
  O  O500  1  0.57288493  0.98009318  0.07519864  1
  O  O501  1  0.57369106  0.97965235  0.32529884  1
  O  O502  1  0.57381188  0.97953489  0.57466523  1
  O  O503  1  0.57322700  0.98082647  0.82478725  1
  O  O504  1  0.42673694  0.02140893  0.17582994  1
  O  O505  1  0.42717917  0.02123462  0.42453001  1
  O  O506  1  0.42833534  0.01890839  0.67604792  1
  O  O507  1  0.42592810  0.02023705  0.92470201  1
  O  O508  1  0.42651511  0.35273887  0.17580481  1
  O  O509  1  0.42596807  0.35302399  0.42478548  1
  O  O510  1  0.42860889  0.35232540  0.67624398  1
  O  O511  1  0.42684196  0.35165194  0.92447093  1
  O  O512  1  0.42768520  0.68835946  0.17501745  1
  O  O513  1  0.42874136  0.68667687  0.42615945  1
  O  O514  1  0.42570369  0.68662879  0.67487698  1
  O  O515  1  0.42783609  0.68609680  0.92710880  1
  O  O516  1  0.92697324  0.01998401  0.17570503  1
  O  O517  1  0.92687613  0.01860855  0.42605162  1
  O  O518  1  0.92674765  0.02043116  0.67602504  1
  O  O519  1  0.92581875  0.01985958  0.92477364  1
  O  O520  1  0.92585018  0.35382099  0.17398870  1
  O  O521  1  0.92680102  0.35428686  0.42557016  1
  O  O522  1  0.92641895  0.35467682  0.67552972  1
  O  O523  1  0.92706591  0.35428695  0.92476302  1
  O  O524  1  0.92734544  0.68441318  0.17535012  1
  O  O525  1  0.92649660  0.68719304  0.42572727  1
  O  O526  1  0.92623706  0.68505391  0.67585630  1
  O  O527  1  0.92718828  0.68564927  0.92651249  1
  O  O528  1  0.17687082  0.01807102  0.20028012  1
  O  O529  1  0.17713568  0.02037972  0.45030670  1
  O  O530  1  0.17768465  0.01865007  0.69810002  1
  O  O531  1  0.17575620  0.01908657  0.95036579  1
  O  O532  1  0.17608617  0.35310953  0.20031009  1
  O  O533  1  0.17723699  0.35142462  0.44889869  1
  O  O534  1  0.17615311  0.35340155  0.70113237  1
  O  O535  1  0.17660589  0.35473264  0.94986474  1
  O  O536  1  0.17800433  0.68648014  0.19809497  1
  O  O537  1  0.17814017  0.68657574  0.44776710  1
  O  O538  1  0.17623488  0.68609137  0.70021972  1
  O  O539  1  0.17714829  0.68814350  0.95019724  1
  O  O540  1  0.67652766  0.02141002  0.19962717  1
  O  O541  1  0.67670673  0.02209502  0.44908633  1
  O  O542  1  0.67647758  0.02090648  0.70067335  1
  O  O543  1  0.67773088  0.01977518  0.94920315  1
  O  O544  1  0.67822414  0.35248990  0.19754116  1
  O  O545  1  0.67624361  0.35473140  0.44925437  1
  O  O546  1  0.67765685  0.35311694  0.69867136  1
  O  O547  1  0.67770249  0.35244429  0.94790701  1
  O  O548  1  0.67632104  0.68708053  0.19971265  1
  O  O549  1  0.67632746  0.68624386  0.45040544  1
  O  O550  1  0.67573177  0.68635038  0.70065473  1
  O  O551  1  0.67734456  0.68462226  0.94979505  1
  O  O552  1  0.32359886  0.31409929  0.05008384  1
  O  O553  1  0.32130171  0.31338340  0.30206086  1
  O  O554  1  0.32319505  0.31198504  0.55018199  1
  O  O555  1  0.32388736  0.31245842  0.79883449  1
  O  O556  1  0.32321948  0.64856260  0.05026431  1
  O  O557  1  0.32351900  0.64893439  0.30077278  1
  O  O558  1  0.32377563  0.64727149  0.54965773  1
  O  O559  1  0.32382829  0.64567836  0.80052292  1
  O  O560  1  0.32240934  0.98053070  0.05185245  1
  O  O561  1  0.32389860  0.97866059  0.30005146  1
  O  O562  1  0.32336502  0.98116430  0.55048092  1
  O  O563  1  0.32311890  0.97902858  0.80086610  1
  O  O564  1  0.82128295  0.31370268  0.05098504  1
  O  O565  1  0.82312826  0.31286579  0.29928393  1
  O  O566  1  0.82301583  0.31573635  0.55076103  1
  O  O567  1  0.82184158  0.31478969  0.80232812  1
  O  O568  1  0.82284651  0.64454856  0.04967593  1
  O  O569  1  0.82303846  0.64517253  0.29968912  1
  O  O570  1  0.82289837  0.64552904  0.55047637  1
  O  O571  1  0.82134310  0.64636901  0.80194803  1
  O  O572  1  0.82365807  0.97892219  0.05020136  1
  O  O573  1  0.82394387  0.98055750  0.29869355  1
  O  O574  1  0.82375965  0.98127432  0.55005301  1
  O  O575  1  0.82300414  0.98197062  0.80186225  1
  O  O576  1  0.42723309  0.14863377  0.17631835  1
  O  O577  1  0.42762375  0.14836117  0.42619975  1
  O  O578  1  0.42803272  0.14632321  0.67645208  1
  O  O579  1  0.42615053  0.14689876  0.92372908  1
  O  O580  1  0.42719754  0.47987452  0.17438710  1
  O  O581  1  0.42605685  0.47983699  0.42392440  1
  O  O582  1  0.42739740  0.47992255  0.67620691  1
  O  O583  1  0.42654760  0.47855351  0.92478724  1
  O  O584  1  0.42727639  0.81528065  0.17610761  1
  O  O585  1  0.42812931  0.81419296  0.42695868  1
  O  O586  1  0.42585342  0.81329372  0.67475403  1
  O  O587  1  0.42785897  0.81380084  0.92684408  1
  O  O588  1  0.92682029  0.14741038  0.17647173  1
  O  O589  1  0.92677334  0.14574100  0.42598262  1
  O  O590  1  0.92670227  0.14771904  0.67555060  1
  O  O591  1  0.92588078  0.14670602  0.92530334  1
  O  O592  1  0.92624062  0.48067386  0.17429582  1
  O  O593  1  0.92719100  0.48171150  0.42603544  1
  O  O594  1  0.92674353  0.48165044  0.67659398  1
  O  O595  1  0.92681555  0.48150740  0.92575379  1
  O  O596  1  0.92707329  0.81138690  0.17472717  1
  O  O597  1  0.92698907  0.81423199  0.42597516  1
  O  O598  1  0.92649792  0.81214915  0.67566997  1
  O  O599  1  0.92756727  0.81296944  0.92629409  1
  O  O600  1  0.07397020  0.18649697  0.07547179  1
  O  O601  1  0.07252934  0.18512639  0.32476910  1
  O  O602  1  0.07409946  0.18679716  0.57567577  1
  O  O603  1  0.07307396  0.18534473  0.82415025  1
  O  O604  1  0.07232388  0.51953907  0.07333963  1
  O  O605  1  0.07346905  0.52133982  0.32402787  1
  O  O606  1  0.07295647  0.51849225  0.57404695  1
  O  O607  1  0.07147064  0.52009082  0.82365396  1
  O  O608  1  0.07287728  0.85119025  0.07413979  1
  O  O609  1  0.07419343  0.85295910  0.32563254  1
  O  O610  1  0.07235249  0.85248131  0.57380589  1
  O  O611  1  0.07381132  0.85232211  0.82523558  1
  O  O612  1  0.57257314  0.18824219  0.07393511  1
  O  O613  1  0.57168870  0.18692255  0.32203051  1
  O  O614  1  0.57321337  0.18525362  0.57408786  1
  O  O615  1  0.57252581  0.18648210  0.82373983  1
  O  O616  1  0.57342619  0.52119603  0.07442402  1
  O  O617  1  0.57402254  0.52054417  0.32524622  1
  O  O618  1  0.57280626  0.52037231  0.57451150  1
  O  O619  1  0.57292418  0.51836424  0.82431846  1
  O  O620  1  0.57327120  0.85302838  0.07385401  1
  O  O621  1  0.57369676  0.85250740  0.32437500  1
  O  O622  1  0.57347428  0.85243996  0.57518328  1
  O  O623  1  0.57290410  0.85369144  0.82513905  1
  O  O624  1  0.32438978  0.18702268  0.05011889  1
  O  O625  1  0.32216419  0.18572154  0.30162883  1
  O  O626  1  0.32323310  0.18502366  0.55052278  1
  O  O627  1  0.32330864  0.18546057  0.79980173  1
  O  O628  1  0.32319482  0.52146625  0.05098028  1
  O  O629  1  0.32382527  0.52179977  0.29927653  1
  O  O630  1  0.32396637  0.52028325  0.54835082  1
  O  O631  1  0.32309256  0.51854430  0.80141787  1
  O  O632  1  0.32280863  0.85316797  0.05239787  1
  O  O633  1  0.32339003  0.85176995  0.30058183  1
  O  O634  1  0.32317007  0.85405275  0.55037151  1
  O  O635  1  0.32331793  0.85194683  0.80102692  1
  O  O636  1  0.82224168  0.18648479  0.05069436  1
  O  O637  1  0.82247256  0.18602361  0.30081556  1
  O  O638  1  0.82299655  0.18873045  0.55104213  1
  O  O639  1  0.82221809  0.18754153  0.80138278  1
  O  O640  1  0.82233326  0.51763601  0.04952356  1
  O  O641  1  0.82329638  0.51800113  0.30061018  1
  O  O642  1  0.82313891  0.51851984  0.55174002  1
  O  O643  1  0.82200617  0.51898415  0.80194279  1
  O  O644  1  0.82254731  0.85162794  0.05012344  1
  O  O645  1  0.82425110  0.85357964  0.29967758  1
  O  O646  1  0.82383672  0.85412126  0.55037949  1
  O  O647  1  0.82377768  0.85468269  0.80064600  1
  O  O648  1  0.17697338  0.14528756  0.20015058  1
  O  O649  1  0.17703549  0.14724568  0.44955082  1
  O  O650  1  0.17812334  0.14624407  0.69836979  1
  O  O651  1  0.17589474  0.14594732  0.95083398  1
  O  O652  1  0.17584607  0.48007085  0.20152975  1
  O  O653  1  0.17649124  0.47874422  0.44931846  1
  O  O654  1  0.17648936  0.48026504  0.69951983  1
  O  O655  1  0.17696538  0.48213863  0.94901190  1
  O  O656  1  0.17797625  0.81357421  0.19883377  1
  O  O657  1  0.17820703  0.81412475  0.44797999  1
  O  O658  1  0.17535161  0.81292934  0.69982940  1
  O  O659  1  0.17784868  0.81512600  0.94974688  1
  O  O660  1  0.67666126  0.14843717  0.19797771  1
  O  O661  1  0.67684679  0.14940662  0.44858247  1
  O  O662  1  0.67613756  0.14764164  0.70125006  1
  O  O663  1  0.67705369  0.14731160  0.94860282  1
  O  O664  1  0.67706504  0.47986852  0.19739304  1
  O  O665  1  0.67693193  0.48154240  0.44875299  1
  O  O666  1  0.67760803  0.48030831  0.69885544  1
  O  O667  1  0.67678472  0.47951092  0.94821831  1
  O  O668  1  0.67764288  0.81436071  0.19849800  1
  O  O669  1  0.67655495  0.81330872  0.45047074  1
  O  O670  1  0.67650260  0.81338218  0.70170329  1
  O  O671  1  0.67679370  0.81177794  0.94996153  1
