# generated using pymatgen
data_Na2MnFe(PO4)2
_symmetry_space_group_name_H-M   'P 1'
_cell_length_a   22.34221810
_cell_length_b   20.09339520
_cell_length_c   19.45008190
_cell_angle_alpha   90.05713295
_cell_angle_beta   89.92820577
_cell_angle_gamma   89.98785370
_symmetry_Int_Tables_number   1
_chemical_formula_structural   Na2MnFe(PO4)2
_chemical_formula_sum   'Na96 Mn48 Fe48 P96 O384'
_cell_volume   8731.73366972
_cell_formula_units_Z   48
loop_
 _symmetry_equiv_pos_site_id
 _symmetry_equiv_pos_as_xyz
  1  'x, y, z'
loop_
 _atom_site_type_symbol
 _atom_site_label
 _atom_site_symmetry_multiplicity
 _atom_site_fract_x
 _atom_site_fract_y
 _atom_site_fract_z
 _atom_site_occupancy
  Na  Na0  1  0.14056389  0.24930930  0.24463404  1
  Na  Na1  1  0.14104591  0.24995262  0.49232166  1
  Na  Na2  1  0.14058929  0.24910035  0.74371482  1
  Na  Na3  1  0.14054776  0.24895437  0.99468755  1
  Na  Na4  1  0.13990617  0.58277141  0.24378439  1
  Na  Na5  1  0.13953054  0.58330981  0.49251185  1
  Na  Na6  1  0.14030059  0.58252865  0.74286433  1
  Na  Na7  1  0.14042164  0.58320604  0.99501086  1
  Na  Na8  1  0.13985794  0.91642142  0.24306555  1
  Na  Na9  1  0.14040348  0.91829260  0.49261308  1
  Na  Na10  1  0.14025199  0.91610347  0.74467746  1
  Na  Na11  1  0.13991176  0.91673463  0.99389930  1
  Na  Na12  1  0.64125391  0.24874100  0.24445305  1
  Na  Na13  1  0.64116888  0.24992364  0.49276330  1
  Na  Na14  1  0.64103498  0.24900437  0.74304360  1
  Na  Na15  1  0.64127070  0.24997830  0.99483286  1
  Na  Na16  1  0.64076549  0.58198843  0.24344601  1
  Na  Na17  1  0.64089825  0.58304472  0.49419714  1
  Na  Na18  1  0.64074659  0.58335993  0.74399355  1
  Na  Na19  1  0.64054104  0.58381147  0.99349097  1
  Na  Na20  1  0.64075937  0.91707976  0.24423504  1
  Na  Na21  1  0.64049157  0.91798561  0.49256322  1
  Na  Na22  1  0.64107343  0.91656074  0.74311030  1
  Na  Na23  1  0.64108184  0.91797791  0.99324059  1
  Na  Na24  1  0.35991992  0.08285200  0.00550605  1
  Na  Na25  1  0.35963461  0.08395130  0.25652592  1
  Na  Na26  1  0.35972118  0.08448908  0.50613959  1
  Na  Na27  1  0.35967877  0.08315617  0.75641376  1
  Na  Na28  1  0.35946387  0.41713116  0.00595923  1
  Na  Na29  1  0.35914868  0.41637293  0.25667479  1
  Na  Na30  1  0.35941377  0.41743539  0.50588252  1
  Na  Na31  1  0.35954001  0.41690595  0.75554812  1
  Na  Na32  1  0.35891669  0.75060336  0.00632383  1
  Na  Na33  1  0.35919824  0.74961471  0.25596521  1
  Na  Na34  1  0.35902055  0.75133082  0.50618060  1
  Na  Na35  1  0.35877778  0.75040389  0.75517291  1
  Na  Na36  1  0.85933195  0.08404344  0.00810037  1
  Na  Na37  1  0.85991280  0.08280984  0.25803700  1
  Na  Na38  1  0.86024840  0.08300894  0.50594302  1
  Na  Na39  1  0.85960144  0.08198883  0.75514237  1
  Na  Na40  1  0.85926367  0.41680248  0.00742585  1
  Na  Na41  1  0.85903039  0.41569765  0.25794678  1
  Na  Na42  1  0.85936340  0.41699799  0.50640099  1
  Na  Na43  1  0.85963320  0.41712639  0.75617212  1
  Na  Na44  1  0.85943772  0.75145099  0.00697832  1
  Na  Na45  1  0.85940170  0.74940762  0.25719123  1
  Na  Na46  1  0.85924050  0.74990774  0.50608772  1
  Na  Na47  1  0.85917558  0.74964649  0.75586274  1
  Na  Na48  1  0.10983090  0.08167780  0.11970599  1
  Na  Na49  1  0.11011565  0.08207874  0.36797665  1
  Na  Na50  1  0.11024137  0.08263734  0.61779157  1
  Na  Na51  1  0.10954412  0.08180661  0.86964422  1
  Na  Na52  1  0.10956869  0.41721628  0.12000960  1
  Na  Na53  1  0.10966807  0.41716129  0.36791927  1
  Na  Na54  1  0.10947362  0.41621053  0.61719135  1
  Na  Na55  1  0.10966899  0.41571029  0.86911646  1
  Na  Na56  1  0.10917914  0.75039545  0.11924862  1
  Na  Na57  1  0.10851603  0.74932097  0.36792960  1
  Na  Na58  1  0.10948234  0.74947018  0.61767489  1
  Na  Na59  1  0.10981009  0.75079416  0.86949876  1
  Na  Na60  1  0.61092754  0.08412922  0.11905897  1
  Na  Na61  1  0.61077736  0.08301247  0.36856538  1
  Na  Na62  1  0.61050943  0.08417292  0.61756868  1
  Na  Na63  1  0.61057984  0.08341632  0.86863739  1
  Na  Na64  1  0.61014544  0.41615783  0.11940907  1
  Na  Na65  1  0.61062848  0.41532142  0.36852418  1
  Na  Na66  1  0.61023351  0.41768043  0.61870430  1
  Na  Na67  1  0.60972323  0.41653195  0.86908646  1
  Na  Na68  1  0.60981696  0.74963245  0.11749933  1
  Na  Na69  1  0.60971449  0.75100286  0.36908618  1
  Na  Na70  1  0.60959285  0.75071370  0.61837370  1
  Na  Na71  1  0.61014451  0.74938445  0.86824715  1
  Na  Na72  1  0.39031847  0.25006176  0.13094230  1
  Na  Na73  1  0.39001928  0.24919861  0.38195720  1
  Na  Na74  1  0.39027581  0.25202083  0.63059857  1
  Na  Na75  1  0.39067778  0.25025107  0.88014600  1
  Na  Na76  1  0.38957081  0.58282027  0.13104398  1
  Na  Na77  1  0.38988783  0.58311936  0.38106721  1
  Na  Na78  1  0.39006952  0.58387764  0.63048159  1
  Na  Na79  1  0.39010818  0.58295399  0.88073463  1
  Na  Na80  1  0.39033854  0.91865686  0.13050247  1
  Na  Na81  1  0.39020812  0.91775712  0.38137494  1
  Na  Na82  1  0.39011240  0.91858781  0.63072163  1
  Na  Na83  1  0.38989488  0.91693889  0.88112499  1
  Na  Na84  1  0.88989218  0.24957177  0.13348616  1
  Na  Na85  1  0.89021229  0.24882788  0.38242932  1
  Na  Na86  1  0.89038931  0.24855242  0.63019475  1
  Na  Na87  1  0.88986863  0.24852064  0.88197603  1
  Na  Na88  1  0.89020087  0.58449342  0.13245554  1
  Na  Na89  1  0.88994688  0.58280559  0.38197015  1
  Na  Na90  1  0.88944331  0.58329671  0.63110463  1
  Na  Na91  1  0.89002725  0.58470535  0.88146577  1
  Na  Na92  1  0.89036220  0.91705706  0.13267573  1
  Na  Na93  1  0.88994288  0.91666951  0.38166552  1
  Na  Na94  1  0.89013373  0.91703189  0.62993596  1
  Na  Na95  1  0.88969102  0.91613868  0.88241329  1
  Mn  Mn96  1  0.24916395  0.66637915  0.37481030  1
  Mn  Mn97  1  0.00056062  0.16536411  0.00140345  1
  Mn  Mn98  1  0.25069106  0.16569699  0.12461242  1
  Mn  Mn99  1  -0.00031117  0.33324816  0.25124401  1
  Mn  Mn100  1  -0.00021676  0.83311990  0.49911874  1
  Mn  Mn101  1  0.24988172  0.49901240  0.87421190  1
  Mn  Mn102  1  0.50023903  0.66768050  0.50022596  1
  Mn  Mn103  1  0.74956748  0.66619258  0.37550168  1
  Mn  Mn104  1  0.25037712  0.33349211  0.12510219  1
  Mn  Mn105  1  0.50073056  0.16625083  -0.00000562  1
  Mn  Mn106  1  -0.00027867  0.83356095  0.74949354  1
  Mn  Mn107  1  0.25003748  0.66692238  0.87494569  1
  Mn  Mn108  1  -0.00018524  0.49982777  0.74979727  1
  Mn  Mn109  1  0.49945553  0.66571604  -0.00100432  1
  Mn  Mn110  1  0.24941951  0.83407273  0.62491588  1
  Mn  Mn111  1  0.74995025  0.83348956  0.62495016  1
  Mn  Mn112  1  0.24998655  0.16616619  0.87433973  1
  Mn  Mn113  1  0.49999869  0.83424363  0.24926627  1
  Mn  Mn114  1  0.50096318  0.00103758  0.25035213  1
  Mn  Mn115  1  -0.00028140  0.50037284  0.00039186  1
  Mn  Mn116  1  0.00000926  0.33236385  0.74953886  1
  Mn  Mn117  1  0.75031358  0.00042660  0.87475653  1
  Mn  Mn118  1  0.00056661  0.66788620  0.00120873  1
  Mn  Mn119  1  0.50064602  0.33371977  0.00009178  1
  Mn  Mn120  1  0.49992527  0.49948515  0.25031849  1
  Mn  Mn121  1  -0.00044057  0.33307389  0.00131802  1
  Mn  Mn122  1  0.25036623  0.16717519  0.62496648  1
  Mn  Mn123  1  -0.00015818  0.16552388  0.75054422  1
  Mn  Mn124  1  0.24918681  0.83436781  0.37519726  1
  Mn  Mn125  1  0.00004475  0.33283432  0.49965302  1
  Mn  Mn126  1  0.75014078  0.33251601  0.87522601  1
  Mn  Mn127  1  0.50052490  0.33404654  0.75049453  1
  Mn  Mn128  1  -0.00000557  0.66683429  0.74994235  1
  Mn  Mn129  1  0.74975572  0.83372970  0.12525926  1
  Mn  Mn130  1  0.75031479  0.33267010  0.62507798  1
  Mn  Mn131  1  0.50002792  0.83428037  0.74951351  1
  Mn  Mn132  1  0.50118904  0.00111831  0.74940811  1
  Mn  Mn133  1  0.49962896  0.33215848  0.24935654  1
  Mn  Mn134  1  0.50077922  0.49951634  0.49994679  1
  Mn  Mn135  1  0.49993731  0.83412371  -0.00075729  1
  Mn  Mn136  1  0.25035621  0.83396701  0.12545576  1
  Mn  Mn137  1  0.75010741  0.50105560  0.87619319  1
  Mn  Mn138  1  0.50005290  0.66693950  0.24984902  1
  Mn  Mn139  1  0.24929163  0.49997572  0.62458852  1
  Mn  Mn140  1  0.49920771  0.66646098  0.74924745  1
  Mn  Mn141  1  -0.00024032  -0.00048762  0.75017636  1
  Mn  Mn142  1  0.50066043  0.16721945  0.50015444  1
  Mn  Mn143  1  0.75017871  0.49979844  0.12537282  1
  Fe  Fe144  1  0.50047572  0.33333820  0.50018632  1
  Fe  Fe145  1  0.25058199  0.00066353  0.37468037  1
  Fe  Fe146  1  0.24983064  -0.00046421  0.87512829  1
  Fe  Fe147  1  0.50043754  0.16727109  0.74949778  1
  Fe  Fe148  1  0.25000235  0.00024439  0.62515151  1
  Fe  Fe149  1  0.75012186  0.83333160  0.87456432  1
  Fe  Fe150  1  -0.00057320  0.50019342  0.49916265  1
  Fe  Fe151  1  0.75043762  0.00031252  0.12530802  1
  Fe  Fe152  1  -0.00109606  0.66626339  0.49891415  1
  Fe  Fe153  1  0.00051963  -0.00038571  0.49923302  1
  Fe  Fe154  1  0.24944106  0.49968912  0.12526714  1
  Fe  Fe155  1  0.75021984  -0.00002872  0.62411867  1
  Fe  Fe156  1  -0.00046627  0.66680472  0.25023847  1
  Fe  Fe157  1  0.50025144  0.16646291  0.25025877  1
  Fe  Fe158  1  0.49973293  0.49980758  -0.00010375  1
  Fe  Fe159  1  0.75049520  0.16605984  0.37458699  1
  Fe  Fe160  1  0.75047198  0.00038846  0.37499070  1
  Fe  Fe161  1  0.74961705  0.83344417  0.37525754  1
  Fe  Fe162  1  0.49991277  0.00107792  0.49990083  1
  Fe  Fe163  1  0.50009541  0.50007424  0.74960404  1
  Fe  Fe164  1  0.75001511  0.50000271  0.62531920  1
  Fe  Fe165  1  0.24962152  0.66655282  0.12502446  1
  Fe  Fe166  1  0.75059155  0.16572720  0.62403331  1
  Fe  Fe167  1  0.74934710  0.66678482  0.62520555  1
  Fe  Fe168  1  -0.00040134  0.83368697  0.00099431  1
  Fe  Fe169  1  -0.00085447  0.50051772  0.25039711  1
  Fe  Fe170  1  0.25034877  0.50034259  0.37494098  1
  Fe  Fe171  1  0.24986844  0.33292985  0.87505651  1
  Fe  Fe172  1  0.24956325  0.83350611  0.87523223  1
  Fe  Fe173  1  0.75036267  0.16634384  0.87525328  1
  Fe  Fe174  1  0.75022936  0.33294157  0.12616725  1
  Fe  Fe175  1  0.75049120  0.66735094  0.87483752  1
  Fe  Fe176  1  0.25003788  0.16690435  0.37501017  1
  Fe  Fe177  1  0.49944492  0.83438068  0.49945719  1
  Fe  Fe178  1  0.24984093  0.33395479  0.37444081  1
  Fe  Fe179  1  0.24992934  -0.00003115  0.12482315  1
  Fe  Fe180  1  0.74992203  0.66731881  0.12506078  1
  Fe  Fe181  1  0.24962388  0.33369327  0.62390847  1
  Fe  Fe182  1  0.75072884  0.33262297  0.37594306  1
  Fe  Fe183  1  0.00079879  0.16566760  0.49972677  1
  Fe  Fe184  1  -0.00044705  0.83348609  0.25032805  1
  Fe  Fe185  1  -0.00065665  -0.00064616  0.00123825  1
  Fe  Fe186  1  0.75089205  0.16681489  0.12593440  1
  Fe  Fe187  1  0.00012902  -0.00045079  0.25034320  1
  Fe  Fe188  1  0.74993315  0.49961178  0.37519745  1
  Fe  Fe189  1  0.24929955  0.66687471  0.62468541  1
  Fe  Fe190  1  0.50036101  0.00076696  -0.00034283  1
  Fe  Fe191  1  0.00031725  0.16578185  0.25088628  1
  P  P192  1  0.04266778  0.24927425  0.10484278  1
  P  P193  1  0.04197225  0.24781528  0.35336586  1
  P  P194  1  0.04269793  0.24818430  0.60182677  1
  P  P195  1  0.04283795  0.24916959  0.85366464  1
  P  P196  1  0.04227582  0.58372034  0.10473131  1
  P  P197  1  0.04061970  0.58352102  0.35212723  1
  P  P198  1  0.04080353  0.58327608  0.60069593  1
  P  P199  1  0.04312486  0.58359496  0.85317232  1
  P  P200  1  0.04108742  0.91642559  0.10301881  1
  P  P201  1  0.04117160  0.91656716  0.35170116  1
  P  P202  1  0.04250327  0.91745701  0.60152753  1
  P  P203  1  0.04205709  0.91629203  0.85428744  1
  P  P204  1  0.54320140  0.24956219  0.10356660  1
  P  P205  1  0.54250876  0.24863785  0.35274017  1
  P  P206  1  0.54300338  0.25177851  0.60265609  1
  P  P207  1  0.54306638  0.24886660  0.85222178  1
  P  P208  1  0.54232912  0.58196080  0.10211622  1
  P  P209  1  0.54317319  0.58339262  0.35321122  1
  P  P210  1  0.54285651  0.58339301  0.60339338  1
  P  P211  1  0.54197860  0.58174813  0.85226123  1
  P  P212  1  0.54284349  0.91872434  0.10189244  1
  P  P213  1  0.54269625  0.91701857  0.35393537  1
  P  P214  1  0.54169040  0.91775096  0.60088541  1
  P  P215  1  0.54329180  0.91751771  0.85311102  1
  P  P216  1  0.45795434  0.08459600  0.14731947  1
  P  P217  1  0.45823136  0.08302500  0.39736768  1
  P  P218  1  0.45820435  0.08531242  0.64694178  1
  P  P219  1  0.45809328  0.08269027  0.89683146  1
  P  P220  1  0.45688280  0.41670814  0.14648047  1
  P  P221  1  0.45796655  0.41475859  0.39766591  1
  P  P222  1  0.45793637  0.41767951  0.64718350  1
  P  P223  1  0.45777323  0.41794338  0.89716222  1
  P  P224  1  0.45697689  0.75031968  0.14629339  1
  P  P225  1  0.45735959  0.75158783  0.39744110  1
  P  P226  1  0.45693559  0.75137955  0.64591785  1
  P  P227  1  0.45676879  0.74995519  0.89638736  1
  P  P228  1  0.95859902  0.08249831  0.14926285  1
  P  P229  1  0.95924592  0.08266614  0.39755156  1
  P  P230  1  0.95783930  0.08269464  0.64574345  1
  P  P231  1  0.95727894  0.08141384  0.89882800  1
  P  P232  1  0.95712247  0.41771239  0.14871560  1
  P  P233  1  0.95784276  0.41776072  0.39719618  1
  P  P234  1  0.95709406  0.41627050  0.64596937  1
  P  P235  1  0.95672640  0.41624707  0.89731724  1
  P  P236  1  0.95828995  0.75074550  0.14886215  1
  P  P237  1  0.95730856  0.74859522  0.39634795  1
  P  P238  1  0.95701082  0.74970640  0.64587778  1
  P  P239  1  0.95760214  0.75146278  0.89836604  1
  P  P240  1  0.20829785  0.08197092  0.22820100  1
  P  P241  1  0.20909086  0.08360404  0.47660475  1
  P  P242  1  0.20792115  0.08184573  0.72756143  1
  P  P243  1  0.20778842  0.08171937  0.97757682  1
  P  P244  1  0.20794990  0.41749521  0.22846608  1
  P  P245  1  0.20825641  0.41694052  0.47620467  1
  P  P246  1  0.20728646  0.41463990  0.72708733  1
  P  P247  1  0.20769164  0.41549233  0.97781251  1
  P  P248  1  0.20743727  0.74888782  0.22725340  1
  P  P249  1  0.20650353  0.75035148  0.47822957  1
  P  P250  1  0.20713786  0.74926451  0.72744400  1
  P  P251  1  0.20787688  0.75118582  0.97806401  1
  P  P252  1  0.70962910  0.08318062  0.22749466  1
  P  P253  1  0.70923747  0.08370582  0.47679032  1
  P  P254  1  0.70886459  0.08290434  0.72608138  1
  P  P255  1  0.70845358  0.08480626  0.97808939  1
  P  P256  1  0.70814101  0.41487742  0.22878393  1
  P  P257  1  0.70913194  0.41675006  0.47720664  1
  P  P258  1  0.70827927  0.41739399  0.72752389  1
  P  P259  1  0.70750786  0.41635708  0.97898451  1
  P  P260  1  0.70753050  0.74905996  0.22778306  1
  P  P261  1  0.70768621  0.75118681  0.47784561  1
  P  P262  1  0.70760242  0.74893923  0.72800968  1
  P  P263  1  0.70867465  0.75051475  0.97670094  1
  P  P264  1  0.29299853  0.24992515  0.02132424  1
  P  P265  1  0.29145368  0.25008231  0.27349455  1
  P  P266  1  0.29194370  0.25174306  0.52130417  1
  P  P267  1  0.29217850  0.25145168  0.77185498  1
  P  P268  1  0.29099076  0.58315548  0.02343687  1
  P  P269  1  0.29177690  0.58202987  0.27173212  1
  P  P270  1  0.29163619  0.58451734  0.52203249  1
  P  P271  1  0.29235525  0.58338811  0.77109633  1
  P  P272  1  0.29202754  0.91799611  0.02180129  1
  P  P273  1  0.29210617  0.91811928  0.27225103  1
  P  P274  1  0.29195512  0.91903497  0.52215683  1
  P  P275  1  0.29129974  0.91658077  0.77311615  1
  P  P276  1  0.79195726  0.25012759  0.02414726  1
  P  P277  1  0.79180355  0.24950333  0.27346193  1
  P  P278  1  0.79207302  0.24837047  0.52161497  1
  P  P279  1  0.79226416  0.24765030  0.77216192  1
  P  P280  1  0.79226781  0.58539082  0.02282726  1
  P  P281  1  0.79208945  0.58185581  0.27287852  1
  P  P282  1  0.79081103  0.58338492  0.52343639  1
  P  P283  1  0.79206279  0.58471033  0.77212704  1
  P  P284  1  0.79234605  0.91814110  0.02279507  1
  P  P285  1  0.79103587  0.91656723  0.27350252  1
  P  P286  1  0.79185591  0.91785106  0.52141754  1
  P  P287  1  0.79244949  0.91552101  0.77217332  1
  O  O288  1  0.03730978  0.24900154  0.18481930  1
  O  O289  1  0.03666056  0.24745289  0.43330767  1
  O  O290  1  0.03780030  0.24836946  0.68184910  1
  O  O291  1  0.03795797  0.24927836  0.93370562  1
  O  O292  1  0.03658684  0.58366641  0.18462755  1
  O  O293  1  0.03507180  0.58361123  0.43204775  1
  O  O294  1  0.03637571  0.58323334  0.68075443  1
  O  O295  1  0.03831246  0.58386924  0.93319526  1
  O  O296  1  0.03591161  0.91644482  0.18293461  1
  O  O297  1  0.03637901  0.91690228  0.43164306  1
  O  O298  1  0.03730511  0.91713567  0.68148011  1
  O  O299  1  0.03679032  0.91631332  0.93421380  1
  O  O300  1  0.53776871  0.24885627  0.18348894  1
  O  O301  1  0.53754092  0.24959628  0.43270766  1
  O  O302  1  0.53787152  0.25115235  0.68257652  1
  O  O303  1  0.53805052  0.24909907  0.93217546  1
  O  O304  1  0.53734345  0.58263123  0.18212173  1
  O  O305  1  0.53823974  0.58358335  0.43319844  1
  O  O306  1  0.53735911  0.58296570  0.68331040  1
  O  O307  1  0.53656017  0.58150115  0.93222273  1
  O  O308  1  0.53774758  0.91837604  0.18190187  1
  O  O309  1  0.53725189  0.91706790  0.43382946  1
  O  O310  1  0.53710318  0.91778366  0.68094429  1
  O  O311  1  0.53813560  0.91826186  0.93304589  1
  O  O312  1  0.46302107  0.08363411  0.06735707  1
  O  O313  1  0.46338509  0.08383558  0.31744107  1
  O  O314  1  0.46329639  0.08450191  0.56696663  1
  O  O315  1  0.46333657  0.08353357  0.81689952  1
  O  O316  1  0.46210319  0.41718626  0.06652390  1
  O  O317  1  0.46266703  0.41477261  0.31768407  1
  O  O318  1  0.46341458  0.41657744  0.56727805  1
  O  O319  1  0.46318639  0.41806320  0.81721283  1
  O  O320  1  0.46197702  0.75009635  0.06630629  1
  O  O321  1  0.46236417  0.75113817  0.31740356  1
  O  O322  1  0.46238601  0.75199969  0.56596313  1
  O  O323  1  0.46177055  0.74992201  0.81640400  1
  O  O324  1  0.96344074  0.08201896  0.06931139  1
  O  O325  1  0.96432036  0.08300699  0.31762433  1
  O  O326  1  0.96339266  0.08287219  0.56583697  1
  O  O327  1  0.96207985  0.08178738  0.81881511  1
  O  O328  1  0.96210024  0.41726974  0.06871658  1
  O  O329  1  0.96305982  0.41803231  0.31726655  1
  O  O330  1  0.96228295  0.41664007  0.56595513  1
  O  O331  1  0.96187166  0.41598583  0.81726439  1
  O  O332  1  0.96357408  0.75146080  0.06891752  1
  O  O333  1  0.96285032  0.74866309  0.31647589  1
  O  O334  1  0.96195202  0.74904656  0.56588056  1
  O  O335  1  0.96242890  0.75100287  0.81835715  1
  O  O336  1  0.21312488  0.08174317  0.05751146  1
  O  O337  1  0.21391627  0.08231676  0.30805341  1
  O  O338  1  0.21359249  0.08382697  0.55656422  1
  O  O339  1  0.21320428  0.08175889  0.80748780  1
  O  O340  1  0.21319570  0.41661170  0.05774720  1
  O  O341  1  0.21337765  0.41747003  0.30833903  1
  O  O342  1  0.21305150  0.41663097  0.55619557  1
  O  O343  1  0.21258679  0.41464237  0.80702449  1
  O  O344  1  0.21339488  0.75075706  0.05795131  1
  O  O345  1  0.21225331  0.74925455  0.30720275  1
  O  O346  1  0.21166251  0.75010669  0.55816124  1
  O  O347  1  0.21260097  0.74982704  0.80735584  1
  O  O348  1  0.71367778  0.08458358  0.05788850  1
  O  O349  1  0.71463432  0.08348891  0.30735595  1
  O  O350  1  0.71403701  0.08353763  0.55664366  1
  O  O351  1  0.71379217  0.08309067  0.80601227  1
  O  O352  1  0.71287480  0.41598025  0.05891604  1
  O  O353  1  0.71364802  0.41529471  0.30864924  1
  O  O354  1  0.71411028  0.41690968  0.55716588  1
  O  O355  1  0.71309140  0.41723651  0.80747520  1
  O  O356  1  0.71358272  0.75040052  0.05669576  1
  O  O357  1  0.71269530  0.74952331  0.30768121  1
  O  O358  1  0.71301828  0.75079636  0.55772180  1
  O  O359  1  0.71325713  0.74931994  0.80784756  1
  O  O360  1  0.28696453  0.24959128  0.19350810  1
  O  O361  1  0.28638951  0.25139597  0.44146137  1
  O  O362  1  0.28675167  0.25150069  0.69189841  1
  O  O363  1  0.28764436  0.25017512  0.94142585  1
  O  O364  1  0.28631963  0.58202419  0.19187453  1
  O  O365  1  0.28664543  0.58377219  0.44206885  1
  O  O366  1  0.28688997  0.58379849  0.69118863  1
  O  O367  1  0.28614550  0.58301941  0.94343811  1
  O  O368  1  0.28710029  0.91804098  0.19229749  1
  O  O369  1  0.28677243  0.91901924  0.44222024  1
  O  O370  1  0.28620863  0.91700222  0.69315271  1
  O  O371  1  0.28646539  0.91746331  0.94195245  1
  O  O372  1  0.78697732  0.25003017  0.19356912  1
  O  O373  1  0.78676938  0.24856418  0.44175179  1
  O  O374  1  0.78682243  0.24745972  0.69224293  1
  O  O375  1  0.78713528  0.24945553  0.94419850  1
  O  O376  1  0.78717586  0.58229385  0.19302543  1
  O  O377  1  0.78565389  0.58258594  0.44351318  1
  O  O378  1  0.78642260  0.58442978  0.69228165  1
  O  O379  1  0.78708851  0.58569121  0.94287507  1
  O  O380  1  0.78636341  0.91710714  0.19354044  1
  O  O381  1  0.78637883  0.91744175  0.44159636  1
  O  O382  1  0.78725558  0.91587975  0.69228344  1
  O  O383  1  0.78734493  0.91759194  0.94292095  1
  O  O384  1  0.22878009  0.24960908  0.05705296  1
  O  O385  1  0.22722005  0.25077198  0.30916362  1
  O  O386  1  0.22787518  0.25141012  0.55774663  1
  O  O387  1  0.22799884  0.25122679  0.80796341  1
  O  O388  1  0.22684840  0.58338111  0.05948576  1
  O  O389  1  0.22759123  0.58156780  0.30792400  1
  O  O390  1  0.22731584  0.58476875  0.55773113  1
  O  O391  1  0.22811881  0.58316263  0.80672416  1
  O  O392  1  0.22793126  0.91826781  0.05826867  1
  O  O393  1  0.22771469  0.91858780  0.30774711  1
  O  O394  1  0.22765190  0.91896761  0.55787215  1
  O  O395  1  0.22719968  0.91627995  0.80938052  1
  O  O396  1  0.72782452  0.25057958  0.06024316  1
  O  O397  1  0.72778205  0.24885766  0.30978885  1
  O  O398  1  0.72803887  0.24822813  0.55796468  1
  O  O399  1  0.72807209  0.24780546  0.80831331  1
  O  O400  1  0.72799260  0.58500752  0.05862345  1
  O  O401  1  0.72775803  0.58147211  0.30858764  1
  O  O402  1  0.72680160  0.58402709  0.55976481  1
  O  O403  1  0.72802174  0.58507723  0.80868438  1
  O  O404  1  0.72802695  0.91855367  0.05855991  1
  O  O405  1  0.72694287  0.91635876  0.30950439  1
  O  O406  1  0.72780954  0.91800968  0.55787277  1
  O  O407  1  0.72823921  0.91544902  0.80816041  1
  O  O408  1  0.27239515  0.08119749  0.19174267  1
  O  O409  1  0.27331053  0.08327574  0.44086571  1
  O  O410  1  0.27220576  0.08218020  0.69169026  1
  O  O411  1  0.27198427  0.08188100  0.94158753  1
  O  O412  1  0.27204321  0.41789238  0.19219913  1
  O  O413  1  0.27251354  0.41703611  0.44029935  1
  O  O414  1  0.27156049  0.41520027  0.69121949  1
  O  O415  1  0.27188410  0.41483513  0.94164149  1
  O  O416  1  0.27178624  0.74881212  0.19179300  1
  O  O417  1  0.27085953  0.75047971  0.44290128  1
  O  O418  1  0.27130588  0.74891209  0.69125306  1
  O  O419  1  0.27196979  0.75171777  0.94177581  1
  O  O420  1  0.77364353  0.08254648  0.19107415  1
  O  O421  1  0.77335049  0.08426670  0.44055201  1
  O  O422  1  0.77303474  0.08250407  0.68994847  1
  O  O423  1  0.77263951  0.08484471  0.94188746  1
  O  O424  1  0.77224207  0.41486840  0.19241583  1
  O  O425  1  0.77318401  0.41733727  0.44096747  1
  O  O426  1  0.77255233  0.41705236  0.69195279  1
  O  O427  1  0.77176744  0.41648396  0.94334591  1
  O  O428  1  0.77187781  0.74909091  0.19203316  1
  O  O429  1  0.77183789  0.75111693  0.44176408  1
  O  O430  1  0.77166435  0.74852710  0.69154389  1
  O  O431  1  0.77284527  0.75072008  0.94059636  1
  O  O432  1  0.02286094  0.08250025  0.18488749  1
  O  O433  1  0.02333692  0.08203351  0.43370386  1
  O  O434  1  0.02199201  0.08264532  0.68157138  1
  O  O435  1  0.02173929  0.08074249  0.93395102  1
  O  O436  1  0.02146499  0.41779777  0.18399623  1
  O  O437  1  0.02206446  0.41777353  0.43279033  1
  O  O438  1  0.02148248  0.41614511  0.68116351  1
  O  O439  1  0.02118789  0.41625717  0.93227277  1
  O  O440  1  0.02236451  0.75032723  0.18490398  1
  O  O441  1  0.02138542  0.74833976  0.43246621  1
  O  O442  1  0.02142814  0.75002069  0.68094824  1
  O  O443  1  0.02202701  0.75204704  0.93356982  1
  O  O444  1  0.52237022  0.08559825  0.18272722  1
  O  O445  1  0.52250861  0.08250112  0.43293662  1
  O  O446  1  0.52263190  0.08581398  0.68220767  1
  O  O447  1  0.52242975  0.08182106  0.93240058  1
  O  O448  1  0.52128951  0.41611860  0.18157079  1
  O  O449  1  0.52248136  0.41473716  0.43261962  1
  O  O450  1  0.52216438  0.41836710  0.68302221  1
  O  O451  1  0.52204176  0.41838186  0.93295032  1
  O  O452  1  0.52151935  0.75038544  0.18103408  1
  O  O453  1  0.52174308  0.75194873  0.43262148  1
  O  O454  1  0.52123300  0.75061827  0.68125482  1
  O  O455  1  0.52124005  0.74981086  0.93122638  1
  O  O456  1  0.47895841  0.24989559  0.06815393  1
  O  O457  1  0.47812108  0.24778501  0.31732075  1
  O  O458  1  0.47863400  0.25190061  0.56723407  1
  O  O459  1  0.47870674  0.24901029  0.81683569  1
  O  O460  1  0.47787647  0.58148041  0.06691606  1
  O  O461  1  0.47860302  0.58343049  0.31855897  1
  O  O462  1  0.47861399  0.58339279  0.56792605  1
  O  O463  1  0.47773462  0.58145223  0.81644694  1
  O  O464  1  0.47846414  0.91907288  0.06653912  1
  O  O465  1  0.47850732  0.91745962  0.31823614  1
  O  O466  1  0.47734618  0.91815786  0.56551344  1
  O  O467  1  0.47889628  0.91791950  0.81800269  1
  O  O468  1  0.97832720  0.24906727  0.06958187  1
  O  O469  1  0.97778176  0.24804177  0.31766235  1
  O  O470  1  0.97832387  0.24824213  0.56667788  1
  O  O471  1  0.97832733  0.24917676  0.81881495  1
  O  O472  1  0.97816331  0.58419676  0.06882752  1
  O  O473  1  0.97663862  0.58385056  0.31572258  1
  O  O474  1  0.97646016  0.58305013  0.56534983  1
  O  O475  1  0.97854535  0.58352481  0.81848888  1
  O  O476  1  0.97700219  0.91651782  0.06674116  1
  O  O477  1  0.97693140  0.91671913  0.31610017  1
  O  O478  1  0.97818034  0.91779698  0.56607014  1
  O  O479  1  0.97777838  0.91626863  0.81869743  1
  O  O480  1  0.07346320  0.31299847  0.07683358  1
  O  O481  1  0.07295833  0.31180445  0.32626234  1
  O  O482  1  0.07375867  0.31176856  0.57386151  1
  O  O483  1  0.07378215  0.31248193  0.82505100  1
  O  O484  1  0.07380298  0.64701755  0.07664172  1
  O  O485  1  0.07203649  0.64684031  0.32383017  1
  O  O486  1  0.07131007  0.64703150  0.57236775  1
  O  O487  1  0.07394462  0.64707732  0.82469704  1
  O  O488  1  0.07196608  0.98001469  0.07457418  1
  O  O489  1  0.07239645  0.97981713  0.32315189  1
  O  O490  1  0.07342436  0.98087175  0.57312887  1
  O  O491  1  0.07321105  0.97963028  0.82567983  1
  O  O492  1  0.57418516  0.31327776  0.07584006  1
  O  O493  1  0.57337489  0.31207764  0.32426043  1
  O  O494  1  0.57345772  0.31550626  0.57411945  1
  O  O495  1  0.57430338  0.31247377  0.82464703  1
  O  O496  1  0.57307285  0.64564359  0.07384816  1
  O  O497  1  0.57410984  0.64683736  0.32488220  1
  O  O498  1  0.57379152  0.64708922  0.57561731  1
  O  O499  1  0.57262002  0.64582538  0.82481051  1
  O  O500  1  0.57363337  0.98230379  0.07377801  1
  O  O501  1  0.57426183  0.98026401  0.32564890  1
  O  O502  1  0.57257296  0.98150205  0.57299288  1
  O  O503  1  0.57506247  0.98027362  0.82419545  1
  O  O504  1  0.42725481  0.02106973  0.17589770  1
  O  O505  1  0.42744688  0.01939132  0.42556918  1
  O  O506  1  0.42714149  0.02189995  0.67527556  1
  O  O507  1  0.42718088  0.01918907  0.92519762  1
  O  O508  1  0.42566007  0.35315334  0.17434381  1
  O  O509  1  0.42751487  0.35121910  0.42644634  1
  O  O510  1  0.42689249  0.35432357  0.67573580  1
  O  O511  1  0.42731230  0.35376349  0.92463420  1
  O  O512  1  0.42608689  0.68687844  0.17472726  1
  O  O513  1  0.42636506  0.68794597  0.42534324  1
  O  O514  1  0.42555701  0.68786858  0.67353105  1
  O  O515  1  0.42559450  0.68652439  0.92442983  1
  O  O516  1  0.92753887  0.01914033  0.17792248  1
  O  O517  1  0.92789510  0.01919456  0.42558890  1
  O  O518  1  0.92653002  0.01931111  0.67395954  1
  O  O519  1  0.92625466  0.01813185  0.92734128  1
  O  O520  1  0.92608822  0.35412807  0.17672784  1
  O  O521  1  0.92692867  0.35383066  0.42455347  1
  O  O522  1  0.92621397  0.35253845  0.67390561  1
  O  O523  1  0.92564455  0.35291809  0.92577321  1
  O  O524  1  0.92723954  0.68700645  0.17650003  1
  O  O525  1  0.92612658  0.68538708  0.42515300  1
  O  O526  1  0.92598914  0.68657630  0.67489658  1
  O  O527  1  0.92699809  0.68769092  0.92651398  1
  O  O528  1  0.17686695  0.01885162  0.19956237  1
  O  O529  1  0.17776750  0.02035056  0.44818629  1
  O  O530  1  0.17719331  0.01838741  0.69886513  1
  O  O531  1  0.17690317  0.01835608  0.94892356  1
  O  O532  1  0.17690237  0.35371751  0.20065195  1
  O  O533  1  0.17723124  0.35349141  0.44775845  1
  O  O534  1  0.17665825  0.35126517  0.69811760  1
  O  O535  1  0.17686345  0.35169584  0.95007881  1
  O  O536  1  0.17689612  0.68521998  0.19890995  1
  O  O537  1  0.17522844  0.68718053  0.44970067  1
  O  O538  1  0.17642307  0.68558761  0.69907960  1
  O  O539  1  0.17671320  0.68759869  0.95022655  1
  O  O540  1  0.67819053  0.01981204  0.19928327  1
  O  O541  1  0.67900450  0.01975288  0.44799686  1
  O  O542  1  0.67812896  0.01908380  0.69782915  1
  O  O543  1  0.67727691  0.02138963  0.94959629  1
  O  O544  1  0.67736579  0.35127035  0.20031267  1
  O  O545  1  0.67921552  0.35236598  0.44908579  1
  O  O546  1  0.67692112  0.35391837  0.69967828  1
  O  O547  1  0.67625170  0.35316470  0.95037845  1
  O  O548  1  0.67718412  0.68526055  0.19916266  1
  O  O549  1  0.67618509  0.68781980  0.45002808  1
  O  O550  1  0.67643890  0.68566184  0.69938862  1
  O  O551  1  0.67773673  0.68693219  0.94847300  1
  O  O552  1  0.32419208  0.31314326  0.04991692  1
  O  O553  1  0.32277084  0.31354762  0.30126549  1
  O  O554  1  0.32250899  0.31541115  0.54991117  1
  O  O555  1  0.32308492  0.31472699  0.80063169  1
  O  O556  1  0.32176343  0.64704658  0.05126681  1
  O  O557  1  0.32273527  0.64581788  0.29962804  1
  O  O558  1  0.32218916  0.64828127  0.55029650  1
  O  O559  1  0.32371698  0.64653532  0.79961282  1
  O  O560  1  0.32300213  0.98145391  0.05027522  1
  O  O561  1  0.32342086  0.98120002  0.30096125  1
  O  O562  1  0.32283083  0.98235077  0.55100424  1
  O  O563  1  0.32230779  0.98012698  0.80141979  1
  O  O564  1  0.82300303  0.31373806  0.05219243  1
  O  O565  1  0.82213765  0.31326136  0.30261095  1
  O  O566  1  0.82318930  0.31203408  0.54963204  1
  O  O567  1  0.82322674  0.31156862  0.79964410  1
  O  O568  1  0.82288404  0.64886442  0.05177166  1
  O  O569  1  0.82295249  0.64547025  0.30114104  1
  O  O570  1  0.82198082  0.64713399  0.55087559  1
  O  O571  1  0.82322331  0.64805055  0.80078710  1
  O  O572  1  0.82305946  0.98166866  0.05144567  1
  O  O573  1  0.82185494  0.98014481  0.30220917  1
  O  O574  1  0.82268271  0.98141937  0.54993945  1
  O  O575  1  0.82376990  0.97894289  0.80016556  1
  O  O576  1  0.42691700  0.14811541  0.17567892  1
  O  O577  1  0.42708023  0.14639655  0.42579823  1
  O  O578  1  0.42758987  0.14908173  0.67527640  1
  O  O579  1  0.42716039  0.14627525  0.92514759  1
  O  O580  1  0.42596473  0.47999951  0.17539154  1
  O  O581  1  0.42698737  0.47853720  0.42542028  1
  O  O582  1  0.42694830  0.48138385  0.67503430  1
  O  O583  1  0.42640737  0.48100018  0.92595972  1
  O  O584  1  0.42605443  0.81402718  0.17422055  1
  O  O585  1  0.42655293  0.81523175  0.42577333  1
  O  O586  1  0.42602945  0.81486109  0.67448170  1
  O  O587  1  0.42595407  0.81357561  0.92459340  1
  O  O588  1  0.92804258  0.14645807  0.17736976  1
  O  O589  1  0.92883287  0.14647433  0.42638995  1
  O  O590  1  0.92657796  0.14596941  0.67453555  1
  O  O591  1  0.92679890  0.14532602  0.92702762  1
  O  O592  1  0.92642307  0.48143624  0.17687277  1
  O  O593  1  0.92675498  0.48098323  0.42607874  1
  O  O594  1  0.92593402  0.47955645  0.67460681  1
  O  O595  1  0.92585866  0.47999962  0.92523438  1
  O  O596  1  0.92736356  0.81428886  0.17751000  1
  O  O597  1  0.92628697  0.81236740  0.42425284  1
  O  O598  1  0.92610388  0.81352877  0.67374417  1
  O  O599  1  0.92657944  0.81477404  0.92707339  1
  O  O600  1  0.07414859  0.18604756  0.07647606  1
  O  O601  1  0.07300086  0.18459234  0.32444491  1
  O  O602  1  0.07339500  0.18460751  0.57324167  1
  O  O603  1  0.07368731  0.18545037  0.82560619  1
  O  O604  1  0.07324508  0.52020113  0.07624936  1
  O  O605  1  0.07132741  0.51960372  0.32398489  1
  O  O606  1  0.07169323  0.51955212  0.57241787  1
  O  O607  1  0.07396227  0.52000064  0.82482207  1
  O  O608  1  0.07201895  0.85278385  0.07460009  1
  O  O609  1  0.07169866  0.85253734  0.32365466  1
  O  O610  1  0.07339581  0.85375135  0.57356986  1
  O  O611  1  0.07323846  0.85302581  0.82538938  1
  O  O612  1  0.57460743  0.18645367  0.07498758  1
  O  O613  1  0.57335713  0.18492595  0.32457547  1
  O  O614  1  0.57432570  0.18845985  0.57427198  1
  O  O615  1  0.57340072  0.18517413  0.82347437  1
  O  O616  1  0.57322772  0.51838047  0.07401975  1
  O  O617  1  0.57396731  0.51966911  0.32516086  1
  O  O618  1  0.57432118  0.52021004  0.57496250  1
  O  O619  1  0.57327478  0.51860260  0.82352438  1
  O  O620  1  0.57370592  0.85492138  0.07399945  1
  O  O621  1  0.57364247  0.85361848  0.32509462  1
  O  O622  1  0.57208918  0.85380818  0.57271838  1
  O  O623  1  0.57371475  0.85346445  0.82516485  1
  O  O624  1  0.32412043  0.18630876  0.04921021  1
  O  O625  1  0.32154899  0.18605163  0.30197937  1
  O  O626  1  0.32355944  0.18845871  0.54941372  1
  O  O627  1  0.32324847  0.18756429  0.79918961  1
  O  O628  1  0.32164625  0.51939904  0.05151835  1
  O  O629  1  0.32298862  0.51891758  0.30079739  1
  O  O630  1  0.32290022  0.52107302  0.55001932  1
  O  O631  1  0.32337612  0.51969157  0.79889322  1
  O  O632  1  0.32329933  0.85456741  0.05001110  1
  O  O633  1  0.32256674  0.85405633  0.30007190  1
  O  O634  1  0.32289904  0.85529873  0.54993477  1
  O  O635  1  0.32195829  0.85266561  0.80098207  1
  O  O636  1  0.82248116  0.18646405  0.05307672  1
  O  O637  1  0.82328811  0.18607063  0.30136647  1
  O  O638  1  0.82322114  0.18505259  0.55012347  1
  O  O639  1  0.82309564  0.18435122  0.80104044  1
  O  O640  1  0.82351063  0.52168300  0.05023849  1
  O  O641  1  0.82283594  0.51836058  0.30148254  1
  O  O642  1  0.82126701  0.51961410  0.55209703  1
  O  O643  1  0.82319036  0.52111659  0.80019627  1
  O  O644  1  0.82329275  0.85466257  0.05116733  1
  O  O645  1  0.82181172  0.85272269  0.30132064  1
  O  O646  1  0.82324375  0.85447169  0.54949035  1
  O  O647  1  0.82292497  0.85180240  0.80063723  1
  O  O648  1  0.17759470  0.14584257  0.20028714  1
  O  O649  1  0.17892158  0.14764470  0.44798988  1
  O  O650  1  0.17680586  0.14550657  0.69980414  1
  O  O651  1  0.17663130  0.14542935  0.94998192  1
  O  O652  1  0.17681492  0.48067586  0.19954928  1
  O  O653  1  0.17763358  0.48087267  0.44832191  1
  O  O654  1  0.17592234  0.47827596  0.69943527  1
  O  O655  1  0.17658417  0.47891629  0.94948152  1
  O  O656  1  0.17637163  0.81255502  0.19963692  1
  O  O657  1  0.17561891  0.81405699  0.45020905  1
  O  O658  1  0.17593591  0.81279964  0.69957576  1
  O  O659  1  0.17701758  0.81476023  0.94980994  1
  O  O660  1  0.67927630  0.14705611  0.19885413  1
  O  O661  1  0.67771292  0.14682959  0.44830021  1
  O  O662  1  0.67805576  0.14641321  0.69761313  1
  O  O663  1  0.67768950  0.14825368  0.94918488  1
  O  O664  1  0.67676166  0.47823993  0.20055477  1
  O  O665  1  0.67742445  0.47981040  0.44899371  1
  O  O666  1  0.67796326  0.48114237  0.69892601  1
  O  O667  1  0.67653151  0.48007778  0.95127927  1
  O  O668  1  0.67617439  0.81238118  0.19961908  1
  O  O669  1  0.67724742  0.81496976  0.44951213  1
  O  O670  1  0.67648741  0.81257036  0.69997761  1
  O  O671  1  0.67806850  0.81444099  0.94868546  1
