# generated using pymatgen
data_Na2MnFe(PO4)2
_symmetry_space_group_name_H-M   'P 1'
_cell_length_a   22.34454188
_cell_length_b   20.09952728
_cell_length_c   19.44868289
_cell_angle_alpha   90.01336825
_cell_angle_beta   89.98805948
_cell_angle_gamma   89.99681057
_symmetry_Int_Tables_number   1
_chemical_formula_structural   Na2MnFe(PO4)2
_chemical_formula_sum   'Na96 Mn48 Fe48 P96 O384'
_cell_volume   8734.68950437
_cell_formula_units_Z   48
loop_
 _symmetry_equiv_pos_site_id
 _symmetry_equiv_pos_as_xyz
  1  'x, y, z'
loop_
 _atom_site_type_symbol
 _atom_site_label
 _atom_site_symmetry_multiplicity
 _atom_site_fract_x
 _atom_site_fract_y
 _atom_site_fract_z
 _atom_site_occupancy
  Na  Na0  1  0.14142157  0.24932248  0.24227859  1
  Na  Na1  1  0.14091493  0.25036207  0.49463527  1
  Na  Na2  1  0.14111847  0.25005754  0.74451216  1
  Na  Na3  1  0.14111195  0.24849166  0.99295681  1
  Na  Na4  1  0.14089932  0.58205875  0.24362998  1
  Na  Na5  1  0.14110161  0.58392470  0.49351079  1
  Na  Na6  1  0.14104427  0.58425879  0.74443750  1
  Na  Na7  1  0.14044937  0.58191936  0.99358704  1
  Na  Na8  1  0.14122555  0.91530724  0.24368816  1
  Na  Na9  1  0.14069661  0.91567352  0.49539432  1
  Na  Na10  1  0.14052443  0.91703777  0.74356687  1
  Na  Na11  1  0.14118449  0.91690674  0.99276345  1
  Na  Na12  1  0.64004005  0.25081183  0.24374638  1
  Na  Na13  1  0.63996839  0.25077079  0.49300171  1
  Na  Na14  1  0.64016637  0.24964589  0.74368060  1
  Na  Na15  1  0.63981565  0.25178269  0.99469475  1
  Na  Na16  1  0.63923137  0.58280066  0.24315821  1
  Na  Na17  1  0.63977428  0.58391660  0.49299405  1
  Na  Na18  1  0.63974792  0.58375149  0.74425809  1
  Na  Na19  1  0.63937815  0.58476562  0.99354995  1
  Na  Na20  1  0.63980709  0.91646496  0.24270546  1
  Na  Na21  1  0.63973599  0.91635657  0.49370210  1
  Na  Na22  1  0.63986446  0.91543836  0.74221704  1
  Na  Na23  1  0.63981559  0.91623694  0.99359834  1
  Na  Na24  1  0.35932566  0.08372727  0.00688543  1
  Na  Na25  1  0.35989532  0.08165622  0.25669768  1
  Na  Na26  1  0.36039119  0.08212130  0.50737898  1
  Na  Na27  1  0.35979639  0.08357551  0.75714326  1
  Na  Na28  1  0.35949015  0.41609471  0.00926480  1
  Na  Na29  1  0.36023244  0.41689838  0.25695543  1
  Na  Na30  1  0.36036731  0.41705701  0.50634969  1
  Na  Na31  1  0.35972023  0.41741419  0.75724654  1
  Na  Na32  1  0.36012389  0.74952043  0.00786209  1
  Na  Na33  1  0.35965433  0.74840519  0.25703367  1
  Na  Na34  1  0.35950993  0.75008823  0.50588396  1
  Na  Na35  1  0.35980559  0.75175373  0.75740771  1
  Na  Na36  1  0.85953691  0.08443779  0.00533802  1
  Na  Na37  1  0.85955147  0.08393778  0.25475963  1
  Na  Na38  1  0.85964873  0.08282875  0.50691010  1
  Na  Na39  1  0.85986452  0.08198118  0.75670760  1
  Na  Na40  1  0.85947145  0.41781107  0.00611176  1
  Na  Na41  1  0.85920424  0.41720501  0.25487283  1
  Na  Na42  1  0.85928462  0.41879516  0.50567401  1
  Na  Na43  1  0.85951520  0.41747761  0.75572718  1
  Na  Na44  1  0.85956603  0.74993190  0.00484245  1
  Na  Na45  1  0.85949113  0.74888178  0.25576760  1
  Na  Na46  1  0.85912729  0.75031945  0.50662650  1
  Na  Na47  1  0.85924108  0.74954317  0.75539718  1
  Na  Na48  1  0.11074936  0.08290123  0.11747318  1
  Na  Na49  1  0.11026185  0.08285866  0.36888422  1
  Na  Na50  1  0.11016536  0.08305731  0.62069661  1
  Na  Na51  1  0.11016561  0.08296646  0.86796002  1
  Na  Na52  1  0.11034737  0.41621663  0.11724931  1
  Na  Na53  1  0.11029676  0.41698796  0.36884226  1
  Na  Na54  1  0.11019670  0.41869260  0.61968574  1
  Na  Na55  1  0.11029669  0.41614435  0.86931435  1
  Na  Na56  1  0.11025276  0.74807285  0.11854792  1
  Na  Na57  1  0.11033142  0.74913230  0.36917344  1
  Na  Na58  1  0.11024477  0.75111517  0.61913365  1
  Na  Na59  1  0.10986841  0.74902072  0.86854230  1
  Na  Na60  1  0.60927264  0.08328689  0.11848739  1
  Na  Na61  1  0.60909682  0.08344431  0.36912210  1
  Na  Na62  1  0.60912230  0.08307627  0.61800556  1
  Na  Na63  1  0.60914838  0.08253281  0.86851832  1
  Na  Na64  1  0.60911280  0.41746697  0.11845352  1
  Na  Na65  1  0.60900101  0.41785317  0.36826367  1
  Na  Na66  1  0.60890170  0.41642792  0.61784272  1
  Na  Na67  1  0.60920444  0.41753982  0.87050693  1
  Na  Na68  1  0.60916020  0.74886416  0.11858045  1
  Na  Na69  1  0.60909345  0.74917040  0.36726319  1
  Na  Na70  1  0.60941642  0.75035675  0.61784390  1
  Na  Na71  1  0.60920655  0.75100016  0.86852200  1
  Na  Na72  1  0.38991608  0.25041833  0.13269049  1
  Na  Na73  1  0.39119450  0.25049440  0.38132325  1
  Na  Na74  1  0.39095388  0.24938692  0.63138087  1
  Na  Na75  1  0.38991606  0.25066960  0.88337331  1
  Na  Na76  1  0.39007332  0.58320815  0.13315917  1
  Na  Na77  1  0.38948374  0.58234370  0.38165553  1
  Na  Na78  1  0.39002140  0.58312124  0.63128130  1
  Na  Na79  1  0.39065773  0.58396562  0.88399564  1
  Na  Na80  1  0.39060212  0.91554529  0.13212055  1
  Na  Na81  1  0.39031084  0.91684558  0.38147666  1
  Na  Na82  1  0.38994303  0.91722700  0.63197926  1
  Na  Na83  1  0.39042122  0.91633745  0.88131965  1
  Na  Na84  1  0.88994581  0.24956601  0.13015659  1
  Na  Na85  1  0.89047183  0.25023439  0.37948247  1
  Na  Na86  1  0.89088759  0.25051378  0.63138858  1
  Na  Na87  1  0.89066938  0.25022068  0.88097130  1
  Na  Na88  1  0.88998960  0.58359099  0.13020905  1
  Na  Na89  1  0.88945651  0.58347051  0.38150691  1
  Na  Na90  1  0.89012355  0.58525084  0.63039926  1
  Na  Na91  1  0.89024930  0.58295261  0.88077393  1
  Na  Na92  1  0.89080586  0.91650570  0.12973115  1
  Na  Na93  1  0.89042241  0.91583148  0.38143346  1
  Na  Na94  1  0.88991236  0.91739455  0.63264971  1
  Na  Na95  1  0.89016202  0.91617087  0.87978430  1
  Mn  Mn96  1  -0.00000774  0.33279865  -0.00112886  1
  Mn  Mn97  1  0.75048345  0.00066824  0.12398213  1
  Mn  Mn98  1  0.25046910  0.16588752  0.37496672  1
  Mn  Mn99  1  0.50051342  0.16631370  0.75037739  1
  Mn  Mn100  1  -0.00001710  0.50001621  0.24943002  1
  Mn  Mn101  1  0.25114993  0.16638614  0.62563682  1
  Mn  Mn102  1  0.74984305  0.83236905  0.37448154  1
  Mn  Mn103  1  0.25051270  0.66722267  0.62478424  1
  Mn  Mn104  1  0.25000176  0.83231887  0.12503243  1
  Mn  Mn105  1  0.49984695  -0.00130946  -0.00019907  1
  Mn  Mn106  1  0.24950442  -0.00153189  0.37554444  1
  Mn  Mn107  1  0.00021123  0.33426439  0.75030517  1
  Mn  Mn108  1  0.74961083  0.16681845  0.87459018  1
  Mn  Mn109  1  0.74969664  0.50112127  0.12501720  1
  Mn  Mn110  1  0.00054201  0.16683440  0.50037529  1
  Mn  Mn111  1  -0.00003399  0.66602014  0.24917080  1
  Mn  Mn112  1  0.25070181  0.33458072  0.62499749  1
  Mn  Mn113  1  0.25009060  0.83362864  0.87592728  1
  Mn  Mn114  1  0.74982258  -0.00020051  0.37450860  1
  Mn  Mn115  1  0.75017340  0.83273523  0.12457323  1
  Mn  Mn116  1  0.49957296  0.33336174  0.75026526  1
  Mn  Mn117  1  0.74954693  0.33407379  0.62456929  1
  Mn  Mn118  1  0.25088811  0.33384990  0.37439706  1
  Mn  Mn119  1  0.50008540  0.66749749  0.75065366  1
  Mn  Mn120  1  0.00085557  0.83233708  -0.00030561  1
  Mn  Mn121  1  0.00062436  0.00005429  -0.00051122  1
  Mn  Mn122  1  0.00049612  -0.00037294  0.24962674  1
  Mn  Mn123  1  0.50005316  0.16678619  0.25065306  1
  Mn  Mn124  1  0.74903655  0.50127204  0.62479573  1
  Mn  Mn125  1  0.74943277  0.66730947  0.87415682  1
  Mn  Mn126  1  0.00063987  0.33304526  0.24889371  1
  Mn  Mn127  1  0.75022760  0.33432247  0.87455042  1
  Mn  Mn128  1  0.00055420  0.83293160  0.50051959  1
  Mn  Mn129  1  0.75056222  0.33446007  0.37431697  1
  Mn  Mn130  1  -0.00000690  0.50143349  0.49932168  1
  Mn  Mn131  1  0.00005354  -0.00008473  0.50060115  1
  Mn  Mn132  1  0.49927697  0.49994016  0.75090239  1
  Mn  Mn133  1  0.49933067  0.16710303  0.00031180  1
  Mn  Mn134  1  0.74905232  -0.00099651  0.87535241  1
  Mn  Mn135  1  0.00034330  0.66654845  0.75004240  1
  Mn  Mn136  1  0.75055650  0.16582826  0.62428912  1
  Mn  Mn137  1  0.00050813  0.33417769  0.50061634  1
  Mn  Mn138  1  0.00058792  0.16627531  0.25000675  1
  Mn  Mn139  1  0.25086332  0.50025222  0.87615703  1
  Mn  Mn140  1  0.49894854  0.66623777  0.49927056  1
  Mn  Mn141  1  0.49924757  0.83422488  0.49902710  1
  Mn  Mn142  1  0.00024015  0.83236314  0.24986471  1
  Mn  Mn143  1  0.75001462  0.16709338  0.37478219  1
  Fe  Fe144  1  0.49936955  0.49995918  0.24995380  1
  Fe  Fe145  1  0.00044519  0.66729951  0.50053660  1
  Fe  Fe146  1  0.49956948  -0.00019045  0.74983441  1
  Fe  Fe147  1  0.74910858  0.50081981  0.37417416  1
  Fe  Fe148  1  -0.00034146  0.66583174  -0.00130197  1
  Fe  Fe149  1  0.00010495  0.00035478  0.75054189  1
  Fe  Fe150  1  0.49992546  0.83317193  0.24990500  1
  Fe  Fe151  1  0.49981684  -0.00012435  0.25018748  1
  Fe  Fe152  1  0.25014696  0.49969655  0.12540032  1
  Fe  Fe153  1  0.25060691  0.83255198  0.37517131  1
  Fe  Fe154  1  0.24969990  0.66569321  0.12612023  1
  Fe  Fe155  1  0.49989756  0.49990655  0.49958221  1
  Fe  Fe156  1  0.25058168  0.33336864  0.87627930  1
  Fe  Fe157  1  0.24966608  0.49954263  0.37444188  1
  Fe  Fe158  1  0.25049752  0.00031460  0.87503544  1
  Fe  Fe159  1  0.25010645  -0.00028186  0.62572257  1
  Fe  Fe160  1  0.49940965  0.50022419  0.00128343  1
  Fe  Fe161  1  0.25036239  0.33258890  0.12548129  1
  Fe  Fe162  1  0.25037606  0.16589542  0.12436534  1
  Fe  Fe163  1  0.25022798  0.83328478  0.62564401  1
  Fe  Fe164  1  0.00036151  0.50073994  0.74982197  1
  Fe  Fe165  1  0.74951568  0.50081394  0.87495661  1
  Fe  Fe166  1  0.49943717  0.83351044  0.74983113  1
  Fe  Fe167  1  0.74934397  -0.00096234  0.62522456  1
  Fe  Fe168  1  0.49947007  0.66714655  0.00103522  1
  Fe  Fe169  1  -0.00024278  0.49960094  -0.00078206  1
  Fe  Fe170  1  0.49994887  -0.00007694  0.49984959  1
  Fe  Fe171  1  0.49986869  0.33358678  0.49994830  1
  Fe  Fe172  1  0.49974405  0.66624115  0.24948432  1
  Fe  Fe173  1  0.50036211  0.83303958  0.00069056  1
  Fe  Fe174  1  0.50032382  0.33395894  0.25099885  1
  Fe  Fe175  1  0.25049910  0.16684437  0.87561541  1
  Fe  Fe176  1  0.74928092  0.66655756  0.37523928  1
  Fe  Fe177  1  -0.00021059  0.83304938  0.74997011  1
  Fe  Fe178  1  0.49978061  0.16652161  0.50003973  1
  Fe  Fe179  1  0.25061654  0.66684408  0.87550258  1
  Fe  Fe180  1  0.00002440  0.16627377  -0.00070494  1
  Fe  Fe181  1  0.00053691  0.16706214  0.75028061  1
  Fe  Fe182  1  0.74895729  0.16764298  0.12477761  1
  Fe  Fe183  1  0.74960285  0.33434228  0.12473905  1
  Fe  Fe184  1  0.74939632  0.83262128  0.62411815  1
  Fe  Fe185  1  0.74949542  0.83299298  0.87388661  1
  Fe  Fe186  1  0.74955382  0.66665994  0.62470923  1
  Fe  Fe187  1  0.74967885  0.66654791  0.12468819  1
  Fe  Fe188  1  0.25052644  -0.00038304  0.12449860  1
  Fe  Fe189  1  0.49978905  0.33394236  0.00143753  1
  Fe  Fe190  1  0.25055117  0.50076443  0.62551571  1
  Fe  Fe191  1  0.25021105  0.66592602  0.37552265  1
  P  P192  1  0.04270174  0.24844998  0.10145386  1
  P  P193  1  0.04400871  0.25030229  0.35296317  1
  P  P194  1  0.04338647  0.25031523  0.60420090  1
  P  P195  1  0.04251290  0.24888923  0.85267520  1
  P  P196  1  0.04140246  0.58293449  0.10051711  1
  P  P197  1  0.04287545  0.58376568  0.35314314  1
  P  P198  1  0.04287863  0.58502233  0.60277049  1
  P  P199  1  0.04250607  0.58176740  0.85309243  1
  P  P200  1  0.04391509  0.91603625  0.10260810  1
  P  P201  1  0.04340600  0.91592550  0.35320602  1
  P  P202  1  0.04236442  0.91681549  0.60477162  1
  P  P203  1  0.04156458  0.91611893  0.85132928  1
  P  P204  1  0.54146599  0.25158703  0.10359725  1
  P  P205  1  0.54198555  0.25153383  0.35354556  1
  P  P206  1  0.54135902  0.25002288  0.60132122  1
  P  P207  1  0.54240572  0.25070034  0.85407558  1
  P  P208  1  0.54042815  0.58342829  0.10266109  1
  P  P209  1  0.54022892  0.58288643  0.35136058  1
  P  P210  1  0.54164524  0.58233797  0.60203913  1
  P  P211  1  0.54193335  0.58374693  0.85463574  1
  P  P212  1  0.54214187  0.91495566  0.10337053  1
  P  P213  1  0.54131427  0.91700832  0.35149291  1
  P  P214  1  0.54126616  0.91788712  0.60276542  1
  P  P215  1  0.54124166  0.91607858  0.85146108  1
  P  P216  1  0.45792963  0.08202271  0.14804884  1
  P  P217  1  0.45852466  0.08294780  0.39820718  1
  P  P218  1  0.45795761  0.08216474  0.64709563  1
  P  P219  1  0.45725673  0.08260015  0.89685926  1
  P  P220  1  0.45882471  0.41647512  0.14853364  1
  P  P221  1  0.45864455  0.41669041  0.39786125  1
  P  P222  1  0.45710589  0.41657841  0.64642598  1
  P  P223  1  0.45784398  0.41685647  0.89998763  1
  P  P224  1  0.45864559  0.74981823  0.14822474  1
  P  P225  1  0.45731596  0.75007766  0.39549387  1
  P  P226  1  0.45735866  0.75127764  0.64765892  1
  P  P227  1  0.45853731  0.75074562  0.89893160  1
  P  P228  1  0.95760915  0.08340145  0.14581871  1
  P  P229  1  0.95718611  0.08324269  0.39709427  1
  P  P230  1  0.95870958  0.08389470  0.64908570  1
  P  P231  1  0.95820206  0.08438497  0.89632431  1
  P  P232  1  0.95747641  0.41670918  0.14539696  1
  P  P233  1  0.95716555  0.41686090  0.39657593  1
  P  P234  1  0.95776744  0.41905754  0.64751067  1
  P  P235  1  0.95776975  0.41794602  0.89665237  1
  P  P236  1  0.95720487  0.74906979  0.14563260  1
  P  P237  1  0.95755613  0.74858745  0.39781444  1
  P  P238  1  0.95790090  0.75091692  0.64741642  1
  P  P239  1  0.95807259  0.74882884  0.89650897  1
  P  P240  1  0.20913139  0.08251839  0.22612528  1
  P  P241  1  0.20779081  0.08234977  0.47898694  1
  P  P242  1  0.20886526  0.08226932  0.72871628  1
  P  P243  1  0.20935067  0.08318157  0.97708843  1
  P  P244  1  0.20904228  0.41661003  0.22655004  1
  P  P245  1  0.20838070  0.41818922  0.47764734  1
  P  P246  1  0.20854489  0.41851674  0.72833218  1
  P  P247  1  0.20862750  0.41511279  0.97882670  1
  P  P248  1  0.20810418  0.74796577  0.22854310  1
  P  P249  1  0.20916916  0.75013418  0.47710154  1
  P  P250  1  0.20817425  0.75123307  0.72806362  1
  P  P251  1  0.20817574  0.74795362  0.97821441  1
  P  P252  1  0.70745359  0.08464101  0.22680050  1
  P  P253  1  0.70725306  0.08273407  0.47834942  1
  P  P254  1  0.70741543  0.08167266  0.72717431  1
  P  P255  1  0.70663866  0.08416384  0.97842237  1
  P  P256  1  0.70736190  0.41656983  0.22738047  1
  P  P257  1  0.70729157  0.41888250  0.47669553  1
  P  P258  1  0.70640141  0.41754856  0.72829138  1
  P  P259  1  0.70804089  0.41856025  0.97789095  1
  P  P260  1  0.70743368  0.74798877  0.22742826  1
  P  P261  1  0.70706279  0.74885547  0.47774465  1
  P  P262  1  0.70806714  0.74977040  0.72610799  1
  P  P263  1  0.70725830  0.75132849  0.97699573  1
  P  P264  1  0.29144651  0.24965877  0.02326385  1
  P  P265  1  0.29307041  0.24936819  0.27097773  1
  P  P266  1  0.29342630  0.25018449  0.52218482  1
  P  P267  1  0.29180056  0.25061757  0.77431725  1
  P  P268  1  0.29161100  0.58325377  0.02421889  1
  P  P269  1  0.29106151  0.58272478  0.27303779  1
  P  P270  1  0.29221301  0.58218298  0.52198529  1
  P  P271  1  0.29314698  0.58497073  0.77328449  1
  P  P272  1  0.29235322  0.91756704  0.02250442  1
  P  P273  1  0.29228744  0.91464996  0.27240729  1
  P  P274  1  0.29151728  0.91578658  0.52372368  1
  P  P275  1  0.29192296  0.91793853  0.77247961  1
  P  P276  1  0.79089905  0.25098184  0.02315314  1
  P  P277  1  0.79228347  0.25055356  0.27031131  1
  P  P278  1  0.79305054  0.25070124  0.52154407  1
  P  P279  1  0.79299757  0.25003113  0.77150445  1
  P  P280  1  0.79163384  0.58508950  0.02173285  1
  P  P281  1  0.79086985  0.58394313  0.27285190  1
  P  P282  1  0.79155124  0.58532911  0.52149912  1
  P  P283  1  0.79186356  0.58274969  0.77213809  1
  P  P284  1  0.79292095  0.91610645  0.02077956  1
  P  P285  1  0.79285483  0.91621117  0.27141591  1
  P  P286  1  0.79119059  0.91634591  0.52342143  1
  P  P287  1  0.79126631  0.91490181  0.77123962  1
  O  O288  1  0.03798618  0.24891882  0.18147451  1
  O  O289  1  0.03910888  0.25054007  0.43300077  1
  O  O290  1  0.03791186  0.25000470  0.68416898  1
  O  O291  1  0.03702323  0.24855653  0.93259578  1
  O  O292  1  0.03660886  0.58291268  0.18053276  1
  O  O293  1  0.03814366  0.58459487  0.43312636  1
  O  O294  1  0.03775666  0.58435257  0.68273701  1
  O  O295  1  0.03692150  0.58187983  0.93295465  1
  O  O296  1  0.03889075  0.91605872  0.18259685  1
  O  O297  1  0.03828184  0.91606386  0.43323660  1
  O  O298  1  0.03683886  0.91659402  0.68465223  1
  O  O299  1  0.03708674  0.91632556  0.93135137  1
  O  O300  1  0.53620773  0.25162784  0.18354489  1
  O  O301  1  0.53633632  0.25124390  0.43339469  1
  O  O302  1  0.53678039  0.24964905  0.68139184  1
  O  O303  1  0.53707772  0.25113436  0.93402876  1
  O  O304  1  0.53570101  0.58340623  0.18256162  1
  O  O305  1  0.53584129  0.58272073  0.43131299  1
  O  O306  1  0.53665329  0.58275176  0.68201411  1
  O  O307  1  0.53651034  0.58403285  0.93451149  1
  O  O308  1  0.53672799  0.91526715  0.18321152  1
  O  O309  1  0.53606349  0.91772331  0.43145889  1
  O  O310  1  0.53588274  0.91753919  0.68261473  1
  O  O311  1  0.53644053  0.91543639  0.93145015  1
  O  O312  1  0.46291928  0.08211321  0.06810294  1
  O  O313  1  0.46361534  0.08286304  0.31822497  1
  O  O314  1  0.46303748  0.08243708  0.56716253  1
  O  O315  1  0.46266602  0.08241704  0.81691804  1
  O  O316  1  0.46373764  0.41648267  0.06863355  1
  O  O317  1  0.46389308  0.41656120  0.31798023  1
  O  O318  1  0.46255546  0.41652136  0.56654267  1
  O  O319  1  0.46223065  0.41710678  0.81995273  1
  O  O320  1  0.46360156  0.74962607  0.06829522  1
  O  O321  1  0.46293737  0.75010770  0.31566459  1
  O  O322  1  0.46208241  0.75100594  0.56768401  1
  O  O323  1  0.46330000  0.75078414  0.81893326  1
  O  O324  1  0.96273918  0.08376208  0.06580984  1
  O  O325  1  0.96224762  0.08298020  0.31707334  1
  O  O326  1  0.96318499  0.08356058  0.56906114  1
  O  O327  1  0.96382541  0.08440186  0.81644822  1
  O  O328  1  0.96255588  0.41709147  0.06539342  1
  O  O329  1  0.96221579  0.41665992  0.31654043  1
  O  O330  1  0.96291785  0.41875341  0.56754337  1
  O  O331  1  0.96305048  0.41831003  0.81672989  1
  O  O332  1  0.96243216  0.74843009  0.06568156  1
  O  O333  1  0.96230270  0.74883769  0.31778453  1
  O  O334  1  0.96320048  0.75012508  0.56749061  1
  O  O335  1  0.96359157  0.74966909  0.81658556  1
  O  O336  1  0.21437698  0.08342956  0.05700769  1
  O  O337  1  0.21362072  0.08228698  0.30616765  1
  O  O338  1  0.21327668  0.08213151  0.55890563  1
  O  O339  1  0.21417484  0.08248574  0.80860768  1
  O  O340  1  0.21379275  0.41518218  0.05868008  1
  O  O341  1  0.21373656  0.41704564  0.30653376  1
  O  O342  1  0.21361349  0.41848465  0.55758387  1
  O  O343  1  0.21382601  0.41794851  0.80823921  1
  O  O344  1  0.21327180  0.74773084  0.05815992  1
  O  O345  1  0.21371246  0.74835530  0.30837318  1
  O  O346  1  0.21414473  0.75038530  0.55708251  1
  O  O347  1  0.21322950  0.75075455  0.80797143  1
  O  O348  1  0.71200645  0.08477315  0.05835871  1
  O  O349  1  0.71243187  0.08432564  0.30681126  1
  O  O350  1  0.71251778  0.08194313  0.55832483  1
  O  O351  1  0.71224810  0.08192986  0.80719936  1
  O  O352  1  0.71343318  0.41785036  0.05784410  1
  O  O353  1  0.71269049  0.41743386  0.30726772  1
  O  O354  1  0.71206716  0.41878337  0.55667767  1
  O  O355  1  0.71178455  0.41796053  0.80824823  1
  O  O356  1  0.71237669  0.75066981  0.05687001  1
  O  O357  1  0.71249286  0.74777095  0.30740998  1
  O  O358  1  0.71202449  0.74892741  0.55765769  1
  O  O359  1  0.71285638  0.75061086  0.80605773  1
  O  O360  1  0.28777889  0.24912301  0.19104657  1
  O  O361  1  0.28830120  0.25006932  0.44223033  1
  O  O362  1  0.28712200  0.25043187  0.69434241  1
  O  O363  1  0.28667535  0.25031335  0.94332532  1
  O  O364  1  0.28592654  0.58318137  0.19315816  1
  O  O365  1  0.28654734  0.58205191  0.44215891  1
  O  O366  1  0.28811627  0.58469594  0.69335901  1
  O  O367  1  0.28724062  0.58335736  0.94425352  1
  O  O368  1  0.28709191  0.91528857  0.19251919  1
  O  O369  1  0.28651766  0.91519420  0.44372739  1
  O  O370  1  0.28644446  0.91753465  0.69262158  1
  O  O371  1  0.28704122  0.91777187  0.94258108  1
  O  O372  1  0.78644661  0.25055837  0.19042284  1
  O  O373  1  0.78799069  0.25074525  0.44153706  1
  O  O374  1  0.78808612  0.24997448  0.69155071  1
  O  O375  1  0.78610700  0.25087279  0.94313130  1
  O  O376  1  0.78596129  0.58436160  0.19284250  1
  O  O377  1  0.78612839  0.58515893  0.44161545  1
  O  O378  1  0.78675027  0.58353026  0.69223852  1
  O  O379  1  0.78652015  0.58440939  0.94184356  1
  O  O380  1  0.78790148  0.91625436  0.19144527  1
  O  O381  1  0.78686939  0.91605545  0.44337971  1
  O  O382  1  0.78565903  0.91537077  0.69137242  1
  O  O383  1  0.78744092  0.91557061  0.94081469  1
  O  O384  1  0.22739212  0.24882748  0.05942015  1
  O  O385  1  0.22885950  0.24976342  0.30671121  1
  O  O386  1  0.22914438  0.25008296  0.55754474  1
  O  O387  1  0.22762724  0.25116266  0.81012112  1
  O  O388  1  0.22726070  0.58328653  0.05970289  1
  O  O389  1  0.22712844  0.58224213  0.30951618  1
  O  O390  1  0.22824425  0.58231415  0.55860282  1
  O  O391  1  0.22881149  0.58492283  0.80894430  1
  O  O392  1  0.22812375  0.91719121  0.05822234  1
  O  O393  1  0.22806687  0.91397342  0.30833640  1
  O  O394  1  0.22744840  0.91584728  0.55996431  1
  O  O395  1  0.22787093  0.91817908  0.80888257  1
  O  O396  1  0.72672693  0.25153379  0.05903118  1
  O  O397  1  0.72819776  0.25078382  0.30642822  1
  O  O398  1  0.72853593  0.25009440  0.55643074  1
  O  O399  1  0.72846149  0.25052539  0.80629432  1
  O  O400  1  0.72736212  0.58523592  0.05749214  1
  O  O401  1  0.72662583  0.58366271  0.30872528  1
  O  O402  1  0.72732510  0.58573995  0.55751301  1
  O  O403  1  0.72755209  0.58250788  0.80779091  1
  O  O404  1  0.72863614  0.91650545  0.05621209  1
  O  O405  1  0.72831618  0.91607200  0.30625997  1
  O  O406  1  0.72680975  0.91698590  0.55867021  1
  O  O407  1  0.72715745  0.91462171  0.80759542  1
  O  O408  1  0.27341049  0.08300958  0.19057565  1
  O  O409  1  0.27204491  0.08211431  0.44336441  1
  O  O410  1  0.27293058  0.08178618  0.69243339  1
  O  O411  1  0.27337709  0.08278034  0.94085573  1
  O  O412  1  0.27326971  0.41684382  0.19095980  1
  O  O413  1  0.27260986  0.41851053  0.44172522  1
  O  O414  1  0.27274882  0.41884537  0.69238359  1
  O  O415  1  0.27283483  0.41515248  0.94285806  1
  O  O416  1  0.27218331  0.74779280  0.19215752  1
  O  O417  1  0.27320331  0.75036200  0.44089888  1
  O  O418  1  0.27242977  0.75143810  0.69229055  1
  O  O419  1  0.27250959  0.74858631  0.94264556  1
  O  O420  1  0.77178463  0.08510881  0.19139868  1
  O  O421  1  0.77162917  0.08301394  0.44307345  1
  O  O422  1  0.77184861  0.08126543  0.69195256  1
  O  O423  1  0.77094885  0.08326475  0.94300656  1
  O  O424  1  0.77155577  0.41614463  0.19147916  1
  O  O425  1  0.77169060  0.41951841  0.44140810  1
  O  O426  1  0.77079379  0.41760825  0.69298351  1
  O  O427  1  0.77214825  0.41909028  0.94176302  1
  O  O428  1  0.77175180  0.74786495  0.19181567  1
  O  O429  1  0.77140169  0.74841994  0.44208801  1
  O  O430  1  0.77223444  0.74890071  0.69023206  1
  O  O431  1  0.77149588  0.75176320  0.94111349  1
  O  O432  1  0.02205948  0.08298853  0.18096121  1
  O  O433  1  0.02174051  0.08312070  0.43189415  1
  O  O434  1  0.02297466  0.08407387  0.68459316  1
  O  O435  1  0.02235348  0.08487935  0.93253838  1
  O  O436  1  0.02191199  0.41685434  0.18053150  1
  O  O437  1  0.02165663  0.41730742  0.43151056  1
  O  O438  1  0.02212621  0.41897656  0.68299987  1
  O  O439  1  0.02201554  0.41752827  0.93233739  1
  O  O440  1  0.02164353  0.74928764  0.18078402  1
  O  O441  1  0.02209158  0.74841492  0.43289762  1
  O  O442  1  0.02214303  0.75141089  0.68310974  1
  O  O443  1  0.02226647  0.74779378  0.93237036  1
  O  O444  1  0.52219420  0.08203535  0.18361430  1
  O  O445  1  0.52257217  0.08252936  0.43436122  1
  O  O446  1  0.52213160  0.08182494  0.68313919  1
  O  O447  1  0.52148304  0.08311835  0.93239303  1
  O  O448  1  0.52285525  0.41655252  0.18475760  1
  O  O449  1  0.52258049  0.41677678  0.43453808  1
  O  O450  1  0.52134230  0.41666428  0.68221161  1
  O  O451  1  0.52219526  0.41653568  0.93531946  1
  O  O452  1  0.52266507  0.75027993  0.18443544  1
  O  O453  1  0.52135922  0.75007539  0.43161438  1
  O  O454  1  0.52177183  0.75174639  0.68297881  1
  O  O455  1  0.52271135  0.75090382  0.93479178  1
  O  O456  1  0.47725712  0.25182425  0.06770999  1
  O  O457  1  0.47798051  0.25157887  0.31713575  1
  O  O458  1  0.47715275  0.25054595  0.56573738  1
  O  O459  1  0.47807287  0.24992334  0.81872056  1
  O  O460  1  0.47636290  0.58325329  0.06665744  1
  O  O461  1  0.47606221  0.58294250  0.31570448  1
  O  O462  1  0.47732504  0.58156492  0.56649538  1
  O  O463  1  0.47777722  0.58411960  0.81870575  1
  O  O464  1  0.47796489  0.91442619  0.06729022  1
  O  O465  1  0.47717454  0.91656130  0.31548320  1
  O  O466  1  0.47714399  0.91842561  0.56653866  1
  O  O467  1  0.47703000  0.91603812  0.81559264  1
  O  O468  1  0.97825203  0.24825893  0.06626208  1
  O  O469  1  0.97942823  0.25019897  0.31821221  1
  O  O470  1  0.97904709  0.25044855  0.56878850  1
  O  O471  1  0.97831179  0.24920309  0.81686730  1
  O  O472  1  0.97715085  0.58320961  0.06486797  1
  O  O473  1  0.97832835  0.58322941  0.31833178  1
  O  O474  1  0.97852390  0.58579254  0.56719627  1
  O  O475  1  0.97834150  0.58177179  0.81697370  1
  O  O476  1  0.97943191  0.91613563  0.06774595  1
  O  O477  1  0.97890858  0.91609704  0.31825898  1
  O  O478  1  0.97819995  0.91633406  0.56888983  1
  O  O479  1  0.97732064  0.91587203  0.81580253  1
  O  O480  1  0.07359229  0.31210639  0.07349171  1
  O  O481  1  0.07486646  0.31367094  0.32425648  1
  O  O482  1  0.07431376  0.31406624  0.57639339  1
  O  O483  1  0.07362694  0.31277792  0.82547915  1
  O  O484  1  0.07234781  0.64648214  0.07236393  1
  O  O485  1  0.07387184  0.64687507  0.32410360  1
  O  O486  1  0.07367771  0.64868428  0.57457616  1
  O  O487  1  0.07371750  0.64533769  0.82512603  1
  O  O488  1  0.07488951  0.97940055  0.07414893  1
  O  O489  1  0.07462079  0.97925531  0.32500684  1
  O  O490  1  0.07327291  0.98040379  0.57652202  1
  O  O491  1  0.07186759  0.98016805  0.82320600  1
  O  O492  1  0.57257877  0.31482364  0.07494374  1
  O  O493  1  0.57297352  0.31493854  0.32495562  1
  O  O494  1  0.57265357  0.31347185  0.57347098  1
  O  O495  1  0.57319587  0.31412423  0.82540968  1
  O  O496  1  0.57107195  0.64711729  0.07392750  1
  O  O497  1  0.57078143  0.64669649  0.32281546  1
  O  O498  1  0.57202067  0.64632230  0.57404887  1
  O  O499  1  0.57345482  0.64687466  0.82594643  1
  O  O500  1  0.57302068  0.97858746  0.07502039  1
  O  O501  1  0.57208216  0.98057696  0.32289187  1
  O  O502  1  0.57251540  0.98103325  0.57400620  1
  O  O503  1  0.57167517  0.98012804  0.82358357  1
  O  O504  1  0.42728233  0.01838997  0.17645070  1
  O  O505  1  0.42701043  0.01969042  0.42628828  1
  O  O506  1  0.42694722  0.01889963  0.67599990  1
  O  O507  1  0.42632973  0.01913193  0.92511213  1
  O  O508  1  0.42772507  0.35316781  0.17718703  1
  O  O509  1  0.42755268  0.35322554  0.42623762  1
  O  O510  1  0.42604910  0.35313611  0.67500726  1
  O  O511  1  0.42689989  0.35331202  0.92814754  1
  O  O512  1  0.42825243  0.68586901  0.17687146  1
  O  O513  1  0.42606459  0.68669764  0.42379452  1
  O  O514  1  0.42670828  0.68752785  0.67574899  1
  O  O515  1  0.42817486  0.68685883  0.92756924  1
  O  O516  1  0.92651889  0.01980453  0.17373214  1
  O  O517  1  0.92606717  0.01991159  0.42553864  1
  O  O518  1  0.92837940  0.01995032  0.67755733  1
  O  O519  1  0.92730850  0.02047881  0.92392835  1
  O  O520  1  0.92683817  0.35293189  0.17339374  1
  O  O521  1  0.92642186  0.35340900  0.42504229  1
  O  O522  1  0.92662627  0.35550363  0.67535365  1
  O  O523  1  0.92654550  0.35415859  0.92400319  1
  O  O524  1  0.92599924  0.68591156  0.17435313  1
  O  O525  1  0.92700729  0.68511276  0.42650381  1
  O  O526  1  0.92681865  0.68746556  0.67564405  1
  O  O527  1  0.92695680  0.68522822  0.92432739  1
  O  O528  1  0.17887350  0.01851507  0.19780269  1
  O  O529  1  0.17628918  0.01916289  0.45069402  1
  O  O530  1  0.17766527  0.01902070  0.70002766  1
  O  O531  1  0.17790529  0.01983918  0.94889325  1
  O  O532  1  0.17876535  0.35252291  0.19838595  1
  O  O533  1  0.17783426  0.35408005  0.45005385  1
  O  O534  1  0.17732995  0.35507401  0.70020310  1
  O  O535  1  0.17772837  0.35178264  0.94985385  1
  O  O536  1  0.17704039  0.68453079  0.20002332  1
  O  O537  1  0.17897886  0.68595478  0.44898093  1
  O  O538  1  0.17698058  0.68786999  0.69973896  1
  O  O539  1  0.17771507  0.68456985  0.94904840  1
  O  O540  1  0.67663832  0.02089558  0.19893037  1
  O  O541  1  0.67603554  0.01960311  0.44950599  1
  O  O542  1  0.67655973  0.01818956  0.69883785  1
  O  O543  1  0.67524442  0.02059362  0.95077144  1
  O  O544  1  0.67650432  0.35304823  0.19909844  1
  O  O545  1  0.67674280  0.35494422  0.44901901  1
  O  O546  1  0.67569518  0.35375608  0.70013864  1
  O  O547  1  0.67687049  0.35510145  0.94984942  1
  O  O548  1  0.67648121  0.68478074  0.19840735  1
  O  O549  1  0.67580321  0.68581430  0.44863943  1
  O  O550  1  0.67678837  0.68609334  0.69864495  1
  O  O551  1  0.67617890  0.68784522  0.94880723  1
  O  O552  1  0.32166811  0.31344670  0.05247577  1
  O  O553  1  0.32437635  0.31279743  0.29917147  1
  O  O554  1  0.32427758  0.31377396  0.55022100  1
  O  O555  1  0.32306396  0.31402030  0.80241668  1
  O  O556  1  0.32269677  0.64652346  0.05286449  1
  O  O557  1  0.32161144  0.64639471  0.30194462  1
  O  O558  1  0.32356781  0.64586456  0.54959474  1
  O  O559  1  0.32344643  0.64877643  0.80196864  1
  O  O560  1  0.32305051  0.98100790  0.05133578  1
  O  O561  1  0.32309409  0.97827081  0.30073109  1
  O  O562  1  0.32205880  0.97977893  0.55161925  1
  O  O563  1  0.32310164  0.98120536  0.80100871  1
  O  O564  1  0.82207231  0.31456726  0.05097981  1
  O  O565  1  0.82376562  0.31390361  0.29842957  1
  O  O566  1  0.82354734  0.31450429  0.54961890  1
  O  O567  1  0.82425501  0.31335200  0.79973655  1
  O  O568  1  0.82206941  0.64888087  0.05005636  1
  O  O569  1  0.82184798  0.64723034  0.30156129  1
  O  O570  1  0.82262811  0.64846584  0.55060003  1
  O  O571  1  0.82308679  0.64618700  0.80026142  1
  O  O572  1  0.82408344  0.97981519  0.04837267  1
  O  O573  1  0.82377715  0.97969537  0.29962104  1
  O  O574  1  0.82254670  0.97959503  0.55174269  1
  O  O575  1  0.82250081  0.97830913  0.79953115  1
  O  O576  1  0.42685926  0.14563101  0.17577156  1
  O  O577  1  0.42836630  0.14709755  0.42647682  1
  O  O578  1  0.42699603  0.14585607  0.67534531  1
  O  O579  1  0.42592657  0.14600529  0.92494420  1
  O  O580  1  0.42803674  0.48030820  0.17685138  1
  O  O581  1  0.42779843  0.48044165  0.42608487  1
  O  O582  1  0.42590030  0.47983543  0.67512853  1
  O  O583  1  0.42749863  0.48071188  0.92858985  1
  O  O584  1  0.42715381  0.81304992  0.17652303  1
  O  O585  1  0.42602892  0.81340414  0.42388720  1
  O  O586  1  0.42654526  0.81471879  0.67622182  1
  O  O587  1  0.42729487  0.81405757  0.92730841  1
  O  O588  1  0.92660335  0.14672535  0.17437020  1
  O  O589  1  0.92646435  0.14692667  0.42514832  1
  O  O590  1  0.92767449  0.14746123  0.67703611  1
  O  O591  1  0.92689209  0.14754551  0.92513585  1
  O  O592  1  0.92605783  0.47986253  0.17391283  1
  O  O593  1  0.92598257  0.48035994  0.42449895  1
  O  O594  1  0.92719385  0.48277294  0.67572423  1
  O  O595  1  0.92698018  0.48120891  0.92565875  1
  O  O596  1  0.92633653  0.81273164  0.17370274  1
  O  O597  1  0.92668590  0.81229887  0.42581547  1
  O  O598  1  0.92694622  0.81444931  0.67562844  1
  O  O599  1  0.92721143  0.81240121  0.92466575  1
  O  O600  1  0.07337209  0.18488389  0.07306345  1
  O  O601  1  0.07493365  0.18670177  0.32490712  1
  O  O602  1  0.07460094  0.18703894  0.57577520  1
  O  O603  1  0.07349415  0.18565475  0.82389900  1
  O  O604  1  0.07195541  0.51898673  0.07262294  1
  O  O605  1  0.07380985  0.52010391  0.32506100  1
  O  O606  1  0.07374256  0.52151051  0.57444889  1
  O  O607  1  0.07346121  0.51845124  0.82422665  1
  O  O608  1  0.07484958  0.85249882  0.07448292  1
  O  O609  1  0.07408712  0.85220241  0.32515403  1
  O  O610  1  0.07402612  0.85373651  0.57625305  1
  O  O611  1  0.07260367  0.85251055  0.82347523  1
  O  O612  1  0.57221922  0.18767588  0.07593403  1
  O  O613  1  0.57328010  0.18797357  0.32555043  1
  O  O614  1  0.57147270  0.18597591  0.57285417  1
  O  O615  1  0.57384799  0.18730437  0.82605635  1
  O  O616  1  0.57157065  0.51994139  0.07419082  1
  O  O617  1  0.57124678  0.51948721  0.32275909  1
  O  O618  1  0.57282995  0.51910895  0.57352847  1
  O  O619  1  0.57279378  0.52012648  0.82640087  1
  O  O620  1  0.57329871  0.85171945  0.07454735  1
  O  O621  1  0.57233890  0.85320374  0.32389661  1
  O  O622  1  0.57210172  0.85416915  0.57446328  1
  O  O623  1  0.57221035  0.85274707  0.82257783  1
  O  O624  1  0.32305679  0.18628468  0.05112131  1
  O  O625  1  0.32411491  0.18598755  0.29960727  1
  O  O626  1  0.32459339  0.18680082  0.55030657  1
  O  O627  1  0.32199430  0.18655607  0.80262846  1
  O  O628  1  0.32187982  0.51922896  0.05264835  1
  O  O629  1  0.32240537  0.51920438  0.30094718  1
  O  O630  1  0.32307112  0.51894065  0.55107406  1
  O  O631  1  0.32450409  0.52169177  0.80155634  1
  O  O632  1  0.32354343  0.85391384  0.05012943  1
  O  O633  1  0.32320552  0.85117148  0.30070132  1
  O  O634  1  0.32266379  0.85241682  0.55220600  1
  O  O635  1  0.32297887  0.85434440  0.80071417  1
  O  O636  1  0.82115994  0.18692415  0.05115501  1
  O  O637  1  0.82348559  0.18717917  0.29869907  1
  O  O638  1  0.82443542  0.18736859  0.54950306  1
  O  O639  1  0.82354130  0.18635120  0.79981188  1
  O  O640  1  0.82298364  0.52189473  0.05016289  1
  O  O641  1  0.82149993  0.51989078  0.30051467  1
  O  O642  1  0.82258634  0.52170145  0.54953059  1
  O  O643  1  0.82239080  0.51910470  0.80062941  1
  O  O644  1  0.82418114  0.85295366  0.04927920  1
  O  O645  1  0.82377591  0.85267464  0.29962590  1
  O  O646  1  0.82113483  0.85219517  0.55188518  1
  O  O647  1  0.82219918  0.85134297  0.79953757  1
  O  O648  1  0.17797491  0.14595191  0.19796032  1
  O  O649  1  0.17699654  0.14603735  0.45086112  1
  O  O650  1  0.17797896  0.14607277  0.70086938  1
  O  O651  1  0.17900393  0.14701753  0.94817848  1
  O  O652  1  0.17764127  0.47978892  0.19794709  1
  O  O653  1  0.17701516  0.48113278  0.44869462  1
  O  O654  1  0.17801948  0.48226141  0.69993922  1
  O  O655  1  0.17749637  0.47866747  0.95072445  1
  O  O656  1  0.17687621  0.81135850  0.20017066  1
  O  O657  1  0.17774351  0.81333126  0.44884292  1
  O  O658  1  0.17752480  0.81485747  0.69963597  1
  O  O659  1  0.17687582  0.81163312  0.95068735  1
  O  O660  1  0.67648931  0.14818282  0.19860836  1
  O  O661  1  0.67630936  0.14648701  0.45067711  1
  O  O662  1  0.67662480  0.14548775  0.69938643  1
  O  O663  1  0.67576134  0.14753681  0.94984188  1
  O  O664  1  0.67624653  0.48005480  0.19921017  1
  O  O665  1  0.67630490  0.48220148  0.44806414  1
  O  O666  1  0.67492064  0.48058841  0.69979984  1
  O  O667  1  0.67725983  0.48231114  0.94997031  1
  O  O668  1  0.67662381  0.81188679  0.19988282  1
  O  O669  1  0.67635210  0.81266143  0.44947097  1
  O  O670  1  0.67773733  0.81338468  0.69693793  1
  O  O671  1  0.67648801  0.81482602  0.94846131  1
