# generated using pymatgen
data_Na2MnFe(PO4)2
_symmetry_space_group_name_H-M   'P 1'
_cell_length_a   22.34577654
_cell_length_b   20.09774402
_cell_length_c   19.44733049
_cell_angle_alpha   90.02775151
_cell_angle_beta   90.01811780
_cell_angle_gamma   90.01482367
_symmetry_Int_Tables_number   1
_chemical_formula_structural   Na2MnFe(PO4)2
_chemical_formula_sum   'Na96 Mn48 Fe48 P96 O384'
_cell_volume   8733.78847302
_cell_formula_units_Z   48
loop_
 _symmetry_equiv_pos_site_id
 _symmetry_equiv_pos_as_xyz
  1  'x, y, z'
loop_
 _atom_site_type_symbol
 _atom_site_label
 _atom_site_symmetry_multiplicity
 _atom_site_fract_x
 _atom_site_fract_y
 _atom_site_fract_z
 _atom_site_occupancy
  Na  Na0  1  0.14009268  0.24861074  0.24360284  1
  Na  Na1  1  0.14050341  0.24921572  0.49292251  1
  Na  Na2  1  0.14038404  0.25186584  0.74356555  1
  Na  Na3  1  0.14025333  0.25069426  0.99286904  1
  Na  Na4  1  0.13954468  0.58291531  0.24406541  1
  Na  Na5  1  0.13939524  0.58292304  0.49291547  1
  Na  Na6  1  0.13985769  0.58391145  0.74376949  1
  Na  Na7  1  0.13993430  0.58343653  0.99155368  1
  Na  Na8  1  0.13951417  0.91704837  0.24301187  1
  Na  Na9  1  0.14015708  0.91656835  0.49276428  1
  Na  Na10  1  0.13938607  0.91745916  0.74424936  1
  Na  Na11  1  0.13954124  0.91678866  0.99281700  1
  Na  Na12  1  0.64093648  0.24957820  0.24391325  1
  Na  Na13  1  0.64114258  0.25022631  0.49535458  1
  Na  Na14  1  0.64124360  0.24928451  0.74316898  1
  Na  Na15  1  0.64121384  0.24974380  0.99463645  1
  Na  Na16  1  0.64061120  0.58481565  0.24453246  1
  Na  Na17  1  0.63995024  0.58413306  0.49388211  1
  Na  Na18  1  0.64073669  0.58220784  0.74230065  1
  Na  Na19  1  0.64082508  0.58416121  0.99419832  1
  Na  Na20  1  0.64078332  0.91534056  0.24344354  1
  Na  Na21  1  0.64059338  0.91625381  0.49519502  1
  Na  Na22  1  0.63996870  0.91483934  0.74425960  1
  Na  Na23  1  0.63978256  0.91626774  0.99370537  1
  Na  Na24  1  0.35962504  0.08278923  0.00511517  1
  Na  Na25  1  0.35952645  0.08309793  0.25607204  1
  Na  Na26  1  0.35940081  0.08229451  0.50588778  1
  Na  Na27  1  0.35963414  0.08333856  0.75755040  1
  Na  Na28  1  0.35946029  0.41697944  0.00423097  1
  Na  Na29  1  0.35909845  0.41649682  0.25687068  1
  Na  Na30  1  0.35950105  0.41744110  0.50600701  1
  Na  Na31  1  0.35958383  0.41881900  0.75611545  1
  Na  Na32  1  0.35923705  0.75134786  0.00487023  1
  Na  Na33  1  0.35897953  0.74977992  0.25603207  1
  Na  Na34  1  0.35875019  0.74848244  0.50644803  1
  Na  Na35  1  0.35854285  0.75132614  0.75681642  1
  Na  Na36  1  0.86002494  0.08205355  0.00755231  1
  Na  Na37  1  0.86056687  0.08185567  0.25727061  1
  Na  Na38  1  0.86073132  0.08332640  0.50724295  1
  Na  Na39  1  0.86032478  0.08110604  0.75647058  1
  Na  Na40  1  0.86076227  0.41787712  0.00741708  1
  Na  Na41  1  0.86008276  0.41897019  0.25602721  1
  Na  Na42  1  0.85990340  0.41775986  0.50783987  1
  Na  Na43  1  0.86094321  0.41676536  0.75663895  1
  Na  Na44  1  0.85971831  0.75033363  0.00794041  1
  Na  Na45  1  0.85981522  0.75038906  0.25535777  1
  Na  Na46  1  0.85940997  0.74959353  0.50581085  1
  Na  Na47  1  0.85968789  0.74903771  0.75598759  1
  Na  Na48  1  0.10967147  0.08306289  0.11886890  1
  Na  Na49  1  0.10980789  0.08225366  0.36776732  1
  Na  Na50  1  0.10956796  0.08288834  0.61827723  1
  Na  Na51  1  0.10901891  0.08340947  0.86896288  1
  Na  Na52  1  0.10935811  0.41805847  0.11815771  1
  Na  Na53  1  0.10926614  0.41668978  0.36899950  1
  Na  Na54  1  0.10979793  0.41708672  0.61865445  1
  Na  Na55  1  0.10970894  0.41709983  0.86799820  1
  Na  Na56  1  0.10870651  0.75084571  0.11719612  1
  Na  Na57  1  0.10899182  0.74879730  0.36827476  1
  Na  Na58  1  0.10931457  0.75020462  0.61788825  1
  Na  Na59  1  0.10923677  0.75024006  0.86789579  1
  Na  Na60  1  0.60975027  0.08252295  0.11916692  1
  Na  Na61  1  0.61016291  0.08317292  0.36954347  1
  Na  Na62  1  0.60983643  0.08252124  0.62062433  1
  Na  Na63  1  0.60947526  0.08123284  0.86884912  1
  Na  Na64  1  0.60967512  0.41701126  0.11935800  1
  Na  Na65  1  0.60974768  0.41677661  0.36993954  1
  Na  Na66  1  0.61019272  0.41782379  0.61848390  1
  Na  Na67  1  0.61015082  0.41599656  0.86822995  1
  Na  Na68  1  0.60988905  0.75127273  0.11806784  1
  Na  Na69  1  0.61013572  0.74952436  0.36889097  1
  Na  Na70  1  0.60917476  0.74924945  0.61898783  1
  Na  Na71  1  0.60991706  0.75055971  0.86875393  1
  Na  Na72  1  0.39041565  0.24984578  0.13048765  1
  Na  Na73  1  0.39054964  0.24972398  0.38090164  1
  Na  Na74  1  0.39062140  0.25027311  0.63142886  1
  Na  Na75  1  0.39094452  0.24932612  0.88015830  1
  Na  Na76  1  0.38976430  0.58368048  0.12981195  1
  Na  Na77  1  0.38963859  0.58310421  0.38196663  1
  Na  Na78  1  0.38957210  0.58396768  0.63101187  1
  Na  Na79  1  0.39017635  0.58382940  0.88058462  1
  Na  Na80  1  0.38971230  0.91829031  0.13029293  1
  Na  Na81  1  0.39009428  0.91646345  0.38109851  1
  Na  Na82  1  0.38996105  0.91703696  0.63247101  1
  Na  Na83  1  0.38961079  0.91691377  0.88106700  1
  Na  Na84  1  0.89165664  0.25077818  0.13192187  1
  Na  Na85  1  0.89117293  0.24929111  0.38215927  1
  Na  Na86  1  0.89174662  0.24980901  0.63217236  1
  Na  Na87  1  0.89118691  0.25051016  0.88135815  1
  Na  Na88  1  0.89047228  0.58455540  0.13152651  1
  Na  Na89  1  0.89008335  0.58315513  0.38174843  1
  Na  Na90  1  0.88994475  0.58259558  0.63146212  1
  Na  Na91  1  0.89085787  0.58260818  0.88217595  1
  Na  Na92  1  0.89019119  0.91738890  0.13211355  1
  Na  Na93  1  0.89044779  0.91621644  0.38123745  1
  Na  Na94  1  0.89052176  0.91698048  0.63097121  1
  Na  Na95  1  0.89038384  0.91577874  0.88278427  1
  Mn  Mn96  1  0.24943520  0.66691605  0.12442214  1
  Mn  Mn97  1  0.49954446  0.83358082  0.24986547  1
  Mn  Mn98  1  -0.00073268  0.66586390  0.74965776  1
  Mn  Mn99  1  0.74957429  0.50160513  0.37605176  1
  Mn  Mn100  1  0.25054023  0.33468257  0.62358254  1
  Mn  Mn101  1  0.75008569  -0.00189649  0.87621554  1
  Mn  Mn102  1  0.24971875  0.33308280  0.37486532  1
  Mn  Mn103  1  0.75062531  0.16561677  0.87505747  1
  Mn  Mn104  1  0.50044527  0.66756286  -0.00051865  1
  Mn  Mn105  1  0.75083785  0.33435159  0.37505396  1
  Mn  Mn106  1  -0.00071111  0.83396559  0.74957299  1
  Mn  Mn107  1  0.00007336  0.66662840  0.24918612  1
  Mn  Mn108  1  0.50071590  0.00052235  0.25023880  1
  Mn  Mn109  1  0.24896772  0.66675701  0.62538176  1
  Mn  Mn110  1  0.75074005  0.16655231  0.37583873  1
  Mn  Mn111  1  0.24943491  -0.00084161  0.62516643  1
  Mn  Mn112  1  0.50008557  0.16631572  0.50064303  1
  Mn  Mn113  1  0.24936248  0.83285618  0.37454025  1
  Mn  Mn114  1  0.75128837  0.16560539  0.12518677  1
  Mn  Mn115  1  0.75019550  0.83259840  0.62505605  1
  Mn  Mn116  1  0.75097106  0.33423648  0.12501400  1
  Mn  Mn117  1  0.75070748  0.33353388  0.87532870  1
  Mn  Mn118  1  0.49979546  0.66671764  0.74984965  1
  Mn  Mn119  1  0.49998621  0.50007822  -0.00021320  1
  Mn  Mn120  1  0.50094002  0.16551159  0.00007150  1
  Mn  Mn121  1  0.00006274  0.33382753  0.25077073  1
  Mn  Mn122  1  0.25010682  0.16684054  0.62501357  1
  Mn  Mn123  1  0.24895029  0.83428711  0.12525871  1
  Mn  Mn124  1  0.50025861  0.33339458  0.74974084  1
  Mn  Mn125  1  0.75082750  0.66693095  0.87533747  1
  Mn  Mn126  1  0.00018640  0.33288347  0.50033671  1
  Mn  Mn127  1  0.00008830  0.16706907  0.00019837  1
  Mn  Mn128  1  0.75041717  0.50024209  0.87478626  1
  Mn  Mn129  1  0.49953623  0.33279399  0.25001483  1
  Mn  Mn130  1  0.24995545  0.50029797  0.12417216  1
  Mn  Mn131  1  0.49956025  0.66705971  0.24965553  1
  Mn  Mn132  1  0.50030773  0.33284505  -0.00050908  1
  Mn  Mn133  1  0.50077207  0.33380292  0.50086533  1
  Mn  Mn134  1  0.00001363  0.83349538  0.49930516  1
  Mn  Mn135  1  0.49990831  -0.00011263  0.50080529  1
  Mn  Mn136  1  0.50032298  0.83260668  0.50068493  1
  Mn  Mn137  1  0.49980238  0.50018438  0.25017315  1
  Mn  Mn138  1  0.24948339  0.16728851  0.87469094  1
  Mn  Mn139  1  0.24964890  0.33315742  0.12488505  1
  Mn  Mn140  1  0.75104408  0.16603970  0.62565001  1
  Mn  Mn141  1  0.74989918  -0.00106887  0.37559526  1
  Mn  Mn142  1  0.00032670  0.16627218  0.75078835  1
  Mn  Mn143  1  0.25040659  0.16551649  0.12350243  1
  Fe  Fe144  1  0.75130447  0.33334408  0.62522314  1
  Fe  Fe145  1  0.74985965  0.66736855  0.12531960  1
  Fe  Fe146  1  0.75053798  -0.00102665  0.62540970  1
  Fe  Fe147  1  0.24956802  0.50081510  0.87430391  1
  Fe  Fe148  1  0.24937068  0.83409639  0.87514953  1
  Fe  Fe149  1  -0.00058889  0.66602685  0.49933742  1
  Fe  Fe150  1  0.00004157  0.00005983  0.24991654  1
  Fe  Fe151  1  -0.00010824  -0.00009021  0.75002494  1
  Fe  Fe152  1  0.75033342  0.83282277  0.87562003  1
  Fe  Fe153  1  0.24954805  -0.00010601  0.12469752  1
  Fe  Fe154  1  0.50019780  0.50058332  0.74933049  1
  Fe  Fe155  1  -0.00027295  0.83407924  -0.00031063  1
  Fe  Fe156  1  0.00073198  0.16574002  0.50058108  1
  Fe  Fe157  1  0.00052084  -0.00013085  0.49934197  1
  Fe  Fe158  1  0.00077509  0.33438466  0.00062857  1
  Fe  Fe159  1  0.24921120  0.00014583  0.87478343  1
  Fe  Fe160  1  0.75032579  0.83271026  0.37485811  1
  Fe  Fe161  1  0.00019059  0.50026429  -0.00028286  1
  Fe  Fe162  1  0.50051621  0.16588875  0.75079997  1
  Fe  Fe163  1  -0.00048943  0.00022097  0.00069621  1
  Fe  Fe164  1  0.49923943  0.66676827  0.50022642  1
  Fe  Fe165  1  0.00008660  0.66709213  -0.00014285  1
  Fe  Fe166  1  -0.00015497  0.50056349  0.24954168  1
  Fe  Fe167  1  0.00019833  0.16641250  0.25052013  1
  Fe  Fe168  1  -0.00025988  0.83359771  0.24924736  1
  Fe  Fe169  1  0.49953914  0.50064157  0.49988327  1
  Fe  Fe170  1  0.00071173  0.49974589  0.75032939  1
  Fe  Fe171  1  0.49906606  0.83320354  0.75001919  1
  Fe  Fe172  1  0.49968507  -0.00067344  0.75052310  1
  Fe  Fe173  1  -0.00056450  0.49953037  0.50023514  1
  Fe  Fe174  1  0.74964862  -0.00110569  0.12572589  1
  Fe  Fe175  1  0.25015027  0.16576171  0.37413773  1
  Fe  Fe176  1  0.24933138  0.83329125  0.62521741  1
  Fe  Fe177  1  0.24924202  0.50010430  0.37492575  1
  Fe  Fe178  1  0.50014740  0.16657560  0.24999805  1
  Fe  Fe179  1  0.74980447  0.83304965  0.12555856  1
  Fe  Fe180  1  0.24914776  0.66606118  0.37569375  1
  Fe  Fe181  1  0.24948784  0.66764825  0.87421137  1
  Fe  Fe182  1  0.25020675  -0.00076470  0.37493821  1
  Fe  Fe183  1  0.75048646  0.50021535  0.62476224  1
  Fe  Fe184  1  0.74999572  0.50110557  0.12579009  1
  Fe  Fe185  1  0.25048229  0.33438291  0.87384675  1
  Fe  Fe186  1  0.74966983  0.66685404  0.62484454  1
  Fe  Fe187  1  0.75050635  0.66743449  0.37456815  1
  Fe  Fe188  1  0.49922814  0.83412555  -0.00107827  1
  Fe  Fe189  1  0.49915752  -0.00033884  -0.00065913  1
  Fe  Fe190  1  0.00071051  0.33380883  0.75059530  1
  Fe  Fe191  1  0.24939918  0.50090647  0.62526750  1
  P  P192  1  0.04259645  0.25148782  0.10284685  1
  P  P193  1  0.04222225  0.24819084  0.35309894  1
  P  P194  1  0.04286925  0.24868291  0.60291766  1
  P  P195  1  0.04239376  0.25163276  0.85308834  1
  P  P196  1  0.04144529  0.58365556  0.10118644  1
  P  P197  1  0.04120123  0.58205755  0.35283277  1
  P  P198  1  0.04090662  0.58280820  0.60145942  1
  P  P199  1  0.04176879  0.58213192  0.85306761  1
  P  P200  1  0.04097062  0.91704968  0.10205717  1
  P  P201  1  0.04106151  0.91648705  0.35126237  1
  P  P202  1  0.04230045  0.91818768  0.60214020  1
  P  P203  1  0.04111723  0.91790423  0.85318032  1
  P  P204  1  0.54325817  0.24943850  0.10356274  1
  P  P205  1  0.54273697  0.24877340  0.35266979  1
  P  P206  1  0.54309135  0.24947746  0.60430479  1
  P  P207  1  0.54321210  0.24834850  0.85230979  1
  P  P208  1  0.54299355  0.58387588  0.10292410  1
  P  P209  1  0.54222699  0.58371913  0.35415389  1
  P  P210  1  0.54099950  0.58359133  0.60181058  1
  P  P211  1  0.54284253  0.58251048  0.85193035  1
  P  P212  1  0.54094761  0.91702547  0.10103028  1
  P  P213  1  0.54327014  0.91637910  0.35338735  1
  P  P214  1  0.54242701  0.91635310  0.60468289  1
  P  P215  1  0.54075328  0.91599091  0.85218182  1
  P  P216  1  0.45770731  0.08423047  0.14729467  1
  P  P217  1  0.45735047  0.08338467  0.39674557  1
  P  P218  1  0.45820640  0.08303502  0.64933690  1
  P  P219  1  0.45792270  0.08166859  0.89651665  1
  P  P220  1  0.45650104  0.41663535  0.14674412  1
  P  P221  1  0.45769312  0.41748052  0.39800150  1
  P  P222  1  0.45812951  0.41868300  0.64696618  1
  P  P223  1  0.45768973  0.41677742  0.89564805  1
  P  P224  1  0.45669806  0.75104075  0.14572798  1
  P  P225  1  0.45708380  0.74895152  0.39777958  1
  P  P226  1  0.45705270  0.75068543  0.64742061  1
  P  P227  1  0.45773134  0.75166169  0.89646840  1
  P  P228  1  0.95900908  0.08363476  0.14852311  1
  P  P229  1  0.95902087  0.08300604  0.39788421  1
  P  P230  1  0.95841714  0.08195727  0.64714640  1
  P  P231  1  0.95773695  0.08190891  0.89786701  1
  P  P232  1  0.95831991  0.41833364  0.14705419  1
  P  P233  1  0.95753885  0.41744809  0.39780523  1
  P  P234  1  0.95945299  0.41689394  0.64847416  1
  P  P235  1  0.95903220  0.41671397  0.89804769  1
  P  P236  1  0.95821977  0.75161616  0.14635994  1
  P  P237  1  0.95788912  0.74878591  0.39683986  1
  P  P238  1  0.95733613  0.74968191  0.64618749  1
  P  P239  1  0.95845958  0.74990820  0.89851082  1
  P  P240  1  0.20808610  0.08189817  0.22768779  1
  P  P241  1  0.20860402  0.08269802  0.47613723  1
  P  P242  1  0.20714517  0.08325505  0.72840742  1
  P  P243  1  0.20733601  0.08199157  0.97720470  1
  P  P244  1  0.20708680  0.41717219  0.22823732  1
  P  P245  1  0.20738278  0.41820346  0.47747136  1
  P  P246  1  0.20820005  0.41855138  0.72776725  1
  P  P247  1  0.20847227  0.41695193  0.97562130  1
  P  P248  1  0.20626984  0.74972382  0.22818146  1
  P  P249  1  0.20680236  0.74875479  0.47759418  1
  P  P250  1  0.20698430  0.75181905  0.72818373  1
  P  P251  1  0.20789551  0.75051485  0.97604521  1
  P  P252  1  0.70834272  0.08145601  0.22789311  1
  P  P253  1  0.70786867  0.08283274  0.47932826  1
  P  P254  1  0.70851205  0.08074519  0.72798944  1
  P  P255  1  0.70751459  0.08223856  0.97904984  1
  P  P256  1  0.70799453  0.41869186  0.22780743  1
  P  P257  1  0.70795087  0.41707676  0.47955750  1
  P  P258  1  0.70953347  0.41649530  0.72627638  1
  P  P259  1  0.70783319  0.41760082  0.97878083  1
  P  P260  1  0.70848424  0.75024460  0.22732530  1
  P  P261  1  0.70857885  0.74973993  0.47679898  1
  P  P262  1  0.70761297  0.74853542  0.72770535  1
  P  P263  1  0.70805178  0.75133910  0.97838467  1
  P  P264  1  0.29260659  0.25056932  0.02061273  1
  P  P265  1  0.29187998  0.24849631  0.27222636  1
  P  P266  1  0.29295563  0.24944335  0.52088563  1
  P  P267  1  0.29247957  0.25188341  0.77202611  1
  P  P268  1  0.29195343  0.58398226  0.02009572  1
  P  P269  1  0.29101348  0.58360801  0.27354212  1
  P  P270  1  0.29103048  0.58227666  0.52208338  1
  P  P271  1  0.29086539  0.58419648  0.77294486  1
  P  P272  1  0.29110318  0.91806706  0.02151061  1
  P  P273  1  0.29189823  0.91779882  0.27210001  1
  P  P274  1  0.29189773  0.91482511  0.52242930  1
  P  P275  1  0.29048780  0.91677591  0.77322363  1
  P  P276  1  0.79403912  0.24982782  0.02221858  1
  P  P277  1  0.79370111  0.25004134  0.27221722  1
  P  P278  1  0.79350887  0.25107882  0.52327761  1
  P  P279  1  0.79342239  0.24988923  0.77169503  1
  P  P280  1  0.79167140  0.58385749  0.02402765  1
  P  P281  1  0.79217870  0.58530611  0.27211330  1
  P  P282  1  0.79129346  0.58433432  0.52332870  1
  P  P283  1  0.79302850  0.58346251  0.77105099  1
  P  P284  1  0.79144157  0.91568932  0.02395758  1
  P  P285  1  0.79193706  0.91464023  0.27205553  1
  P  P286  1  0.79256971  0.91689331  0.52243192  1
  P  P287  1  0.79258534  0.91434339  0.77292107  1
  O  O288  1  0.03713200  0.25093889  0.18275446  1
  O  O289  1  0.03676932  0.24781042  0.43303627  1
  O  O290  1  0.03769028  0.24917926  0.68286036  1
  O  O291  1  0.03745082  0.25225688  0.93302998  1
  O  O292  1  0.03660806  0.58373261  0.18116803  1
  O  O293  1  0.03557642  0.58228051  0.43266511  1
  O  O294  1  0.03617725  0.58270243  0.68146899  1
  O  O295  1  0.03645186  0.58253003  0.93291591  1
  O  O296  1  0.03617318  0.91621644  0.18197215  1
  O  O297  1  0.03635563  0.91709293  0.43123790  1
  O  O298  1  0.03691125  0.91828812  0.68207563  1
  O  O299  1  0.03566977  0.91766056  0.93303730  1
  O  O300  1  0.53783225  0.24914799  0.18351642  1
  O  O301  1  0.53777954  0.24931932  0.43270772  1
  O  O302  1  0.53774205  0.24899551  0.68424006  1
  O  O303  1  0.53809601  0.24875347  0.93231452  1
  O  O304  1  0.53784789  0.58409333  0.18289971  1
  O  O305  1  0.53669587  0.58382390  0.43411171  1
  O  O306  1  0.53616654  0.58314916  0.68181941  1
  O  O307  1  0.53779618  0.58300595  0.93188551  1
  O  O308  1  0.53640083  0.91688254  0.18104099  1
  O  O309  1  0.53848817  0.91618202  0.43337630  1
  O  O310  1  0.53678364  0.91621637  0.68457573  1
  O  O311  1  0.53527057  0.91624298  0.93209871  1
  O  O312  1  0.46282561  0.08324373  0.06733105  1
  O  O313  1  0.46255161  0.08399998  0.31679717  1
  O  O314  1  0.46308980  0.08291160  0.56931277  1
  O  O315  1  0.46347629  0.08203741  0.81665604  1
  O  O316  1  0.46171191  0.41641392  0.06673451  1
  O  O317  1  0.46230294  0.41703021  0.31798497  1
  O  O318  1  0.46355029  0.41892662  0.56700679  1
  O  O319  1  0.46321418  0.41736888  0.81568104  1
  O  O320  1  0.46197148  0.75163605  0.06572904  1
  O  O321  1  0.46184907  0.74927717  0.31773317  1
  O  O322  1  0.46233023  0.74982843  0.56747925  1
  O  O323  1  0.46281475  0.75168879  0.81649034  1
  O  O324  1  0.96372314  0.08317683  0.06856239  1
  O  O325  1  0.96401756  0.08351306  0.31795624  1
  O  O326  1  0.96410636  0.08233895  0.56727905  1
  O  O327  1  0.96312299  0.08168766  0.81793914  1
  O  O328  1  0.96391333  0.41790859  0.06718082  1
  O  O329  1  0.96262587  0.41750651  0.31789369  1
  O  O330  1  0.96409686  0.41665626  0.56849468  1
  O  O331  1  0.96445665  0.41672510  0.81812949  1
  O  O332  1  0.96370363  0.75135863  0.06651051  1
  O  O333  1  0.96319436  0.74919396  0.31692421  1
  O  O334  1  0.96280273  0.74928902  0.56629723  1
  O  O335  1  0.96278155  0.74989132  0.81846961  1
  O  O336  1  0.21270467  0.08178168  0.05715341  1
  O  O337  1  0.21367344  0.08208231  0.30756500  1
  O  O338  1  0.21339631  0.08287554  0.55616308  1
  O  O339  1  0.21226592  0.08290448  0.80834492  1
  O  O340  1  0.21321473  0.41694702  0.05564675  1
  O  O341  1  0.21227001  0.41755881  0.30821113  1
  O  O342  1  0.21263177  0.41849598  0.55744062  1
  O  O343  1  0.21389803  0.41818303  0.80764175  1
  O  O344  1  0.21240518  0.75066879  0.05605470  1
  O  O345  1  0.21133500  0.74913311  0.30813635  1
  O  O346  1  0.21174336  0.74926564  0.55755767  1
  O  O347  1  0.21237172  0.75150990  0.80806384  1
  O  O348  1  0.71268386  0.08184761  0.05902309  1
  O  O349  1  0.71334426  0.08168923  0.30790809  1
  O  O350  1  0.71326535  0.08234346  0.55927033  1
  O  O351  1  0.71358948  0.08083690  0.80797955  1
  O  O352  1  0.71288706  0.41827387  0.05874113  1
  O  O353  1  0.71316938  0.41857469  0.30782576  1
  O  O354  1  0.71352459  0.41654762  0.55944721  1
  O  O355  1  0.71389754  0.41683224  0.80634498  1
  O  O356  1  0.71297850  0.75141920  0.05828020  1
  O  O357  1  0.71362402  0.75007067  0.30721858  1
  O  O358  1  0.71383325  0.74925692  0.55673586  1
  O  O359  1  0.71278624  0.74903618  0.80759100  1
  O  O360  1  0.28698478  0.24867437  0.19221300  1
  O  O361  1  0.28756173  0.24872999  0.44094284  1
  O  O362  1  0.28744623  0.25155620  0.69202270  1
  O  O363  1  0.28718251  0.25127026  0.94066200  1
  O  O364  1  0.28618798  0.58371401  0.19349121  1
  O  O365  1  0.28571905  0.58251450  0.44220513  1
  O  O366  1  0.28574897  0.58373373  0.69296480  1
  O  O367  1  0.28650595  0.58413300  0.94020828  1
  O  O368  1  0.28652755  0.91801657  0.19215405  1
  O  O369  1  0.28690184  0.91549311  0.44247208  1
  O  O370  1  0.28594395  0.91584789  0.69323584  1
  O  O371  1  0.28561772  0.91796713  0.94163026  1
  O  O372  1  0.78867123  0.24988204  0.19222865  1
  O  O373  1  0.78844057  0.25094975  0.44328132  1
  O  O374  1  0.78821572  0.25038819  0.69169956  1
  O  O375  1  0.78881025  0.24966654  0.94221787  1
  O  O376  1  0.78678426  0.58469370  0.19226162  1
  O  O377  1  0.78657562  0.58463038  0.44336240  1
  O  O378  1  0.78780356  0.58360389  0.69115156  1
  O  O379  1  0.78739323  0.58393028  0.94397013  1
  O  O380  1  0.78631193  0.91514632  0.19217109  1
  O  O381  1  0.78723249  0.91620460  0.44253693  1
  O  O382  1  0.78776607  0.91505777  0.69296324  1
  O  O383  1  0.78674801  0.91532801  0.94394948  1
  O  O384  1  0.22832675  0.24976916  0.05609194  1
  O  O385  1  0.22758724  0.24885034  0.30761562  1
  O  O386  1  0.22863424  0.25016551  0.55626796  1
  O  O387  1  0.22813779  0.25208251  0.80742473  1
  O  O388  1  0.22770441  0.58371590  0.05580116  1
  O  O389  1  0.22673777  0.58376121  0.30921737  1
  O  O390  1  0.22688633  0.58216035  0.55822193  1
  O  O391  1  0.22675793  0.58469894  0.80894333  1
  O  O392  1  0.22700585  0.91868586  0.05782766  1
  O  O393  1  0.22762761  0.91783947  0.30781794  1
  O  O394  1  0.22749331  0.91481504  0.55786706  1
  O  O395  1  0.22628805  0.91761645  0.80884105  1
  O  O396  1  0.72964373  0.24975088  0.05726405  1
  O  O397  1  0.72924232  0.25008087  0.30718917  1
  O  O398  1  0.72919926  0.25103694  0.55871084  1
  O  O399  1  0.72905999  0.24976436  0.80695866  1
  O  O400  1  0.72739965  0.58332752  0.05942723  1
  O  O401  1  0.72805144  0.58590198  0.30830200  1
  O  O402  1  0.72714180  0.58428376  0.55923921  1
  O  O403  1  0.72874358  0.58370992  0.80659931  1
  O  O404  1  0.72714275  0.91556956  0.05955397  1
  O  O405  1  0.72788928  0.91420222  0.30831956  1
  O  O406  1  0.72840145  0.91728394  0.55838433  1
  O  O407  1  0.72815693  0.91381997  0.80825133  1
  O  O408  1  0.27213346  0.08123737  0.19121593  1
  O  O409  1  0.27278406  0.08224264  0.44039894  1
  O  O410  1  0.27152288  0.08293651  0.69323689  1
  O  O411  1  0.27152707  0.08225349  0.94138539  1
  O  O412  1  0.27144257  0.41690669  0.19295915  1
  O  O413  1  0.27158512  0.41800025  0.44170967  1
  O  O414  1  0.27222158  0.41912513  0.69130965  1
  O  O415  1  0.27262915  0.41715334  0.93980264  1
  O  O416  1  0.27068411  0.75035155  0.19306385  1
  O  O417  1  0.27107233  0.74832528  0.44189152  1
  O  O418  1  0.27111536  0.75164689  0.69203164  1
  O  O419  1  0.27210512  0.74975002  0.94039772  1
  O  O420  1  0.77270573  0.08073445  0.19256185  1
  O  O421  1  0.77217471  0.08270117  0.44389578  1
  O  O422  1  0.77281063  0.08080950  0.69249205  1
  O  O423  1  0.77193146  0.08219046  0.94393905  1
  O  O424  1  0.77233139  0.41919181  0.19231621  1
  O  O425  1  0.77212770  0.41771304  0.44372017  1
  O  O426  1  0.77386056  0.41643684  0.69099688  1
  O  O427  1  0.77231411  0.41726322  0.94375399  1
  O  O428  1  0.77250922  0.75088213  0.19098668  1
  O  O429  1  0.77267604  0.74999377  0.44046209  1
  O  O430  1  0.77189987  0.74807881  0.69201710  1
  O  O431  1  0.77239256  0.75150469  0.94267745  1
  O  O432  1  0.02313208  0.08406708  0.18446055  1
  O  O433  1  0.02316507  0.08279231  0.43415874  1
  O  O434  1  0.02241663  0.08174421  0.68369668  1
  O  O435  1  0.02190947  0.08184284  0.93386580  1
  O  O436  1  0.02232716  0.41845782  0.18351060  1
  O  O437  1  0.02183068  0.41765537  0.43351469  1
  O  O438  1  0.02359413  0.41759137  0.68441790  1
  O  O439  1  0.02307574  0.41713917  0.93455279  1
  O  O440  1  0.02221601  0.75183777  0.18278838  1
  O  O441  1  0.02200259  0.74873578  0.43285124  1
  O  O442  1  0.02146124  0.74993500  0.68200663  1
  O  O443  1  0.02275994  0.74996717  0.93383639  1
  O  O444  1  0.52205299  0.08507565  0.18299176  1
  O  O445  1  0.52174921  0.08299065  0.43199459  1
  O  O446  1  0.52247134  0.08270205  0.68502364  1
  O  O447  1  0.52200919  0.08079629  0.93279966  1
  O  O448  1  0.52098337  0.41657318  0.18171927  1
  O  O449  1  0.52210815  0.41786692  0.43316585  1
  O  O450  1  0.52235235  0.41850143  0.68282127  1
  O  O451  1  0.52195471  0.41662700  0.93122597  1
  O  O452  1  0.52111937  0.75052705  0.18096911  1
  O  O453  1  0.52155297  0.74819173  0.43295654  1
  O  O454  1  0.52135077  0.75111813  0.68300030  1
  O  O455  1  0.52194517  0.75201434  0.93223594  1
  O  O456  1  0.47896948  0.24933859  0.06803506  1
  O  O457  1  0.47827994  0.24815333  0.31731104  1
  O  O458  1  0.47879646  0.25005741  0.56885625  1
  O  O459  1  0.47882301  0.24842187  0.81692329  1
  O  O460  1  0.47855709  0.58410289  0.06788383  1
  O  O461  1  0.47795793  0.58372069  0.31843538  1
  O  O462  1  0.47682021  0.58408544  0.56588097  1
  O  O463  1  0.47836120  0.58217505  0.81668313  1
  O  O464  1  0.47666772  0.91731447  0.06533401  1
  O  O465  1  0.47873048  0.91705188  0.31861943  1
  O  O466  1  0.47824240  0.91613233  0.56881870  1
  O  O467  1  0.47674222  0.91634210  0.81564203  1
  O  O468  1  0.97844321  0.25181680  0.06681229  1
  O  O469  1  0.97811144  0.24839291  0.31700017  1
  O  O470  1  0.97862830  0.24842232  0.56715638  1
  O  O471  1  0.97823369  0.25110200  0.81728565  1
  O  O472  1  0.97726572  0.58319427  0.06530922  1
  O  O473  1  0.97724190  0.58206034  0.31624570  1
  O  O474  1  0.97668327  0.58246806  0.56562463  1
  O  O475  1  0.97768358  0.58115897  0.81683095  1
  O  O476  1  0.97680358  0.91755391  0.06604216  1
  O  O477  1  0.97694529  0.91595492  0.31528396  1
  O  O478  1  0.97812933  0.91825197  0.56615994  1
  O  O479  1  0.97704074  0.91827854  0.81686465  1
  O  O480  1  0.07345572  0.31510948  0.07464566  1
  O  O481  1  0.07320466  0.31219348  0.32600286  1
  O  O482  1  0.07405042  0.31214663  0.57476424  1
  O  O483  1  0.07294290  0.31493562  0.82363330  1
  O  O484  1  0.07154258  0.64783050  0.07287890  1
  O  O485  1  0.07256769  0.64548800  0.32471769  1
  O  O486  1  0.07110816  0.64687952  0.57308041  1
  O  O487  1  0.07226880  0.64597079  0.82466801  1
  O  O488  1  0.07212468  0.98067572  0.07416539  1
  O  O489  1  0.07151728  0.98019834  0.32245162  1
  O  O490  1  0.07349870  0.98125605  0.57328120  1
  O  O491  1  0.07236372  0.98111700  0.82459553  1
  O  O492  1  0.57415070  0.31310986  0.07549059  1
  O  O493  1  0.57342568  0.31261815  0.32480352  1
  O  O494  1  0.57425404  0.31308295  0.57649148  1
  O  O495  1  0.57446042  0.31178290  0.82437474  1
  O  O496  1  0.57412242  0.64722017  0.07457445  1
  O  O497  1  0.57347872  0.64698007  0.32558172  1
  O  O498  1  0.57184181  0.64744183  0.57402291  1
  O  O499  1  0.57362300  0.64629592  0.82407358  1
  O  O500  1  0.57183550  0.98066799  0.07305586  1
  O  O501  1  0.57468256  0.97957460  0.32517293  1
  O  O502  1  0.57350588  0.97981621  0.57644481  1
  O  O503  1  0.57218630  0.97933217  0.82393271  1
  O  O504  1  0.42691520  0.02064325  0.17564386  1
  O  O505  1  0.42635878  0.01973748  0.42476241  1
  O  O506  1  0.42711827  0.01945456  0.67730567  1
  O  O507  1  0.42650676  0.01847215  0.92500600  1
  O  O508  1  0.42544082  0.35325872  0.17509367  1
  O  O509  1  0.42685730  0.35381937  0.42606615  1
  O  O510  1  0.42700769  0.35484958  0.67428316  1
  O  O511  1  0.42680816  0.35295450  0.92323713  1
  O  O512  1  0.42547002  0.68751117  0.17359376  1
  O  O513  1  0.42600724  0.68567724  0.42629919  1
  O  O514  1  0.42588153  0.68726674  0.67567195  1
  O  O515  1  0.42705553  0.68767138  0.92403370  1
  O  O516  1  0.92852260  0.01988816  0.17727444  1
  O  O517  1  0.92805254  0.01918494  0.42574850  1
  O  O518  1  0.92729473  0.01853255  0.67548936  1
  O  O519  1  0.92647680  0.01891165  0.92682582  1
  O  O520  1  0.92696930  0.35501758  0.17537882  1
  O  O521  1  0.92685322  0.35355026  0.42566267  1
  O  O522  1  0.92961551  0.35267365  0.67701983  1
  O  O523  1  0.92831215  0.35306186  0.92654883  1
  O  O524  1  0.92713940  0.68797974  0.17437590  1
  O  O525  1  0.92733713  0.68508512  0.42533839  1
  O  O526  1  0.92608888  0.68650287  0.67472043  1
  O  O527  1  0.92773408  0.68616464  0.92668945  1
  O  O528  1  0.17670680  0.01870180  0.19907982  1
  O  O529  1  0.17750669  0.01905593  0.44823054  1
  O  O530  1  0.17565349  0.02024529  0.69970568  1
  O  O531  1  0.17637040  0.01875085  0.94842924  1
  O  O532  1  0.17606702  0.35346967  0.20034686  1
  O  O533  1  0.17629620  0.35431934  0.45003028  1
  O  O534  1  0.17726739  0.35493445  0.69946955  1
  O  O535  1  0.17780181  0.35319360  0.94746287  1
  O  O536  1  0.17527037  0.68652235  0.19922076  1
  O  O537  1  0.17610613  0.68507045  0.44927887  1
  O  O538  1  0.17558265  0.68833171  0.70008661  1
  O  O539  1  0.17645967  0.68729809  0.94781718  1
  O  O540  1  0.67722654  0.01800711  0.19957086  1
  O  O541  1  0.67623551  0.01985967  0.45078493  1
  O  O542  1  0.67797074  0.01705315  0.69963933  1
  O  O543  1  0.67624522  0.01897481  0.95057405  1
  O  O544  1  0.67735556  0.35472279  0.20016921  1
  O  O545  1  0.67696342  0.35370650  0.45072964  1
  O  O546  1  0.67856398  0.35282806  0.69844108  1
  O  O547  1  0.67693342  0.35383222  0.95080033  1
  O  O548  1  0.67822530  0.68636204  0.19842220  1
  O  O549  1  0.67771647  0.68628165  0.44824544  1
  O  O550  1  0.67668209  0.68512493  0.69901040  1
  O  O551  1  0.67710118  0.68765687  0.95025177  1
  O  O552  1  0.32356382  0.31378682  0.04954422  1
  O  O553  1  0.32334785  0.31192182  0.30001063  1
  O  O554  1  0.32417199  0.31314641  0.54849405  1
  O  O555  1  0.32332022  0.31548581  0.80014125  1
  O  O556  1  0.32302216  0.64735804  0.04881265  1
  O  O557  1  0.32181543  0.64725720  0.30183691  1
  O  O558  1  0.32211080  0.64582878  0.55044586  1
  O  O559  1  0.32193715  0.64797900  0.80060569  1
  O  O560  1  0.32253428  0.98115413  0.05021847  1
  O  O561  1  0.32306701  0.98086221  0.30105504  1
  O  O562  1  0.32320843  0.97818484  0.55078854  1
  O  O563  1  0.32176565  0.98036836  0.80095177  1
  O  O564  1  0.82494345  0.31342539  0.05026802  1
  O  O565  1  0.82464673  0.31372722  0.30003832  1
  O  O566  1  0.82421963  0.31468216  0.55174413  1
  O  O567  1  0.82466515  0.31310659  0.80030719  1
  O  O568  1  0.82163740  0.64805428  0.05235667  1
  O  O569  1  0.82330120  0.64877198  0.30049386  1
  O  O570  1  0.82246451  0.64765459  0.55169271  1
  O  O571  1  0.82441374  0.64655928  0.79999158  1
  O  O572  1  0.82174361  0.97979458  0.05216842  1
  O  O573  1  0.82315097  0.97814550  0.30023890  1
  O  O574  1  0.82325234  0.98054556  0.55084667  1
  O  O575  1  0.82360775  0.97769478  0.80155983  1
  O  O576  1  0.42684359  0.14782916  0.17543958  1
  O  O577  1  0.42625184  0.14654840  0.42555297  1
  O  O578  1  0.42772180  0.14697343  0.67728744  1
  O  O579  1  0.42713948  0.14538528  0.92467212  1
  O  O580  1  0.42557734  0.48026077  0.17467095  1
  O  O581  1  0.42692446  0.48109869  0.42629533  1
  O  O582  1  0.42722788  0.48201110  0.67574845  1
  O  O583  1  0.42630031  0.47994238  0.92405476  1
  O  O584  1  0.42575496  0.81435916  0.17451534  1
  O  O585  1  0.42658323  0.81285023  0.42569827  1
  O  O586  1  0.42623039  0.81427890  0.67569576  1
  O  O587  1  0.42653229  0.81486391  0.92504574  1
  O  O588  1  0.92792924  0.14720764  0.17653294  1
  O  O589  1  0.92822588  0.14641372  0.42697534  1
  O  O590  1  0.92724444  0.14543846  0.67544994  1
  O  O591  1  0.92708155  0.14600038  0.92531620  1
  O  O592  1  0.92747878  0.48197566  0.17539395  1
  O  O593  1  0.92643780  0.48061006  0.42671700  1
  O  O594  1  0.92792870  0.48007891  0.67663567  1
  O  O595  1  0.92772172  0.48018933  0.92627159  1
  O  O596  1  0.92715068  0.81490541  0.17506783  1
  O  O597  1  0.92651391  0.81218417  0.42474394  1
  O  O598  1  0.92624523  0.81333122  0.67406302  1
  O  O599  1  0.92793104  0.81367548  0.92692034  1
  O  O600  1  0.07369268  0.18797214  0.07466187  1
  O  O601  1  0.07322059  0.18505422  0.32408659  1
  O  O602  1  0.07358455  0.18505795  0.57447349  1
  O  O603  1  0.07364060  0.18783471  0.82584028  1
  O  O604  1  0.07299552  0.52051254  0.07294974  1
  O  O605  1  0.07208934  0.51862652  0.32409974  1
  O  O606  1  0.07218030  0.51946694  0.57321123  1
  O  O607  1  0.07328623  0.51907583  0.82444003  1
  O  O608  1  0.07147119  0.85354042  0.07250871  1
  O  O609  1  0.07212277  0.85282036  0.32347499  1
  O  O610  1  0.07311936  0.85427631  0.57447402  1
  O  O611  1  0.07194364  0.85414043  0.82495452  1
  O  O612  1  0.57471316  0.18626204  0.07524805  1
  O  O613  1  0.57354417  0.18528369  0.32428003  1
  O  O614  1  0.57414480  0.18613757  0.57586364  1
  O  O615  1  0.57365690  0.18445152  0.82434777  1
  O  O616  1  0.57380497  0.52023226  0.07504561  1
  O  O617  1  0.57341998  0.52022345  0.32600156  1
  O  O618  1  0.57170887  0.52001117  0.57329295  1
  O  O619  1  0.57364130  0.51907187  0.82338199  1
  O  O620  1  0.57140416  0.85323247  0.07262228  1
  O  O621  1  0.57359907  0.85264445  0.32481257  1
  O  O622  1  0.57390245  0.85310327  0.57630049  1
  O  O623  1  0.57143561  0.85221917  0.82387020  1
  O  O624  1  0.32387551  0.18686919  0.04805562  1
  O  O625  1  0.32213409  0.18467736  0.30065915  1
  O  O626  1  0.32394396  0.18625750  0.54983479  1
  O  O627  1  0.32332177  0.18816286  0.79985728  1
  O  O628  1  0.32324218  0.52063167  0.04848574  1
  O  O629  1  0.32160453  0.51973452  0.30152232  1
  O  O630  1  0.32203226  0.51899293  0.55086008  1
  O  O631  1  0.32159114  0.52062999  0.80142694  1
  O  O632  1  0.32173761  0.85416965  0.04951645  1
  O  O633  1  0.32275753  0.85388740  0.29965814  1
  O  O634  1  0.32215824  0.85104854  0.55100388  1
  O  O635  1  0.32072962  0.85307063  0.80239828  1
  O  O636  1  0.82518221  0.18638344  0.05022823  1
  O  O637  1  0.82458615  0.18653616  0.30055903  1
  O  O638  1  0.82464629  0.18746767  0.55093817  1
  O  O639  1  0.82424206  0.18604393  0.79941025  1
  O  O640  1  0.82288453  0.52054893  0.05226648  1
  O  O641  1  0.82313678  0.52187814  0.30077316  1
  O  O642  1  0.82169756  0.52028036  0.55151854  1
  O  O643  1  0.82400566  0.51999459  0.79959890  1
  O  O644  1  0.82272030  0.85254454  0.05246054  1
  O  O645  1  0.82298563  0.85127459  0.30058572  1
  O  O646  1  0.82375101  0.85340653  0.55040125  1
  O  O647  1  0.82317670  0.85065456  0.80136267  1
  O  O648  1  0.17727283  0.14561183  0.19949763  1
  O  O649  1  0.17831772  0.14661883  0.44779431  1
  O  O650  1  0.17653891  0.14712748  0.70047385  1
  O  O651  1  0.17623082  0.14583512  0.94983577  1
  O  O652  1  0.17603739  0.48039776  0.19946783  1
  O  O653  1  0.17643270  0.48137058  0.44854742  1
  O  O654  1  0.17694443  0.48194647  0.69955133  1
  O  O655  1  0.17769687  0.48071679  0.94757117  1
  O  O656  1  0.17524371  0.81335394  0.20015464  1
  O  O657  1  0.17575382  0.81219878  0.44932534  1
  O  O658  1  0.17634123  0.81528392  0.69929563  1
  O  O659  1  0.17793736  0.81475304  0.94793907  1
  O  O660  1  0.67773059  0.14529617  0.20014309  1
  O  O661  1  0.67721555  0.14674979  0.45145580  1
  O  O662  1  0.67742465  0.14442698  0.70049352  1
  O  O663  1  0.67671854  0.14583239  0.95074460  1
  O  O664  1  0.67699356  0.48212671  0.19965106  1
  O  O665  1  0.67647020  0.48047768  0.45167477  1
  O  O666  1  0.67909720  0.48033315  0.69771570  1
  O  O667  1  0.67672698  0.48069803  0.94977464  1
  O  O668  1  0.67685846  0.81337758  0.19893873  1
  O  O669  1  0.67793317  0.81371077  0.44909380  1
  O  O670  1  0.67662841  0.81202594  0.69946642  1
  O  O671  1  0.67728475  0.81460114  0.94908053  1
