# generated using pymatgen
data_Na2MnFe(PO4)2
_symmetry_space_group_name_H-M   'P 1'
_cell_length_a   22.34284466
_cell_length_b   20.09327457
_cell_length_c   19.45083532
_cell_angle_alpha   90.03379062
_cell_angle_beta   89.97093422
_cell_angle_gamma   89.97176513
_symmetry_Int_Tables_number   1
_chemical_formula_structural   Na2MnFe(PO4)2
_chemical_formula_sum   'Na96 Mn48 Fe48 P96 O384'
_cell_volume   8732.27205277
_cell_formula_units_Z   48
loop_
 _symmetry_equiv_pos_site_id
 _symmetry_equiv_pos_as_xyz
  1  'x, y, z'
loop_
 _atom_site_type_symbol
 _atom_site_label
 _atom_site_symmetry_multiplicity
 _atom_site_fract_x
 _atom_site_fract_y
 _atom_site_fract_z
 _atom_site_occupancy
  Na  Na0  1  0.14087731  0.24901602  0.24396930  1
  Na  Na1  1  0.14052057  0.24944031  0.49483945  1
  Na  Na2  1  0.14057825  0.24905969  0.74334871  1
  Na  Na3  1  0.14059446  0.25054132  0.99382563  1
  Na  Na4  1  0.14019377  0.58299762  0.24349952  1
  Na  Na5  1  0.14024827  0.58429649  0.49367532  1
  Na  Na6  1  0.14047152  0.58245114  0.74473522  1
  Na  Na7  1  0.14056823  0.58409201  0.99454312  1
  Na  Na8  1  0.13963419  0.91550920  0.24375557  1
  Na  Na9  1  0.14004844  0.91838047  0.49284369  1
  Na  Na10  1  0.14020719  0.91786167  0.74363940  1
  Na  Na11  1  0.13986949  0.91654016  0.99409277  1
  Na  Na12  1  0.64107760  0.25100217  0.24309865  1
  Na  Na13  1  0.64066972  0.24972278  0.49487590  1
  Na  Na14  1  0.64081592  0.25012032  0.74309088  1
  Na  Na15  1  0.64092749  0.25198898  0.99220397  1
  Na  Na16  1  0.64046781  0.58322513  0.24300982  1
  Na  Na17  1  0.64007527  0.58249840  0.49365709  1
  Na  Na18  1  0.64077162  0.58167052  0.74356962  1
  Na  Na19  1  0.64072403  0.58319367  0.99258771  1
  Na  Na20  1  0.64037604  0.91656222  0.24375517  1
  Na  Na21  1  0.64035568  0.91619897  0.49379397  1
  Na  Na22  1  0.64028988  0.91537918  0.74364646  1
  Na  Na23  1  0.64044114  0.91695163  0.99324183  1
  Na  Na24  1  0.35963007  0.08239673  0.00456876  1
  Na  Na25  1  0.35938061  0.08171018  0.25555482  1
  Na  Na26  1  0.35940801  0.08419255  0.50699709  1
  Na  Na27  1  0.35969483  0.08223643  0.75612226  1
  Na  Na28  1  0.36035867  0.41739124  0.00611545  1
  Na  Na29  1  0.35986178  0.41668550  0.25540753  1
  Na  Na30  1  0.35947109  0.41566008  0.50654659  1
  Na  Na31  1  0.36012680  0.41561835  0.75636995  1
  Na  Na32  1  0.35990004  0.75017791  0.00726223  1
  Na  Na33  1  0.36013303  0.74896689  0.25569727  1
  Na  Na34  1  0.35973858  0.75071074  0.50540945  1
  Na  Na35  1  0.35908909  0.74981501  0.75733369  1
  Na  Na36  1  0.85888358  0.08511156  0.00638131  1
  Na  Na37  1  0.85959647  0.08384303  0.25698525  1
  Na  Na38  1  0.85987784  0.08349481  0.50648100  1
  Na  Na39  1  0.85978782  0.08237943  0.75631019  1
  Na  Na40  1  0.85992250  0.41717224  0.00662070  1
  Na  Na41  1  0.85986331  0.41833100  0.25547690  1
  Na  Na42  1  0.85872981  0.41717758  0.50649777  1
  Na  Na43  1  0.85901950  0.41643124  0.75722154  1
  Na  Na44  1  0.85919393  0.75104135  0.00650932  1
  Na  Na45  1  0.85956881  0.75148703  0.25752455  1
  Na  Na46  1  0.85968211  0.74943513  0.50683341  1
  Na  Na47  1  0.85880278  0.74890163  0.75618578  1
  Na  Na48  1  0.10938740  0.08188360  0.11897737  1
  Na  Na49  1  0.10990495  0.08256893  0.36903329  1
  Na  Na50  1  0.10960574  0.08229258  0.61760432  1
  Na  Na51  1  0.10949259  0.08298926  0.86838662  1
  Na  Na52  1  0.10971969  0.41769698  0.11842050  1
  Na  Na53  1  0.10935619  0.41666607  0.36944099  1
  Na  Na54  1  0.10955408  0.41633315  0.61884795  1
  Na  Na55  1  0.11017091  0.41742077  0.86989302  1
  Na  Na56  1  0.10928665  0.74988623  0.11917715  1
  Na  Na57  1  0.10914099  0.75053779  0.36866560  1
  Na  Na58  1  0.10933303  0.75136947  0.61842070  1
  Na  Na59  1  0.10941652  0.75193878  0.86968147  1
  Na  Na60  1  0.60991737  0.08291059  0.11837746  1
  Na  Na61  1  0.60973356  0.08183004  0.36848756  1
  Na  Na62  1  0.61005199  0.08254768  0.61949390  1
  Na  Na63  1  0.60965563  0.08417866  0.86752323  1
  Na  Na64  1  0.61056806  0.41810984  0.11748934  1
  Na  Na65  1  0.61008175  0.41689496  0.36814727  1
  Na  Na66  1  0.61045929  0.41678475  0.61908211  1
  Na  Na67  1  0.61061869  0.41590727  0.86741809  1
  Na  Na68  1  0.60952642  0.74978905  0.11897928  1
  Na  Na69  1  0.60951615  0.74816472  0.36859306  1
  Na  Na70  1  0.60942063  0.74881020  0.61948341  1
  Na  Na71  1  0.61012960  0.74959550  0.86848816  1
  Na  Na72  1  0.39112053  0.25089736  0.13053975  1
  Na  Na73  1  0.39024253  0.24925760  0.38106656  1
  Na  Na74  1  0.39046339  0.24953692  0.63261975  1
  Na  Na75  1  0.39090159  0.24994348  0.87934059  1
  Na  Na76  1  0.39060638  0.58420174  0.13140969  1
  Na  Na77  1  0.39055255  0.58288369  0.37913348  1
  Na  Na78  1  0.39059841  0.58268483  0.63148929  1
  Na  Na79  1  0.39059215  0.58231762  0.88237084  1
  Na  Na80  1  0.39016747  0.91557570  0.13075231  1
  Na  Na81  1  0.39021621  0.91442131  0.38096188  1
  Na  Na82  1  0.39007229  0.91743714  0.63217189  1
  Na  Na83  1  0.39003441  0.91647656  0.88193666  1
  Na  Na84  1  0.89040390  0.25193829  0.13143797  1
  Na  Na85  1  0.89020734  0.25005576  0.38149519  1
  Na  Na86  1  0.89000324  0.24901174  0.63160283  1
  Na  Na87  1  0.88986944  0.25110815  0.88232906  1
  Na  Na88  1  0.89008103  0.58379210  0.13133182  1
  Na  Na89  1  0.89008865  0.58439878  0.38181404  1
  Na  Na90  1  0.88935121  0.58424602  0.63181668  1
  Na  Na91  1  0.88963227  0.58347479  0.88248112  1
  Na  Na92  1  0.88981692  0.91726871  0.13182316  1
  Na  Na93  1  0.89049752  0.91739092  0.38177946  1
  Na  Na94  1  0.88993671  0.91685671  0.63009226  1
  Na  Na95  1  0.88971976  0.91737692  0.88091429  1
  Mn  Mn96  1  0.49949791  -0.00164029  0.24897532  1
  Mn  Mn97  1  0.74967696  0.50026008  0.37512734  1
  Mn  Mn98  1  0.50033834  0.83165358  0.50060018  1
  Mn  Mn99  1  0.50000405  -0.00064888  -0.00030856  1
  Mn  Mn100  1  0.25050553  0.49902963  0.62460957  1
  Mn  Mn101  1  0.50018806  0.16757987  -0.00136100  1
  Mn  Mn102  1  0.25065698  0.33375483  0.87460750  1
  Mn  Mn103  1  0.25043233  0.16491263  0.12386503  1
  Mn  Mn104  1  0.24974888  0.49986942  0.37524605  1
  Mn  Mn105  1  0.25027010  -0.00002983  0.37502922  1
  Mn  Mn106  1  0.49928862  0.66586476  0.75023109  1
  Mn  Mn107  1  0.50038544  0.16665562  0.24934653  1
  Mn  Mn108  1  -0.00000607  0.33334559  0.75023879  1
  Mn  Mn109  1  0.50003408  0.33333783  0.50006052  1
  Mn  Mn110  1  -0.00032842  0.66705183  0.24996689  1
  Mn  Mn111  1  0.25014898  0.66659101  0.87553405  1
  Mn  Mn112  1  0.74979671  0.16718342  0.37496966  1
  Mn  Mn113  1  0.25005506  0.16550535  0.87416162  1
  Mn  Mn114  1  -0.00086462  -0.00036179  -0.00004204  1
  Mn  Mn115  1  -0.00113255  0.83486914  0.74855598  1
  Mn  Mn116  1  0.49904750  0.83325740  0.74997848  1
  Mn  Mn117  1  0.49950386  0.50031370  0.49935294  1
  Mn  Mn118  1  0.50027292  0.16594291  0.50051404  1
  Mn  Mn119  1  -0.00023009  0.50067032  0.75046127  1
  Mn  Mn120  1  0.24984394  0.66691655  0.62559046  1
  Mn  Mn121  1  0.75030612  0.16643795  0.62486661  1
  Mn  Mn122  1  0.00061858  0.33427078  0.25097800  1
  Mn  Mn123  1  -0.00004865  0.66799057  0.75067438  1
  Mn  Mn124  1  -0.00110230  0.33275316  0.49980581  1
  Mn  Mn125  1  0.49972777  -0.00092710  0.49987122  1
  Mn  Mn126  1  0.74943512  0.83238011  0.62477681  1
  Mn  Mn127  1  -0.00006487  0.16591548  0.75091572  1
  Mn  Mn128  1  0.24946659  0.83454107  0.62577970  1
  Mn  Mn129  1  0.00043450  0.16624376  0.25039117  1
  Mn  Mn130  1  0.74990142  0.16805810  0.12552750  1
  Mn  Mn131  1  0.74961581  0.83460272  0.12566328  1
  Mn  Mn132  1  0.50063477  0.50003330  -0.00034658  1
  Mn  Mn133  1  0.74979667  0.66677465  0.12462828  1
  Mn  Mn134  1  0.50092638  0.33426130  0.24994245  1
  Mn  Mn135  1  -0.00083566  0.50096818  0.50031753  1
  Mn  Mn136  1  0.74937082  -0.00003606  0.87517475  1
  Mn  Mn137  1  0.24996130  0.83316154  0.12474835  1
  Mn  Mn138  1  0.74992906  0.83357279  0.37573105  1
  Mn  Mn139  1  -0.00034734  0.16734642  0.00008240  1
  Mn  Mn140  1  0.24970869  0.33218306  0.37517753  1
  Mn  Mn141  1  0.25051951  0.66740757  0.37472937  1
  Mn  Mn142  1  -0.00067925  0.66769802  0.00076040  1
  Mn  Mn143  1  0.25060552  0.33331282  0.12455687  1
  Fe  Fe144  1  0.24960966  0.83340536  0.37456303  1
  Fe  Fe145  1  0.74980101  -0.00038566  0.62549605  1
  Fe  Fe146  1  0.75046144  0.33321032  0.62517555  1
  Fe  Fe147  1  0.75028695  0.33441679  0.12398098  1
  Fe  Fe148  1  -0.00024468  -0.00020902  0.74890574  1
  Fe  Fe149  1  0.75032669  0.49967235  0.87431781  1
  Fe  Fe150  1  0.00016040  0.66718374  0.49980866  1
  Fe  Fe151  1  0.50012082  0.50044177  0.24904600  1
  Fe  Fe152  1  0.74986366  0.16708870  0.87510640  1
  Fe  Fe153  1  0.49977417  0.66563492  0.49938182  1
  Fe  Fe154  1  0.24979085  -0.00097609  0.12495444  1
  Fe  Fe155  1  0.74994227  0.66643550  0.37545550  1
  Fe  Fe156  1  -0.00019411  0.83385256  0.49932353  1
  Fe  Fe157  1  0.24972148  0.83370078  0.87574193  1
  Fe  Fe158  1  0.50027966  0.83184939  0.25018293  1
  Fe  Fe159  1  0.50058012  0.83258938  0.00029080  1
  Fe  Fe160  1  0.75009554  0.66610313  0.87505761  1
  Fe  Fe161  1  0.50049780  0.49970540  0.75028896  1
  Fe  Fe162  1  0.50038813  0.16657247  0.75006987  1
  Fe  Fe163  1  0.24908925  -0.00036799  0.87457170  1
  Fe  Fe164  1  0.74999245  0.00117002  0.12473173  1
  Fe  Fe165  1  0.50060650  -0.00035559  0.75073359  1
  Fe  Fe166  1  0.00045712  0.50051643  0.00071407  1
  Fe  Fe167  1  0.74998015  0.33401424  0.37480564  1
  Fe  Fe168  1  0.00001735  0.50060687  0.25031690  1
  Fe  Fe169  1  0.74930266  0.66560748  0.62593184  1
  Fe  Fe170  1  -0.00036669  0.83410576  0.00017084  1
  Fe  Fe171  1  0.25059047  0.00017212  0.62468285  1
  Fe  Fe172  1  0.75017103  0.83314693  0.87457304  1
  Fe  Fe173  1  0.75020117  0.49972168  0.62514132  1
  Fe  Fe174  1  0.25035817  0.50016153  0.87533572  1
  Fe  Fe175  1  -0.00087668  0.83356203  0.25053024  1
  Fe  Fe176  1  0.25000120  0.50004504  0.12515897  1
  Fe  Fe177  1  0.75037405  0.50005550  0.12404962  1
  Fe  Fe178  1  0.25050869  0.16643840  0.37538291  1
  Fe  Fe179  1  0.00019959  0.16591046  0.50020903  1
  Fe  Fe180  1  0.50033074  0.66641723  0.24947086  1
  Fe  Fe181  1  0.75056449  0.33381839  0.87461111  1
  Fe  Fe182  1  0.50056815  0.33371458  -0.00095811  1
  Fe  Fe183  1  0.24961490  0.33267226  0.62530268  1
  Fe  Fe184  1  -0.00041543  -0.00025231  0.25021096  1
  Fe  Fe185  1  0.50058314  0.66687596  0.00074737  1
  Fe  Fe186  1  0.24971891  0.66662425  0.12505742  1
  Fe  Fe187  1  0.24999430  0.16642587  0.62490413  1
  Fe  Fe188  1  0.50064810  0.33339124  0.74949179  1
  Fe  Fe189  1  -0.00023274  -0.00022462  0.49933180  1
  Fe  Fe190  1  0.00079961  0.33420309  0.00098476  1
  Fe  Fe191  1  0.74973151  0.00044877  0.37521670  1
  P  P192  1  0.04252943  0.25132672  0.10281651  1
  P  P193  1  0.04290667  0.24930790  0.35400306  1
  P  P194  1  0.04176310  0.24839452  0.60252369  1
  P  P195  1  0.04302149  0.25067594  0.85396562  1
  P  P196  1  0.04192465  0.58289642  0.10307779  1
  P  P197  1  0.04208168  0.58306943  0.35287526  1
  P  P198  1  0.04212392  0.58524548  0.60262923  1
  P  P199  1  0.04231770  0.58392935  0.85432374  1
  P  P200  1  0.04150602  0.91545715  0.10340762  1
  P  P201  1  0.04101757  0.91677279  0.35217174  1
  P  P202  1  0.04127735  0.91688183  0.60089247  1
  P  P203  1  0.04168052  0.91803531  0.85206268  1
  P  P204  1  0.54291158  0.25177922  0.10150604  1
  P  P205  1  0.54344571  0.24980620  0.35289670  1
  P  P206  1  0.54259617  0.24995830  0.60424143  1
  P  P207  1  0.54184830  0.25061770  0.85118402  1
  P  P208  1  0.54263595  0.58478860  0.10283913  1
  P  P209  1  0.54186102  0.58307194  0.35112581  1
  P  P210  1  0.54196966  0.58389566  0.60256567  1
  P  P211  1  0.54251880  0.58195948  0.85276208  1
  P  P212  1  0.54225394  0.91443655  0.10265418  1
  P  P213  1  0.54224738  0.91423257  0.35216584  1
  P  P214  1  0.54271053  0.91642215  0.60375450  1
  P  P215  1  0.54228159  0.91680218  0.85288570  1
  P  P216  1  0.45719744  0.08314948  0.14614174  1
  P  P217  1  0.45704949  0.08258006  0.39667340  1
  P  P218  1  0.45907688  0.08266518  0.64903999  1
  P  P219  1  0.45786409  0.08314124  0.89555428  1
  P  P220  1  0.45831658  0.41819210  0.14670973  1
  P  P221  1  0.45698263  0.41689210  0.39617700  1
  P  P222  1  0.45880433  0.41686343  0.64854964  1
  P  P223  1  0.45864157  0.41535368  0.89641021  1
  P  P224  1  0.45875730  0.74965841  0.14762299  1
  P  P225  1  0.45822315  0.74763605  0.39659765  1
  P  P226  1  0.45630889  0.74922091  0.64684638  1
  P  P227  1  0.45863968  0.74929017  0.89895285  1
  P  P228  1  0.95750477  0.08232529  0.14792173  1
  P  P229  1  0.95859320  0.08308716  0.39812490  1
  P  P230  1  0.95794296  0.08209927  0.64660315  1
  P  P231  1  0.95653166  0.08345188  0.89672601  1
  P  P232  1  0.95855914  0.41851839  0.14724212  1
  P  P233  1  0.95659927  0.41743271  0.39676179  1
  P  P234  1  0.95673496  0.41697048  0.64730797  1
  P  P235  1  0.95888173  0.41707552  0.89929696  1
  P  P236  1  0.95719959  0.75187304  0.14767519  1
  P  P237  1  0.95814906  0.75079002  0.39806192  1
  P  P238  1  0.95687263  0.75041063  0.64564348  1
  P  P239  1  0.95724056  0.75227152  0.89781278  1
  P  P240  1  0.20765281  0.08139652  0.22749097  1
  P  P241  1  0.20828000  0.08500964  0.47815043  1
  P  P242  1  0.20833888  0.08262935  0.72628024  1
  P  P243  1  0.20731549  0.08128223  0.97734576  1
  P  P244  1  0.20773313  0.41726536  0.22729896  1
  P  P245  1  0.20698915  0.41570689  0.47870383  1
  P  P246  1  0.20777839  0.41539574  0.72775473  1
  P  P247  1  0.20866465  0.41857904  0.97809517  1
  P  P248  1  0.20764942  0.74903768  0.22758130  1
  P  P249  1  0.20752209  0.75199376  0.47749675  1
  P  P250  1  0.20693260  0.75062318  0.72922521  1
  P  P251  1  0.20801468  0.75092227  0.97817387  1
  P  P252  1  0.70792364  0.08258834  0.22782178  1
  P  P253  1  0.70778679  0.08225598  0.47784981  1
  P  P254  1  0.70823568  0.08235549  0.72795422  1
  P  P255  1  0.70736216  0.08525860  0.97760289  1
  P  P256  1  0.70898432  0.41703134  0.22611213  1
  P  P257  1  0.70765453  0.41532600  0.47797640  1
  P  P258  1  0.70937175  0.41633820  0.72707930  1
  P  P259  1  0.70915107  0.41726436  0.97633569  1
  P  P260  1  0.70749631  0.75009440  0.22869257  1
  P  P261  1  0.70778988  0.74809149  0.47813810  1
  P  P262  1  0.70765273  0.74801846  0.72840662  1
  P  P263  1  0.70893970  0.75028891  0.97633866  1
  P  P264  1  0.29330762  0.24944925  0.02118810  1
  P  P265  1  0.29256081  0.24792028  0.27236593  1
  P  P266  1  0.29194230  0.24964580  0.52348602  1
  P  P267  1  0.29250806  0.24927465  0.77071038  1
  P  P268  1  0.29164637  0.58341439  0.02344408  1
  P  P269  1  0.29211617  0.58307502  0.27081652  1
  P  P270  1  0.29300131  0.58381673  0.52191195  1
  P  P271  1  0.29266871  0.58184274  0.77297567  1
  P  P272  1  0.29189387  0.91762392  0.02161068  1
  P  P273  1  0.29219588  0.91503838  0.27210990  1
  P  P274  1  0.29237427  0.91789316  0.52229915  1
  P  P275  1  0.29141481  0.91683656  0.77342504  1
  P  P276  1  0.79225851  0.25184341  0.02182995  1
  P  P277  1  0.79221728  0.25232593  0.27220164  1
  P  P278  1  0.79230140  0.25144569  0.52230200  1
  P  P279  1  0.79144994  0.24993839  0.77324511  1
  P  P280  1  0.79196383  0.58223899  0.02164260  1
  P  P281  1  0.79218991  0.58466546  0.27258225  1
  P  P282  1  0.79087451  0.58343927  0.52355164  1
  P  P283  1  0.79142448  0.58285314  0.77292474  1
  P  P284  1  0.79178479  0.91836763  0.02237466  1
  P  P285  1  0.79192596  0.91865879  0.27282393  1
  P  P286  1  0.79145969  0.91788956  0.52252562  1
  P  P287  1  0.79175298  0.91532380  0.77208074  1
  O  O288  1  0.03761351  0.25109126  0.18280467  1
  O  O289  1  0.03726609  0.24866819  0.43388687  1
  O  O290  1  0.03678074  0.24854533  0.68251845  1
  O  O291  1  0.03799221  0.25135409  0.93395282  1
  O  O292  1  0.03667631  0.58285897  0.18301044  1
  O  O293  1  0.03667763  0.58409003  0.43281871  1
  O  O294  1  0.03728009  0.58509337  0.68266836  1
  O  O295  1  0.03690881  0.58351752  0.93426699  1
  O  O296  1  0.03601750  0.91572044  0.18326029  1
  O  O297  1  0.03586345  0.91665851  0.43205557  1
  O  O298  1  0.03630642  0.91775977  0.68080711  1
  O  O299  1  0.03662500  0.91737315  0.93198224  1
  O  O300  1  0.53790241  0.25152469  0.18146959  1
  O  O301  1  0.53821900  0.24973691  0.43288336  1
  O  O302  1  0.53731520  0.25006224  0.68416872  1
  O  O303  1  0.53696767  0.25097433  0.93114194  1
  O  O304  1  0.53719241  0.58451213  0.18268580  1
  O  O305  1  0.53664063  0.58331520  0.43109428  1
  O  O306  1  0.53674036  0.58318442  0.68249501  1
  O  O307  1  0.53775590  0.58231111  0.93267967  1
  O  O308  1  0.53699909  0.91400637  0.18260092  1
  O  O309  1  0.53722743  0.91459101  0.43214915  1
  O  O310  1  0.53742534  0.91718274  0.68371443  1
  O  O311  1  0.53727731  0.91616336  0.93284923  1
  O  O312  1  0.46249725  0.08321784  0.06618896  1
  O  O313  1  0.46198844  0.08253767  0.31668970  1
  O  O314  1  0.46363490  0.08272861  0.56900640  1
  O  O315  1  0.46342299  0.08282872  0.81567030  1
  O  O316  1  0.46351063  0.41761804  0.06677410  1
  O  O317  1  0.46215227  0.41746453  0.31623459  1
  O  O318  1  0.46344268  0.41702068  0.56853774  1
  O  O319  1  0.46404436  0.41568935  0.81654568  1
  O  O320  1  0.46420894  0.74988671  0.06774306  1
  O  O321  1  0.46386862  0.74785191  0.31671785  1
  O  O322  1  0.46142998  0.74887273  0.56692905  1
  O  O323  1  0.46283718  0.74948163  0.81893006  1
  O  O324  1  0.96247476  0.08269156  0.06796182  1
  O  O325  1  0.96345174  0.08235532  0.31817213  1
  O  O326  1  0.96333960  0.08259391  0.56671925  1
  O  O327  1  0.96152590  0.08311720  0.81677004  1
  O  O328  1  0.96443078  0.41805612  0.06737473  1
  O  O329  1  0.96217676  0.41797067  0.31685112  1
  O  O330  1  0.96136611  0.41687917  0.56733057  1
  O  O331  1  0.96354452  0.41695747  0.81929220  1
  O  O332  1  0.96236633  0.75202092  0.06772909  1
  O  O333  1  0.96314624  0.75065607  0.31805318  1
  O  O334  1  0.96226060  0.74990060  0.56573518  1
  O  O335  1  0.96220239  0.75200920  0.81783948  1
  O  O336  1  0.21262413  0.08095774  0.05725920  1
  O  O337  1  0.21311465  0.08222847  0.30736981  1
  O  O338  1  0.21363213  0.08487892  0.55800791  1
  O  O339  1  0.21312956  0.08196086  0.80625578  1
  O  O340  1  0.21415999  0.41879037  0.05802597  1
  O  O341  1  0.21249912  0.41680698  0.30730584  1
  O  O342  1  0.21217142  0.41512197  0.55865678  1
  O  O343  1  0.21314152  0.41619840  0.80769043  1
  O  O344  1  0.21320095  0.75019060  0.05811689  1
  O  O345  1  0.21286195  0.74995508  0.30750398  1
  O  O346  1  0.21240922  0.75188050  0.55748458  1
  O  O347  1  0.21245366  0.75113033  0.80916228  1
  O  O348  1  0.71264820  0.08511942  0.05753749  1
  O  O349  1  0.71328790  0.08256287  0.30777936  1
  O  O350  1  0.71305618  0.08203530  0.55781499  1
  O  O351  1  0.71330962  0.08325200  0.80786957  1
  O  O352  1  0.71382748  0.41694308  0.05620741  1
  O  O353  1  0.71347294  0.41707852  0.30607717  1
  O  O354  1  0.71317364  0.41539907  0.55778359  1
  O  O355  1  0.71450647  0.41698992  0.80692924  1
  O  O356  1  0.71369599  0.75038248  0.05632135  1
  O  O357  1  0.71274041  0.74977154  0.30859440  1
  O  O358  1  0.71299508  0.74783774  0.55807763  1
  O  O359  1  0.71344033  0.74863270  0.80821764  1
  O  O360  1  0.28747622  0.24823851  0.19241449  1
  O  O361  1  0.28697835  0.24916070  0.44347365  1
  O  O362  1  0.28706156  0.24937913  0.69082155  1
  O  O363  1  0.28802245  0.24959446  0.94124737  1
  O  O364  1  0.28647186  0.58310411  0.19093227  1
  O  O365  1  0.28780367  0.58380011  0.44195803  1
  O  O366  1  0.28767687  0.58223496  0.69303893  1
  O  O367  1  0.28667300  0.58295026  0.94344203  1
  O  O368  1  0.28708981  0.91558835  0.19217821  1
  O  O369  1  0.28715527  0.91718264  0.44240676  1
  O  O370  1  0.28658595  0.91723520  0.69342984  1
  O  O371  1  0.28624406  0.91714162  0.94176323  1
  O  O372  1  0.78682736  0.25228183  0.19226115  1
  O  O373  1  0.78697683  0.25145352  0.44239736  1
  O  O374  1  0.78659090  0.25039121  0.69327132  1
  O  O375  1  0.78705547  0.25105804  0.94195872  1
  O  O376  1  0.78736152  0.58432187  0.19269920  1
  O  O377  1  0.78617388  0.58341283  0.44357600  1
  O  O378  1  0.78630666  0.58329664  0.69304488  1
  O  O379  1  0.78696254  0.58195387  0.94179462  1
  O  O380  1  0.78674765  0.91884817  0.19287030  1
  O  O381  1  0.78614967  0.91825927  0.44260426  1
  O  O382  1  0.78628205  0.91563617  0.69219342  1
  O  O383  1  0.78650972  0.91744048  0.94248812  1
  O  O384  1  0.22894516  0.24944047  0.05640956  1
  O  O385  1  0.22820214  0.24762224  0.30794998  1
  O  O386  1  0.22772242  0.24967812  0.55951747  1
  O  O387  1  0.22840023  0.24966638  0.80668796  1
  O  O388  1  0.22748879  0.58362253  0.05951592  1
  O  O389  1  0.22804238  0.58360013  0.30693113  1
  O  O390  1  0.22856567  0.58325457  0.55704371  1
  O  O391  1  0.22829450  0.58199693  0.80839612  1
  O  O392  1  0.22778579  0.91790598  0.05795115  1
  O  O393  1  0.22789650  0.91521406  0.30781228  1
  O  O394  1  0.22801137  0.91873648  0.55792788  1
  O  O395  1  0.22712362  0.91656225  0.80923033  1
  O  O396  1  0.72806075  0.25223997  0.05788214  1
  O  O397  1  0.72800200  0.25214219  0.30813113  1
  O  O398  1  0.72816644  0.25137217  0.55838878  1
  O  O399  1  0.72733018  0.24955616  0.80923450  1
  O  O400  1  0.72777907  0.58235136  0.05756236  1
  O  O401  1  0.72783067  0.58490540  0.30823681  1
  O  O402  1  0.72671367  0.58331230  0.55946735  1
  O  O403  1  0.72740514  0.58206002  0.80930614  1
  O  O404  1  0.72755190  0.91892109  0.05827610  1
  O  O405  1  0.72766772  0.91816673  0.30856276  1
  O  O406  1  0.72732709  0.91767047  0.55855169  1
  O  O407  1  0.72760772  0.91500754  0.80819370  1
  O  O408  1  0.27190107  0.08065546  0.19148731  1
  O  O409  1  0.27242771  0.08468360  0.44198323  1
  O  O410  1  0.27261073  0.08286676  0.69043068  1
  O  O411  1  0.27155418  0.08092196  0.94146736  1
  O  O412  1  0.27217757  0.41733378  0.19209809  1
  O  O413  1  0.27134270  0.41598719  0.44341827  1
  O  O414  1  0.27205741  0.41452858  0.69195948  1
  O  O415  1  0.27280538  0.41842662  0.94199003  1
  O  O416  1  0.27188356  0.74827620  0.19179009  1
  O  O417  1  0.27191733  0.75226196  0.44203994  1
  O  O418  1  0.27124858  0.75064688  0.69373915  1
  O  O419  1  0.27222959  0.75122485  0.94237540  1
  O  O420  1  0.77211358  0.08285969  0.19185196  1
  O  O421  1  0.77204026  0.08260469  0.44204116  1
  O  O422  1  0.77242583  0.08208618  0.69207064  1
  O  O423  1  0.77159354  0.08512515  0.94175997  1
  O  O424  1  0.77317312  0.41656427  0.19018501  1
  O  O425  1  0.77176331  0.41560740  0.44161065  1
  O  O426  1  0.77330025  0.41600134  0.69052891  1
  O  O427  1  0.77332012  0.41793495  0.94031428  1
  O  O428  1  0.77174070  0.75044721  0.19313884  1
  O  O429  1  0.77202638  0.74835153  0.44221451  1
  O  O430  1  0.77162167  0.74786378  0.69183884  1
  O  O431  1  0.77307561  0.75068124  0.94049557  1
  O  O432  1  0.02186982  0.08154278  0.18328381  1
  O  O433  1  0.02274641  0.08375358  0.43397202  1
  O  O434  1  0.02207111  0.08175312  0.68281855  1
  O  O435  1  0.02093891  0.08336042  0.93180569  1
  O  O436  1  0.02255526  0.41902028  0.18378718  1
  O  O437  1  0.02082870  0.41706680  0.43226546  1
  O  O438  1  0.02134044  0.41705292  0.68188198  1
  O  O439  1  0.02313823  0.41698326  0.93491918  1
  O  O440  1  0.02145464  0.75165459  0.18333199  1
  O  O441  1  0.02229594  0.75128287  0.43406826  1
  O  O442  1  0.02111918  0.75094805  0.68130542  1
  O  O443  1  0.02154972  0.75212093  0.93334602  1
  O  O444  1  0.52159839  0.08261428  0.18126141  1
  O  O445  1  0.52158095  0.08250108  0.43151893  1
  O  O446  1  0.52329839  0.08226712  0.68459228  1
  O  O447  1  0.52200728  0.08314097  0.93139589  1
  O  O448  1  0.52262494  0.41879860  0.18234600  1
  O  O449  1  0.52140193  0.41673914  0.43131518  1
  O  O450  1  0.52312492  0.41687355  0.68410078  1
  O  O451  1  0.52284295  0.41524866  0.93241191  1
  O  O452  1  0.52273227  0.74955981  0.18416907  1
  O  O453  1  0.52226762  0.74736519  0.43304437  1
  O  O454  1  0.52072367  0.74946881  0.68195354  1
  O  O455  1  0.52307677  0.74869317  0.93411744  1
  O  O456  1  0.47852512  0.25217672  0.06613331  1
  O  O457  1  0.47902638  0.25022122  0.31783286  1
  O  O458  1  0.47834044  0.24982442  0.56859383  1
  O  O459  1  0.47775646  0.25095355  0.81525261  1
  O  O460  1  0.47850592  0.58498433  0.06669835  1
  O  O461  1  0.47778914  0.58280745  0.31486322  1
  O  O462  1  0.47771386  0.58454930  0.56679770  1
  O  O463  1  0.47808236  0.58123407  0.81752053  1
  O  O464  1  0.47803296  0.91466206  0.06694602  1
  O  O465  1  0.47791127  0.91386297  0.31669056  1
  O  O466  1  0.47835849  0.91571163  0.56851057  1
  O  O467  1  0.47791067  0.91779585  0.81746930  1
  O  O468  1  0.97815898  0.25197479  0.06749536  1
  O  O469  1  0.97865449  0.24987547  0.31846288  1
  O  O470  1  0.97744752  0.24790909  0.56703520  1
  O  O471  1  0.97854250  0.25009733  0.81896827  1
  O  O472  1  0.97771413  0.58282566  0.06733588  1
  O  O473  1  0.97786900  0.58249706  0.31698459  1
  O  O474  1  0.97767505  0.58557895  0.56750057  1
  O  O475  1  0.97799712  0.58416761  0.81890800  1
  O  O476  1  0.97733501  0.91523377  0.06728001  1
  O  O477  1  0.97694782  0.91727821  0.31583796  1
  O  O478  1  0.97711384  0.91588360  0.56502559  1
  O  O479  1  0.97734977  0.91896712  0.81643465  1
  O  O480  1  0.07357569  0.31474498  0.07453463  1
  O  O481  1  0.07414397  0.31293883  0.32644902  1
  O  O482  1  0.07242928  0.31229481  0.57489108  1
  O  O483  1  0.07400253  0.31387133  0.82506025  1
  O  O484  1  0.07277626  0.64682702  0.07556651  1
  O  O485  1  0.07314656  0.64652951  0.32458752  1
  O  O486  1  0.07292715  0.64863604  0.57387531  1
  O  O487  1  0.07335398  0.64760265  0.82658061  1
  O  O488  1  0.07262454  0.97895556  0.07516762  1
  O  O489  1  0.07227587  0.98019940  0.32389480  1
  O  O490  1  0.07147026  0.98065915  0.57189092  1
  O  O491  1  0.07260072  0.98148143  0.82355715  1
  O  O492  1  0.57368939  0.31528834  0.07303946  1
  O  O493  1  0.57472937  0.31316421  0.32482827  1
  O  O494  1  0.57364329  0.31337681  0.57576845  1
  O  O495  1  0.57346187  0.31364736  0.82277516  1
  O  O496  1  0.57359819  0.64818229  0.07413621  1
  O  O497  1  0.57279617  0.64653702  0.32282738  1
  O  O498  1  0.57273009  0.64742837  0.57413019  1
  O  O499  1  0.57317555  0.64565510  0.82463306  1
  O  O500  1  0.57343628  0.97817487  0.07521752  1
  O  O501  1  0.57304086  0.97793246  0.32411921  1
  O  O502  1  0.57373214  0.97958740  0.57486345  1
  O  O503  1  0.57345666  0.98020519  0.82464418  1
  O  O504  1  0.42589158  0.01972880  0.17401151  1
  O  O505  1  0.42608960  0.01905862  0.42484122  1
  O  O506  1  0.42792201  0.01921705  0.67710487  1
  O  O507  1  0.42648535  0.01999896  0.92417063  1
  O  O508  1  0.42727999  0.35470327  0.17489876  1
  O  O509  1  0.42610316  0.35325772  0.42437197  1
  O  O510  1  0.42804534  0.35308919  0.67636176  1
  O  O511  1  0.42778263  0.35191609  0.92509448  1
  O  O512  1  0.42776640  0.68601515  0.17570667  1
  O  O513  1  0.42731457  0.68416732  0.42511597  1
  O  O514  1  0.42521276  0.68606827  0.67564710  1
  O  O515  1  0.42760363  0.68582459  0.92721751  1
  O  O516  1  0.92641744  0.01907323  0.17635582  1
  O  O517  1  0.92817055  0.01935149  0.42695346  1
  O  O518  1  0.92715204  0.01847083  0.67500803  1
  O  O519  1  0.92506144  0.02039819  0.92516824  1
  O  O520  1  0.92751321  0.35488080  0.17527363  1
  O  O521  1  0.92549674  0.35376818  0.42444241  1
  O  O522  1  0.92597627  0.35342837  0.67570039  1
  O  O523  1  0.92809800  0.35341368  0.92751826  1
  O  O524  1  0.92612697  0.68807130  0.17524745  1
  O  O525  1  0.92803989  0.68670422  0.42638870  1
  O  O526  1  0.92588989  0.68728954  0.67493308  1
  O  O527  1  0.92609741  0.68871574  0.92563172  1
  O  O528  1  0.17680113  0.01768938  0.19950990  1
  O  O529  1  0.17687729  0.02155911  0.45010298  1
  O  O530  1  0.17767417  0.01911029  0.69742655  1
  O  O531  1  0.17596091  0.01831518  0.94842697  1
  O  O532  1  0.17677585  0.35360921  0.19928880  1
  O  O533  1  0.17589543  0.35247029  0.45000312  1
  O  O534  1  0.17669968  0.35186384  0.69964732  1
  O  O535  1  0.17755490  0.35477345  0.95071221  1
  O  O536  1  0.17662032  0.68551554  0.19942520  1
  O  O537  1  0.17670746  0.68822484  0.44973142  1
  O  O538  1  0.17621856  0.68672486  0.70141687  1
  O  O539  1  0.17673243  0.68752309  0.95012652  1
  O  O540  1  0.67712531  0.01924723  0.19899060  1
  O  O541  1  0.67690895  0.01895196  0.44894966  1
  O  O542  1  0.67765409  0.01846588  0.69996758  1
  O  O543  1  0.67593244  0.02181068  0.94982662  1
  O  O544  1  0.67754054  0.35391726  0.19759090  1
  O  O545  1  0.67692118  0.35196246  0.44893110  1
  O  O546  1  0.67811789  0.35278029  0.69922152  1
  O  O547  1  0.67907019  0.35333350  0.94719142  1
  O  O548  1  0.67640985  0.68687565  0.20001119  1
  O  O549  1  0.67704072  0.68478441  0.44919084  1
  O  O550  1  0.67659336  0.68447554  0.70017384  1
  O  O551  1  0.67874200  0.68611364  0.94835710  1
  O  O552  1  0.32432477  0.31293217  0.04936195  1
  O  O553  1  0.32338773  0.31171327  0.30021856  1
  O  O554  1  0.32238377  0.31364170  0.55149922  1
  O  O555  1  0.32411922  0.31241005  0.79906659  1
  O  O556  1  0.32217870  0.64748448  0.05122489  1
  O  O557  1  0.32373838  0.64633094  0.29893386  1
  O  O558  1  0.32346057  0.64757539  0.55009474  1
  O  O559  1  0.32384735  0.64532000  0.80109569  1
  O  O560  1  0.32294680  0.98092605  0.05025913  1
  O  O561  1  0.32372701  0.97820943  0.30029371  1
  O  O562  1  0.32325022  0.98151525  0.55062393  1
  O  O563  1  0.32217536  0.98042541  0.80179928  1
  O  O564  1  0.82315272  0.31540624  0.05020539  1
  O  O565  1  0.82309171  0.31566099  0.30080158  1
  O  O566  1  0.82334522  0.31458303  0.55118554  1
  O  O567  1  0.82199994  0.31372196  0.80190022  1
  O  O568  1  0.82329229  0.64580463  0.04950028  1
  O  O569  1  0.82278119  0.64826297  0.30139068  1
  O  O570  1  0.82198363  0.64676930  0.55197779  1
  O  O571  1  0.82160402  0.64675993  0.80190258  1
  O  O572  1  0.82245817  0.98218718  0.05037052  1
  O  O573  1  0.82269860  0.98197836  0.30178064  1
  O  O574  1  0.82235800  0.98115483  0.55148125  1
  O  O575  1  0.82291014  0.97881187  0.80000138  1
  O  O576  1  0.42651376  0.14687503  0.17423887  1
  O  O577  1  0.42627562  0.14611565  0.42521081  1
  O  O578  1  0.42884025  0.14679760  0.67720580  1
  O  O579  1  0.42670886  0.14680105  0.92348374  1
  O  O580  1  0.42751004  0.48186045  0.17496398  1
  O  O581  1  0.42571954  0.48008107  0.42486808  1
  O  O582  1  0.42811117  0.48057775  0.67691154  1
  O  O583  1  0.42742972  0.47880459  0.92484447  1
  O  O584  1  0.42769508  0.81316172  0.17623909  1
  O  O585  1  0.42704494  0.81122850  0.42466866  1
  O  O586  1  0.42529788  0.81284829  0.67509365  1
  O  O587  1  0.42858244  0.81339159  0.92736077  1
  O  O588  1  0.92696519  0.14636531  0.17571435  1
  O  O589  1  0.92733173  0.14668473  0.42597957  1
  O  O590  1  0.92665438  0.14548542  0.67505837  1
  O  O591  1  0.92583717  0.14721672  0.92503397  1
  O  O592  1  0.92731274  0.48192764  0.17558364  1
  O  O593  1  0.92527752  0.48067930  0.42524524  1
  O  O594  1  0.92591986  0.48055278  0.67561359  1
  O  O595  1  0.92821802  0.48096922  0.92730276  1
  O  O596  1  0.92627004  0.81508580  0.17675630  1
  O  O597  1  0.92669936  0.81418584  0.42595977  1
  O  O598  1  0.92550133  0.81397041  0.67354902  1
  O  O599  1  0.92678866  0.81599299  0.92622163  1
  O  O600  1  0.07317870  0.18738440  0.07500166  1
  O  O601  1  0.07403364  0.18608979  0.32520545  1
  O  O602  1  0.07278664  0.18495900  0.57415419  1
  O  O603  1  0.07412725  0.18701260  0.82603784  1
  O  O604  1  0.07308213  0.51973042  0.07426812  1
  O  O605  1  0.07299933  0.51935618  0.32497226  1
  O  O606  1  0.07301751  0.52142347  0.57491332  1
  O  O607  1  0.07350404  0.52063480  0.82570125  1
  O  O608  1  0.07245577  0.85203610  0.07453934  1
  O  O609  1  0.07152220  0.85291156  0.32361063  1
  O  O610  1  0.07274564  0.85343453  0.57311318  1
  O  O611  1  0.07242501  0.85442389  0.82361750  1
  O  O612  1  0.57370286  0.18794996  0.07364103  1
  O  O613  1  0.57421255  0.18616363  0.32465652  1
  O  O614  1  0.57386184  0.18648670  0.57595246  1
  O  O615  1  0.57191688  0.18628358  0.82312355  1
  O  O616  1  0.57383472  0.52130287  0.07458782  1
  O  O617  1  0.57269362  0.51921339  0.32307233  1
  O  O618  1  0.57295848  0.52032426  0.57430219  1
  O  O619  1  0.57341659  0.51851819  0.82390103  1
  O  O620  1  0.57307970  0.85108642  0.07358750  1
  O  O621  1  0.57317862  0.85064233  0.32408760  1
  O  O622  1  0.57396616  0.85275300  0.57608621  1
  O  O623  1  0.57284935  0.85302898  0.82451232  1
  O  O624  1  0.32434413  0.18584999  0.04893478  1
  O  O625  1  0.32332673  0.18439254  0.30077717  1
  O  O626  1  0.32305459  0.18626218  0.55193771  1
  O  O627  1  0.32342299  0.18560866  0.79881266  1
  O  O628  1  0.32272041  0.51999349  0.05183352  1
  O  O629  1  0.32313333  0.51957020  0.29910252  1
  O  O630  1  0.32443496  0.52042338  0.54974555  1
  O  O631  1  0.32316611  0.51811856  0.80127006  1
  O  O632  1  0.32308703  0.85406146  0.04974467  1
  O  O633  1  0.32244182  0.85108633  0.30044139  1
  O  O634  1  0.32334199  0.85450473  0.55080667  1
  O  O635  1  0.32215456  0.85303887  0.80163129  1
  O  O636  1  0.82343594  0.18852435  0.05056963  1
  O  O637  1  0.82324855  0.18848505  0.29986899  1
  O  O638  1  0.82322178  0.18754298  0.54998364  1
  O  O639  1  0.82250355  0.18629518  0.80115507  1
  O  O640  1  0.82256383  0.51883844  0.05105624  1
  O  O641  1  0.82321308  0.52117701  0.30084904  1
  O  O642  1  0.82138732  0.51948438  0.55191055  1
  O  O643  1  0.82317379  0.51960700  0.80088309  1
  O  O644  1  0.82284676  0.85494548  0.05080286  1
  O  O645  1  0.82311488  0.85492512  0.30043981  1
  O  O646  1  0.82253537  0.85395168  0.54966483  1
  O  O647  1  0.82251668  0.85166851  0.80040905  1
  O  O648  1  0.17664206  0.14486381  0.19910786  1
  O  O649  1  0.17768171  0.14848008  0.44917611  1
  O  O650  1  0.17750585  0.14648685  0.69858879  1
  O  O651  1  0.17675876  0.14541438  0.94978210  1
  O  O652  1  0.17713051  0.48092137  0.19897832  1
  O  O653  1  0.17585941  0.47939145  0.45101394  1
  O  O654  1  0.17683855  0.47900318  0.69959827  1
  O  O655  1  0.17778673  0.48197108  0.94943449  1
  O  O656  1  0.17664555  0.81252503  0.19929648  1
  O  O657  1  0.17684371  0.81552228  0.44890021  1
  O  O658  1  0.17543623  0.81368411  0.70070170  1
  O  O659  1  0.17724362  0.81463671  0.95003303  1
  O  O660  1  0.67669896  0.14636681  0.20039388  1
  O  O661  1  0.67667663  0.14607533  0.45033934  1
  O  O662  1  0.67702608  0.14566887  0.69954559  1
  O  O663  1  0.67685628  0.14889641  0.94889590  1
  O  O664  1  0.67907613  0.48127684  0.19758181  1
  O  O665  1  0.67631817  0.47888978  0.44992984  1
  O  O666  1  0.67873698  0.48000885  0.69814593  1
  O  O667  1  0.67749501  0.48035904  0.94788331  1
  O  O668  1  0.67636799  0.81367566  0.20071491  1
  O  O669  1  0.67674587  0.81200375  0.45084021  1
  O  O670  1  0.67625774  0.81138810  0.70012939  1
  O  O671  1  0.67773931  0.81374210  0.94827820  1
