# generated using pymatgen
data_Na2MnFe(PO4)2
_symmetry_space_group_name_H-M   'P 1'
_cell_length_a   22.34578129
_cell_length_b   20.09805185
_cell_length_c   19.44682884
_cell_angle_alpha   90.03872335
_cell_angle_beta   89.99975529
_cell_angle_gamma   90.01191059
_symmetry_Int_Tables_number   1
_chemical_formula_structural   Na2MnFe(PO4)2
_chemical_formula_sum   'Na96 Mn48 Fe48 P96 O384'
_cell_volume   8733.69838169
_cell_formula_units_Z   48
loop_
 _symmetry_equiv_pos_site_id
 _symmetry_equiv_pos_as_xyz
  1  'x, y, z'
loop_
 _atom_site_type_symbol
 _atom_site_label
 _atom_site_symmetry_multiplicity
 _atom_site_fract_x
 _atom_site_fract_y
 _atom_site_fract_z
 _atom_site_occupancy
  Na  Na0  1  0.13947261  0.24898090  0.24367283  1
  Na  Na1  1  0.13978902  0.24796173  0.49337856  1
  Na  Na2  1  0.14034848  0.24891851  0.74432908  1
  Na  Na3  1  0.14050010  0.24937012  0.99272093  1
  Na  Na4  1  0.13995882  0.58301873  0.24340442  1
  Na  Na5  1  0.13974876  0.58387842  0.49282473  1
  Na  Na6  1  0.14045998  0.58316671  0.74522734  1
  Na  Na7  1  0.14037007  0.58311666  0.99224067  1
  Na  Na8  1  0.13986475  0.91674629  0.24436508  1
  Na  Na9  1  0.14002261  0.91755979  0.49363499  1
  Na  Na10  1  0.13983413  0.91716321  0.74353317  1
  Na  Na11  1  0.14007132  0.91698128  0.99160737  1
  Na  Na12  1  0.64035509  0.25080823  0.24417685  1
  Na  Na13  1  0.64066170  0.25032460  0.49391988  1
  Na  Na14  1  0.64072711  0.24970872  0.74550284  1
  Na  Na15  1  0.64110671  0.25020573  0.99350314  1
  Na  Na16  1  0.64075362  0.58330948  0.24392723  1
  Na  Na17  1  0.63987929  0.58407811  0.49238993  1
  Na  Na18  1  0.64067782  0.58406956  0.74330143  1
  Na  Na19  1  0.64105927  0.58269916  0.99450813  1
  Na  Na20  1  0.63999664  0.91524264  0.24322507  1
  Na  Na21  1  0.64081872  0.91657218  0.49295190  1
  Na  Na22  1  0.64104479  0.91649940  0.74365630  1
  Na  Na23  1  0.64036881  0.91631791  0.99456315  1
  Na  Na24  1  0.35943124  0.08283345  0.00489594  1
  Na  Na25  1  0.35934662  0.08190462  0.25676072  1
  Na  Na26  1  0.35933190  0.08304336  0.50457005  1
  Na  Na27  1  0.35861761  0.08304177  0.75590446  1
  Na  Na28  1  0.36023915  0.41646019  0.00602078  1
  Na  Na29  1  0.36025035  0.41567180  0.25668307  1
  Na  Na30  1  0.35933717  0.41562717  0.50603145  1
  Na  Na31  1  0.35937672  0.41610189  0.75782489  1
  Na  Na32  1  0.35946934  0.75029653  0.00517411  1
  Na  Na33  1  0.35960901  0.75092167  0.25630732  1
  Na  Na34  1  0.35968523  0.75078462  0.50561071  1
  Na  Na35  1  0.35942473  0.74982697  0.75677552  1
  Na  Na36  1  0.86026749  0.08351201  0.00682829  1
  Na  Na37  1  0.85942505  0.08420700  0.25701963  1
  Na  Na38  1  0.85937173  0.08342890  0.50643853  1
  Na  Na39  1  0.85943147  0.08307766  0.75740508  1
  Na  Na40  1  0.86016352  0.41740746  0.00765865  1
  Na  Na41  1  0.86035690  0.41695733  0.25756190  1
  Na  Na42  1  0.85967233  0.41759761  0.50571537  1
  Na  Na43  1  0.85963094  0.41662981  0.75656258  1
  Na  Na44  1  0.86004658  0.75023012  0.00668353  1
  Na  Na45  1  0.86014685  0.75067674  0.25661605  1
  Na  Na46  1  0.85965646  0.75122518  0.50695084  1
  Na  Na47  1  0.85956143  0.75154037  0.75537670  1
  Na  Na48  1  0.10899949  0.08394130  0.11929628  1
  Na  Na49  1  0.10950688  0.08372760  0.36855326  1
  Na  Na50  1  0.10990568  0.08191231  0.61824598  1
  Na  Na51  1  0.10987150  0.08249610  0.86775629  1
  Na  Na52  1  0.10939814  0.41652724  0.11868364  1
  Na  Na53  1  0.10869256  0.41632933  0.36865555  1
  Na  Na54  1  0.10930529  0.41631272  0.61907716  1
  Na  Na55  1  0.10986876  0.41701658  0.86904881  1
  Na  Na56  1  0.10940304  0.75094546  0.11784969  1
  Na  Na57  1  0.10942280  0.74999300  0.36894060  1
  Na  Na58  1  0.10924492  0.74998686  0.61868913  1
  Na  Na59  1  0.10966456  0.75048809  0.86792619  1
  Na  Na60  1  0.60929893  0.08268477  0.11906669  1
  Na  Na61  1  0.60970342  0.08338061  0.36781127  1
  Na  Na62  1  0.61015150  0.08332617  0.61923810  1
  Na  Na63  1  0.61039324  0.08390175  0.86841330  1
  Na  Na64  1  0.61008222  0.41621634  0.11985304  1
  Na  Na65  1  0.60947476  0.41684262  0.36898777  1
  Na  Na66  1  0.60941804  0.41672190  0.61940115  1
  Na  Na67  1  0.61034305  0.41656001  0.87016051  1
  Na  Na68  1  0.61011597  0.74938753  0.11928677  1
  Na  Na69  1  0.61031654  0.74916498  0.36741927  1
  Na  Na70  1  0.61017110  0.74870551  0.61672534  1
  Na  Na71  1  0.61000755  0.75018510  0.86939680  1
  Na  Na72  1  0.39054323  0.25043869  0.13087256  1
  Na  Na73  1  0.39023359  0.25028566  0.38125335  1
  Na  Na74  1  0.38978651  0.24930675  0.63166309  1
  Na  Na75  1  0.38999366  0.25110121  0.88172431  1
  Na  Na76  1  0.39072320  0.58250362  0.13018250  1
  Na  Na77  1  0.39070227  0.58252193  0.38064598  1
  Na  Na78  1  0.39045677  0.58221350  0.63081707  1
  Na  Na79  1  0.39046598  0.58307366  0.88256107  1
  Na  Na80  1  0.39021679  0.91590683  0.13050034  1
  Na  Na81  1  0.39003104  0.91582226  0.38069490  1
  Na  Na82  1  0.38979798  0.91657220  0.63042293  1
  Na  Na83  1  0.39015582  0.91668486  0.88084882  1
  Na  Na84  1  0.89075513  0.25148532  0.13230115  1
  Na  Na85  1  0.88987412  0.25112006  0.38144462  1
  Na  Na86  1  0.89026001  0.24888265  0.63114618  1
  Na  Na87  1  0.88998914  0.25004175  0.88367752  1
  Na  Na88  1  0.89119050  0.58439052  0.13156219  1
  Na  Na89  1  0.89087517  0.58461010  0.38169281  1
  Na  Na90  1  0.89024962  0.58486771  0.62992775  1
  Na  Na91  1  0.89067184  0.58400525  0.88178008  1
  Na  Na92  1  0.89051275  0.91780261  0.13145492  1
  Na  Na93  1  0.89013647  0.91594977  0.38223057  1
  Na  Na94  1  0.88984782  0.91639198  0.63205114  1
  Na  Na95  1  0.89025288  0.91750153  0.88137753  1
  Mn  Mn96  1  0.50006270  -0.00075838  -0.00033076  1
  Mn  Mn97  1  0.74963593  -0.00044502  0.12599358  1
  Mn  Mn98  1  0.49981628  0.16741454  0.00004120  1
  Mn  Mn99  1  0.75074922  0.16617396  0.62553755  1
  Mn  Mn100  1  0.50010650  0.16687424  0.49935999  1
  Mn  Mn101  1  0.49964556  0.16767634  0.74980347  1
  Mn  Mn102  1  0.75067510  0.50005076  0.12544062  1
  Mn  Mn103  1  0.24963018  0.49951494  0.37494033  1
  Mn  Mn104  1  -0.00037583  0.00074861  0.25046211  1
  Mn  Mn105  1  0.25021927  0.49947784  0.12429161  1
  Mn  Mn106  1  0.50009483  0.33419575  0.50055121  1
  Mn  Mn107  1  0.00020628  0.83448157  -0.00037532  1
  Mn  Mn108  1  0.50029071  0.83283925  0.74927880  1
  Mn  Mn109  1  0.24978298  0.66680787  0.12446059  1
  Mn  Mn110  1  -0.00034832  0.33326385  0.49964154  1
  Mn  Mn111  1  -0.00034166  0.50067977  0.74971759  1
  Mn  Mn112  1  0.00015435  0.33392361  0.00089347  1
  Mn  Mn113  1  0.50080308  0.83198437  0.49945893  1
  Mn  Mn114  1  0.24961618  -0.00034375  0.12455589  1
  Mn  Mn115  1  0.75007200  0.66740721  0.87468729  1
  Mn  Mn116  1  0.50068880  0.49913132  0.75067386  1
  Mn  Mn117  1  0.24960914  0.83351145  0.12423564  1
  Mn  Mn118  1  0.25018779  0.33253792  0.12463433  1
  Mn  Mn119  1  0.00006877  0.16543623  0.75080172  1
  Mn  Mn120  1  0.24936860  0.83448194  0.62573853  1
  Mn  Mn121  1  -0.00071216  0.33302775  0.75000109  1
  Mn  Mn122  1  0.50046789  -0.00006629  0.74989103  1
  Mn  Mn123  1  0.49988821  0.16708272  0.24923698  1
  Mn  Mn124  1  0.74978786  0.16752004  0.12556839  1
  Mn  Mn125  1  0.25038963  0.66754028  0.37453482  1
  Mn  Mn126  1  0.50045754  0.66655524  0.00065457  1
  Mn  Mn127  1  0.75058078  0.33313664  0.62566987  1
  Mn  Mn128  1  0.74937818  0.83400290  0.87499420  1
  Mn  Mn129  1  0.74996942  -0.00016867  0.37531829  1
  Mn  Mn130  1  0.24917499  0.33179856  0.62560751  1
  Mn  Mn131  1  0.24902139  0.33141008  0.37572589  1
  Mn  Mn132  1  0.49988150  -0.00066901  0.49919592  1
  Mn  Mn133  1  -0.00058858  -0.00017880  0.49981432  1
  Mn  Mn134  1  0.24967191  0.49969129  0.62565126  1
  Mn  Mn135  1  0.00048918  0.66734751  0.74998363  1
  Mn  Mn136  1  0.75137421  0.49991463  0.87507920  1
  Mn  Mn137  1  0.25006183  0.16591079  0.12414793  1
  Mn  Mn138  1  0.00043729  0.66720726  0.25024718  1
  Mn  Mn139  1  0.75028424  0.50077293  0.37496347  1
  Mn  Mn140  1  0.50027028  0.66606315  0.75008969  1
  Mn  Mn141  1  0.24980106  0.66681371  0.62540314  1
  Mn  Mn142  1  0.74920472  0.50096071  0.62494381  1
  Mn  Mn143  1  0.49995843  0.66577620  0.24932794  1
  Fe  Fe144  1  0.24936634  -0.00002809  0.37523094  1
  Fe  Fe145  1  -0.00032248  0.16667338  0.49964772  1
  Fe  Fe146  1  0.24999307  0.33265721  0.87449502  1
  Fe  Fe147  1  0.50041014  0.83315858  0.00011100  1
  Fe  Fe148  1  0.00007246  0.50034086  0.00045206  1
  Fe  Fe149  1  0.75059738  0.66786272  0.37442507  1
  Fe  Fe150  1  0.25012890  0.66674526  0.87498306  1
  Fe  Fe151  1  0.75075845  0.66712207  0.12538186  1
  Fe  Fe152  1  0.75007633  0.66770504  0.62394231  1
  Fe  Fe153  1  0.25021628  0.49969725  0.87501307  1
  Fe  Fe154  1  0.74964175  0.00023354  0.62522711  1
  Fe  Fe155  1  0.50058812  0.33397714  0.00096665  1
  Fe  Fe156  1  0.75073000  0.33318738  0.12586310  1
  Fe  Fe157  1  0.74976147  0.33355647  0.37550749  1
  Fe  Fe158  1  0.49965981  0.66547396  0.49867899  1
  Fe  Fe159  1  0.50090228  0.49938739  0.00053289  1
  Fe  Fe160  1  0.74981817  0.83378706  0.62477524  1
  Fe  Fe161  1  0.00019566  0.66699586  0.49980271  1
  Fe  Fe162  1  0.75046500  -0.00011650  0.87537399  1
  Fe  Fe163  1  0.50010106  0.33398485  0.25032698  1
  Fe  Fe164  1  0.75028127  0.83341256  0.37509005  1
  Fe  Fe165  1  0.00035732  0.00057446  0.00033844  1
  Fe  Fe166  1  -0.00035048  0.50009165  0.49956351  1
  Fe  Fe167  1  0.49956799  0.83242246  0.24979940  1
  Fe  Fe168  1  0.75044405  0.33336783  0.87562527  1
  Fe  Fe169  1  0.25000062  0.00031902  0.62433520  1
  Fe  Fe170  1  0.49926807  0.49950717  0.49991744  1
  Fe  Fe171  1  0.00032721  0.16684469  0.00041674  1
  Fe  Fe172  1  0.00064313  0.50088401  0.25005289  1
  Fe  Fe173  1  0.49982282  0.33371549  0.75032484  1
  Fe  Fe174  1  0.24918091  0.83405966  0.37542855  1
  Fe  Fe175  1  0.00017510  0.83318597  0.50052151  1
  Fe  Fe176  1  0.74956181  0.16698617  0.37560343  1
  Fe  Fe177  1  0.50022962  0.49943873  0.25023552  1
  Fe  Fe178  1  0.24975978  0.83363268  0.87410528  1
  Fe  Fe179  1  0.00004301  0.66744431  0.00027697  1
  Fe  Fe180  1  0.24984193  -0.00008281  0.87388249  1
  Fe  Fe181  1  0.24999038  0.16553206  0.37489396  1
  Fe  Fe182  1  0.24982723  0.16562890  0.62499414  1
  Fe  Fe183  1  0.49958154  -0.00096114  0.24909838  1
  Fe  Fe184  1  0.25009366  0.16583226  0.87414868  1
  Fe  Fe185  1  -0.00056159  -0.00024714  0.74978240  1
  Fe  Fe186  1  -0.00068000  0.83352322  0.75001869  1
  Fe  Fe187  1  0.75055329  0.16632707  0.87548967  1
  Fe  Fe188  1  0.00005796  0.83393098  0.24987734  1
  Fe  Fe189  1  0.75067499  0.83294900  0.12502599  1
  Fe  Fe190  1  -0.00093144  0.16726349  0.24979924  1
  Fe  Fe191  1  0.00003237  0.33389435  0.25018110  1
  P  P192  1  0.04222470  0.24903505  0.10318349  1
  P  P193  1  0.04062621  0.24981154  0.35175292  1
  P  P194  1  0.04196899  0.24825975  0.60230758  1
  P  P195  1  0.04218110  0.24973117  0.85390986  1
  P  P196  1  0.04179193  0.58363832  0.10173655  1
  P  P197  1  0.04216291  0.58264342  0.35310866  1
  P  P198  1  0.04126780  0.58325728  0.60115403  1
  P  P199  1  0.04233575  0.58376958  0.85416461  1
  P  P200  1  0.04253417  0.91859552  0.10258438  1
  P  P201  1  0.04152345  0.91548994  0.35296362  1
  P  P202  1  0.04153775  0.91549171  0.60311228  1
  P  P203  1  0.04107099  0.91707236  0.85158658  1
  P  P204  1  0.54252159  0.25165031  0.10300714  1
  P  P205  1  0.54211901  0.25151443  0.35222539  1
  P  P206  1  0.54288118  0.25042013  0.60351653  1
  P  P207  1  0.54198066  0.25227893  0.85322424  1
  P  P208  1  0.54269222  0.58130857  0.10310293  1
  P  P209  1  0.54219047  0.58180569  0.35286680  1
  P  P210  1  0.54156337  0.58256449  0.60102846  1
  P  P211  1  0.54333898  0.58274757  0.85396679  1
  P  P212  1  0.54201468  0.91496409  0.10334667  1
  P  P213  1  0.54146494  0.91579412  0.35087048  1
  P  P214  1  0.54321178  0.91609795  0.60243793  1
  P  P215  1  0.54331855  0.91613146  0.85338448  1
  P  P216  1  0.45750281  0.08191630  0.14731343  1
  P  P217  1  0.45766980  0.08271877  0.39546989  1
  P  P218  1  0.45693657  0.08330140  0.64660680  1
  P  P219  1  0.45743013  0.08375336  0.89673103  1
  P  P220  1  0.45887546  0.41665830  0.14803187  1
  P  P221  1  0.45744359  0.41768373  0.39694204  1
  P  P222  1  0.45714655  0.41578148  0.64779533  1
  P  P223  1  0.45893330  0.41641756  0.89870103  1
  P  P224  1  0.45768679  0.75076156  0.14696293  1
  P  P225  1  0.45813477  0.74836199  0.39649573  1
  P  P226  1  0.45724789  0.74855363  0.64591043  1
  P  P227  1  0.45808629  0.75093699  0.89781124  1
  P  P228  1  0.95735117  0.08512909  0.14716665  1
  P  P229  1  0.95750251  0.08496358  0.39713734  1
  P  P230  1  0.95743080  0.08188546  0.64748356  1
  P  P231  1  0.95894741  0.08291929  0.89850515  1
  P  P232  1  0.95908843  0.41785592  0.14868227  1
  P  P233  1  0.95779000  0.41823353  0.39655487  1
  P  P234  1  0.95684603  0.41695980  0.64626631  1
  P  P235  1  0.95751898  0.41809207  0.89820085  1
  P  P236  1  0.95839202  0.75161657  0.14731300  1
  P  P237  1  0.95880334  0.75058437  0.39835911  1
  P  P238  1  0.95811561  0.75137301  0.64683145  1
  P  P239  1  0.95790720  0.74978890  0.89754031  1
  P  P240  1  0.20716326  0.08291953  0.22857477  1
  P  P241  1  0.20814057  0.08303876  0.47714775  1
  P  P242  1  0.20818814  0.08277436  0.72688218  1
  P  P243  1  0.20849945  0.08282674  0.97556553  1
  P  P244  1  0.20711341  0.41591524  0.22793468  1
  P  P245  1  0.20642415  0.41576591  0.47841722  1
  P  P246  1  0.20724476  0.41599892  0.72945182  1
  P  P247  1  0.20895426  0.41592631  0.97613963  1
  P  P248  1  0.20693014  0.75063979  0.22821110  1
  P  P249  1  0.20755314  0.75171149  0.47761268  1
  P  P250  1  0.20714580  0.75025413  0.72926444  1
  P  P251  1  0.20821126  0.75030373  0.97579848  1
  P  P252  1  0.70710631  0.08389805  0.22895809  1
  P  P253  1  0.70765843  0.08424573  0.47783966  1
  P  P254  1  0.70815285  0.08204636  0.72866061  1
  P  P255  1  0.70897261  0.08301120  0.97699758  1
  P  P256  1  0.70880845  0.41552367  0.22822805  1
  P  P257  1  0.70777801  0.41626980  0.47743143  1
  P  P258  1  0.70749123  0.41641538  0.72888433  1
  P  P259  1  0.70895955  0.41547871  0.97826229  1
  P  P260  1  0.70917415  0.75007254  0.22721010  1
  P  P261  1  0.70885041  0.75044927  0.47674375  1
  P  P262  1  0.70827449  0.75033339  0.72586356  1
  P  P263  1  0.70773145  0.75024179  0.97910675  1
  P  P264  1  0.29272029  0.24946817  0.02027064  1
  P  P265  1  0.29215454  0.24788883  0.27261393  1
  P  P266  1  0.29170383  0.24733381  0.52239082  1
  P  P267  1  0.29114149  0.24899419  0.77297361  1
  P  P268  1  0.29252164  0.58335195  0.02041218  1
  P  P269  1  0.29300144  0.58318265  0.27155964  1
  P  P270  1  0.29242110  0.58340642  0.52199452  1
  P  P271  1  0.29168981  0.58329737  0.77387987  1
  P  P272  1  0.29216271  0.91663569  0.02015657  1
  P  P273  1  0.29089788  0.91671986  0.27359051  1
  P  P274  1  0.29157217  0.91810484  0.52166248  1
  P  P275  1  0.29153761  0.91713771  0.77257222  1
  P  P276  1  0.79259870  0.25139611  0.02260155  1
  P  P277  1  0.79116280  0.25063583  0.27384313  1
  P  P278  1  0.79265102  0.25003971  0.52140500  1
  P  P279  1  0.79208046  0.24982910  0.77434834  1
  P  P280  1  0.79290356  0.58466957  0.02308311  1
  P  P281  1  0.79251823  0.58546615  0.27228830  1
  P  P282  1  0.79167656  0.58545976  0.52170537  1
  P  P283  1  0.79316015  0.58436529  0.77118557  1
  P  P284  1  0.79234560  0.91598346  0.02281092  1
  P  P285  1  0.79220649  0.91506259  0.27257069  1
  P  P286  1  0.79110304  0.91709917  0.52339103  1
  P  P287  1  0.79212211  0.91797584  0.77198063  1
  O  O288  1  0.03676328  0.24924714  0.18307324  1
  O  O289  1  0.03564750  0.24971851  0.43173535  1
  O  O290  1  0.03676052  0.24841270  0.68228065  1
  O  O291  1  0.03714750  0.24948775  0.93388166  1
  O  O292  1  0.03682544  0.58356683  0.18177405  1
  O  O293  1  0.03681219  0.58280496  0.43295964  1
  O  O294  1  0.03637188  0.58379402  0.68115356  1
  O  O295  1  0.03704239  0.58398346  0.93406584  1
  O  O296  1  0.03735578  0.91806166  0.18250952  1
  O  O297  1  0.03611258  0.91534414  0.43287825  1
  O  O298  1  0.03598019  0.91579681  0.68297675  1
  O  O299  1  0.03635390  0.91792048  0.93160017  1
  O  O300  1  0.53712625  0.25152053  0.18294583  1
  O  O301  1  0.53702033  0.25123498  0.43218753  1
  O  O302  1  0.53773577  0.25086546  0.68350249  1
  O  O303  1  0.53668463  0.25242920  0.93320016  1
  O  O304  1  0.53716289  0.58128868  0.18301977  1
  O  O305  1  0.53647752  0.58225690  0.43273044  1
  O  O306  1  0.53702381  0.58282258  0.68110859  1
  O  O307  1  0.53834032  0.58258277  0.93393511  1
  O  O308  1  0.53608116  0.91536457  0.18321613  1
  O  O309  1  0.53680916  0.91575955  0.43090527  1
  O  O310  1  0.53830090  0.91609602  0.68241083  1
  O  O311  1  0.53824801  0.91562824  0.93339734  1
  O  O312  1  0.46276406  0.08219106  0.06732692  1
  O  O313  1  0.46314273  0.08220381  0.31553056  1
  O  O314  1  0.46193916  0.08336807  0.56658667  1
  O  O315  1  0.46251446  0.08386247  0.81678643  1
  O  O316  1  0.46447151  0.41653561  0.06814370  1
  O  O317  1  0.46288590  0.41731067  0.31706027  1
  O  O318  1  0.46198674  0.41673304  0.56782903  1
  O  O319  1  0.46371261  0.41580314  0.81871217  1
  O  O320  1  0.46324702  0.75108655  0.06706769  1
  O  O321  1  0.46325848  0.74911082  0.31651038  1
  O  O322  1  0.46234683  0.74779277  0.56588164  1
  O  O323  1  0.46319123  0.75038188  0.81781686  1
  O  O324  1  0.96305736  0.08485545  0.06731284  1
  O  O325  1  0.96270772  0.08508051  0.31719590  1
  O  O326  1  0.96212965  0.08250399  0.56752517  1
  O  O327  1  0.96389114  0.08202723  0.81851327  1
  O  O328  1  0.96396475  0.41784216  0.06868219  1
  O  O329  1  0.96358249  0.41811859  0.31670735  1
  O  O330  1  0.96219766  0.41708538  0.56629613  1
  O  O331  1  0.96222062  0.41755806  0.81818780  1
  O  O332  1  0.96377075  0.75092792  0.06740133  1
  O  O333  1  0.96341357  0.75060944  0.31834109  1
  O  O334  1  0.96358325  0.75129993  0.56695386  1
  O  O335  1  0.96293293  0.75014297  0.81756684  1
  O  O336  1  0.21309183  0.08300155  0.05556295  1
  O  O337  1  0.21215066  0.08293948  0.30851638  1
  O  O338  1  0.21336112  0.08309207  0.55705362  1
  O  O339  1  0.21352866  0.08266382  0.80676554  1
  O  O340  1  0.21374630  0.41612776  0.05615578  1
  O  O341  1  0.21169610  0.41581166  0.30795532  1
  O  O342  1  0.21137046  0.41575186  0.55844684  1
  O  O343  1  0.21290982  0.41594687  0.80936539  1
  O  O344  1  0.21303504  0.75029059  0.05586230  1
  O  O345  1  0.21204682  0.75132473  0.30820970  1
  O  O346  1  0.21245691  0.75147861  0.55761005  1
  O  O347  1  0.21262007  0.75013926  0.80918475  1
  O  O348  1  0.71345971  0.08347961  0.05702670  1
  O  O349  1  0.71228725  0.08429514  0.30890020  1
  O  O350  1  0.71288665  0.08359498  0.55780421  1
  O  O351  1  0.71369388  0.08214048  0.80853725  1
  O  O352  1  0.71435819  0.41539056  0.05822086  1
  O  O353  1  0.71391978  0.41570315  0.30815879  1
  O  O354  1  0.71262769  0.41667300  0.55741427  1
  O  O355  1  0.71311495  0.41617895  0.80883580  1
  O  O356  1  0.71330898  0.75006210  0.05898382  1
  O  O357  1  0.71425408  0.75010935  0.30716206  1
  O  O358  1  0.71371770  0.75054202  0.55668185  1
  O  O359  1  0.71278617  0.75069387  0.80588129  1
  O  O360  1  0.28749298  0.24848334  0.19256444  1
  O  O361  1  0.28647120  0.24721577  0.44240275  1
  O  O362  1  0.28610964  0.24836179  0.69300849  1
  O  O363  1  0.28744097  0.24972826  0.94036417  1
  O  O364  1  0.28801521  0.58313316  0.19152019  1
  O  O365  1  0.28741594  0.58343614  0.44200663  1
  O  O366  1  0.28675302  0.58308328  0.69386421  1
  O  O367  1  0.28725014  0.58337659  0.94047969  1
  O  O368  1  0.28613894  0.91649477  0.19355180  1
  O  O369  1  0.28589995  0.91760907  0.44179292  1
  O  O370  1  0.28646880  0.91766758  0.69259337  1
  O  O371  1  0.28703784  0.91661868  0.94023316  1
  O  O372  1  0.78629593  0.25089602  0.19381808  1
  O  O373  1  0.78693374  0.25009338  0.44152451  1
  O  O374  1  0.78755373  0.24922591  0.69432553  1
  O  O375  1  0.78760573  0.25139251  0.94271992  1
  O  O376  1  0.78737250  0.58550223  0.19233314  1
  O  O377  1  0.78655065  0.58555038  0.44173407  1
  O  O378  1  0.78757952  0.58477912  0.69123011  1
  O  O379  1  0.78796573  0.58417971  0.94309791  1
  O  O380  1  0.78710845  0.91481091  0.19263431  1
  O  O381  1  0.78637268  0.91631173  0.44339600  1
  O  O382  1  0.78665936  0.91791764  0.69212490  1
  O  O383  1  0.78711148  0.91682271  0.94285551  1
  O  O384  1  0.22841639  0.24945748  0.05587938  1
  O  O385  1  0.22765762  0.24732380  0.30768110  1
  O  O386  1  0.22745480  0.24722934  0.55815140  1
  O  O387  1  0.22706452  0.24988635  0.80899567  1
  O  O388  1  0.22825661  0.58315586  0.05608406  1
  O  O389  1  0.22851152  0.58360365  0.30644486  1
  O  O390  1  0.22793970  0.58328600  0.55696920  1
  O  O391  1  0.22749236  0.58376036  0.80954982  1
  O  O392  1  0.22780150  0.91675691  0.05557039  1
  O  O393  1  0.22666999  0.91695590  0.30930858  1
  O  O394  1  0.22751144  0.91862816  0.55802111  1
  O  O395  1  0.22734953  0.91698207  0.80860858  1
  O  O396  1  0.72829214  0.25201359  0.05842144  1
  O  O397  1  0.72701381  0.25076663  0.30978703  1
  O  O398  1  0.72857459  0.24972239  0.55744075  1
  O  O399  1  0.72786411  0.25019269  0.80997400  1
  O  O400  1  0.72861967  0.58472235  0.05860566  1
  O  O401  1  0.72828125  0.58545314  0.30801123  1
  O  O402  1  0.72743954  0.58585976  0.55754228  1
  O  O403  1  0.72888652  0.58342514  0.80668688  1
  O  O404  1  0.72812200  0.91509940  0.05861036  1
  O  O405  1  0.72791353  0.91524427  0.30817176  1
  O  O406  1  0.72698002  0.91780735  0.55927347  1
  O  O407  1  0.72801172  0.91879313  0.80826534  1
  O  O408  1  0.27150485  0.08272663  0.19311341  1
  O  O409  1  0.27213409  0.08274928  0.44057783  1
  O  O410  1  0.27219398  0.08279770  0.69028856  1
  O  O411  1  0.27273971  0.08197629  0.94001898  1
  O  O412  1  0.27170040  0.41602806  0.19325388  1
  O  O413  1  0.27090643  0.41539248  0.44355488  1
  O  O414  1  0.27139767  0.41566643  0.69352909  1
  O  O415  1  0.27310812  0.41528347  0.94039610  1
  O  O416  1  0.27134977  0.75033028  0.19306020  1
  O  O417  1  0.27187810  0.75205932  0.44214651  1
  O  O418  1  0.27134953  0.75040990  0.69351467  1
  O  O419  1  0.27244027  0.75053901  0.94010972  1
  O  O420  1  0.77141412  0.08374174  0.19362268  1
  O  O421  1  0.77189197  0.08441492  0.44207956  1
  O  O422  1  0.77226455  0.08141404  0.69236391  1
  O  O423  1  0.77323227  0.08257153  0.94138680  1
  O  O424  1  0.77305260  0.41559850  0.19247061  1
  O  O425  1  0.77210539  0.41607097  0.44204640  1
  O  O426  1  0.77172149  0.41747164  0.69328986  1
  O  O427  1  0.77314890  0.41524324  0.94233108  1
  O  O428  1  0.77327135  0.75013909  0.19096182  1
  O  O429  1  0.77306350  0.75049659  0.44072460  1
  O  O430  1  0.77255780  0.74960231  0.69035162  1
  O  O431  1  0.77185721  0.75066654  0.94316588  1
  O  O432  1  0.02141163  0.08523615  0.18350405  1
  O  O433  1  0.02169865  0.08447935  0.43302533  1
  O  O434  1  0.02186032  0.08154764  0.68275605  1
  O  O435  1  0.02310612  0.08316537  0.93450400  1
  O  O436  1  0.02322499  0.41782559  0.18455181  1
  O  O437  1  0.02174260  0.41836951  0.43318004  1
  O  O438  1  0.02114637  0.41660941  0.68174481  1
  O  O439  1  0.02192746  0.41841989  0.93352846  1
  O  O440  1  0.02252521  0.75192604  0.18334071  1
  O  O441  1  0.02298796  0.75087556  0.43411131  1
  O  O442  1  0.02217054  0.75209420  0.68311201  1
  O  O443  1  0.02217219  0.74973734  0.93317207  1
  O  O444  1  0.52177807  0.08196137  0.18280524  1
  O  O445  1  0.52189835  0.08293836  0.43110470  1
  O  O446  1  0.52144292  0.08382193  0.68150781  1
  O  O447  1  0.52179111  0.08372352  0.93192727  1
  O  O448  1  0.52286627  0.41664898  0.18469706  1
  O  O449  1  0.52162042  0.41839557  0.43303034  1
  O  O450  1  0.52163897  0.41493052  0.68311189  1
  O  O451  1  0.52314266  0.41688768  0.93461790  1
  O  O452  1  0.52187542  0.75069251  0.18290777  1
  O  O453  1  0.52241390  0.74765771  0.43212971  1
  O  O454  1  0.52175586  0.74906369  0.68089948  1
  O  O455  1  0.52237654  0.75111918  0.93340474  1
  O  O456  1  0.47824520  0.25155742  0.06736545  1
  O  O457  1  0.47786670  0.25168564  0.31660356  1
  O  O458  1  0.47846522  0.25027736  0.56837920  1
  O  O459  1  0.47776270  0.25234462  0.81725882  1
  O  O460  1  0.47859425  0.58127014  0.06700362  1
  O  O461  1  0.47817313  0.58146290  0.31641387  1
  O  O462  1  0.47724368  0.58233123  0.56541826  1
  O  O463  1  0.47891508  0.58273508  0.81882614  1
  O  O464  1  0.47804295  0.91462389  0.06671545  1
  O  O465  1  0.47714494  0.91566324  0.31537638  1
  O  O466  1  0.47869731  0.91555716  0.56764658  1
  O  O467  1  0.47888360  0.91618640  0.81825035  1
  O  O468  1  0.97808354  0.24911630  0.06708346  1
  O  O469  1  0.97658088  0.24995703  0.31557238  1
  O  O470  1  0.97766797  0.24838158  0.56673709  1
  O  O471  1  0.97783197  0.24937995  0.81860641  1
  O  O472  1  0.97760735  0.58329210  0.06584442  1
  O  O473  1  0.97807270  0.58263983  0.31687600  1
  O  O474  1  0.97714560  0.58288804  0.56523332  1
  O  O475  1  0.97817906  0.58413856  0.81828090  1
  O  O476  1  0.97820855  0.91875185  0.06699297  1
  O  O477  1  0.97740214  0.91567486  0.31683735  1
  O  O478  1  0.97745816  0.91527332  0.56680462  1
  O  O479  1  0.97687679  0.91682743  0.81569806  1
  O  O480  1  0.07359886  0.31256522  0.07528780  1
  O  O481  1  0.07114867  0.31383676  0.32368058  1
  O  O482  1  0.07322603  0.31177201  0.57460057  1
  O  O483  1  0.07276497  0.31349444  0.82576466  1
  O  O484  1  0.07193351  0.64784224  0.07369303  1
  O  O485  1  0.07335920  0.64619742  0.32496311  1
  O  O486  1  0.07160745  0.64727826  0.57291704  1
  O  O487  1  0.07381365  0.64688036  0.82551283  1
  O  O488  1  0.07308132  0.98228239  0.07415772  1
  O  O489  1  0.07256446  0.97937056  0.32566957  1
  O  O490  1  0.07260812  0.97906463  0.57486360  1
  O  O491  1  0.07199015  0.98039749  0.82270314  1
  O  O492  1  0.57344547  0.31497772  0.07445008  1
  O  O493  1  0.57289937  0.31514641  0.32416606  1
  O  O494  1  0.57411288  0.31365643  0.57503117  1
  O  O495  1  0.57302913  0.31542475  0.82444450  1
  O  O496  1  0.57363959  0.64522437  0.07574543  1
  O  O497  1  0.57335178  0.64530928  0.32460446  1
  O  O498  1  0.57209122  0.64624313  0.57244792  1
  O  O499  1  0.57422533  0.64632062  0.82560529  1
  O  O500  1  0.57324003  0.97864067  0.07553259  1
  O  O501  1  0.57209820  0.97957546  0.32274809  1
  O  O502  1  0.57379606  0.97976887  0.57425714  1
  O  O503  1  0.57402760  0.97998139  0.82553370  1
  O  O504  1  0.42682273  0.01822512  0.17549419  1
  O  O505  1  0.42638742  0.01946912  0.42383048  1
  O  O506  1  0.42641485  0.01951806  0.67467764  1
  O  O507  1  0.42638631  0.02022922  0.92462481  1
  O  O508  1  0.42786862  0.35304356  0.17636896  1
  O  O509  1  0.42657124  0.35399826  0.42517967  1
  O  O510  1  0.42632341  0.35217998  0.67595341  1
  O  O511  1  0.42811884  0.35301852  0.92746655  1
  O  O512  1  0.42671929  0.68679180  0.17415049  1
  O  O513  1  0.42718372  0.68478761  0.42457255  1
  O  O514  1  0.42628185  0.68542501  0.67507339  1
  O  O515  1  0.42710812  0.68732582  0.92575544  1
  O  O516  1  0.92611660  0.02162265  0.17533542  1
  O  O517  1  0.92622207  0.02123724  0.42454108  1
  O  O518  1  0.92685576  0.01824609  0.67601394  1
  O  O519  1  0.92791744  0.01959512  0.92724028  1
  O  O520  1  0.92865959  0.35384646  0.17695579  1
  O  O521  1  0.92659767  0.35461187  0.42439011  1
  O  O522  1  0.92580974  0.35333481  0.67437049  1
  O  O523  1  0.92673546  0.35447738  0.92642556  1
  O  O524  1  0.92718589  0.68825258  0.17556311  1
  O  O525  1  0.92873692  0.68642330  0.42674660  1
  O  O526  1  0.92733339  0.68753490  0.67466135  1
  O  O527  1  0.92740357  0.68618710  0.92633289  1
  O  O528  1  0.17598409  0.01953278  0.20001145  1
  O  O529  1  0.17690258  0.01954566  0.44884128  1
  O  O530  1  0.17730988  0.01922097  0.69830204  1
  O  O531  1  0.17696436  0.01963158  0.94736586  1
  O  O532  1  0.17636870  0.35232057  0.19959335  1
  O  O533  1  0.17529915  0.35221171  0.45042218  1
  O  O534  1  0.17567890  0.35281224  0.70104142  1
  O  O535  1  0.17737679  0.35262113  0.94834145  1
  O  O536  1  0.17600083  0.68692424  0.20017029  1
  O  O537  1  0.17673791  0.68797306  0.44968763  1
  O  O538  1  0.17596734  0.68685155  0.70072407  1
  O  O539  1  0.17762857  0.68638654  0.94795169  1
  O  O540  1  0.67621473  0.02016215  0.20098162  1
  O  O541  1  0.67633743  0.02087265  0.44962714  1
  O  O542  1  0.67674740  0.01906617  0.69962880  1
  O  O543  1  0.67782432  0.01946404  0.94919060  1
  O  O544  1  0.67788776  0.35222039  0.19950623  1
  O  O545  1  0.67702800  0.35265769  0.44912426  1
  O  O546  1  0.67694846  0.35268866  0.70060167  1
  O  O547  1  0.67775750  0.35234178  0.94945843  1
  O  O548  1  0.67825591  0.68636784  0.19886664  1
  O  O549  1  0.67792181  0.68696662  0.44804114  1
  O  O550  1  0.67694003  0.68696287  0.69778870  1
  O  O551  1  0.67665113  0.68679326  0.95057298  1
  O  O552  1  0.32388313  0.31270909  0.04920969  1
  O  O553  1  0.32282547  0.31160821  0.30089458  1
  O  O554  1  0.32253731  0.31125914  0.55012024  1
  O  O555  1  0.32266105  0.31241284  0.80077873  1
  O  O556  1  0.32352638  0.64684886  0.04885517  1
  O  O557  1  0.32421213  0.64664197  0.29957408  1
  O  O558  1  0.32326387  0.64701209  0.55014973  1
  O  O559  1  0.32296296  0.64680746  0.80172235  1
  O  O560  1  0.32333966  0.97988965  0.04900626  1
  O  O561  1  0.32182974  0.98034580  0.30157379  1
  O  O562  1  0.32275082  0.98150158  0.55006639  1
  O  O563  1  0.32254066  0.98057157  0.80104598  1
  O  O564  1  0.82393381  0.31438507  0.05191933  1
  O  O565  1  0.82237832  0.31406712  0.30205293  1
  O  O566  1  0.82380117  0.31351578  0.54974261  1
  O  O567  1  0.82315120  0.31348454  0.80204393  1
  O  O568  1  0.82360842  0.64827411  0.05135392  1
  O  O569  1  0.82357430  0.64871733  0.30103993  1
  O  O570  1  0.82288672  0.64867111  0.55033244  1
  O  O571  1  0.82387232  0.64793834  0.79973335  1
  O  O572  1  0.82309012  0.97958897  0.05132437  1
  O  O573  1  0.82320127  0.97891483  0.30023488  1
  O  O574  1  0.82232166  0.98073003  0.55105904  1
  O  O575  1  0.82364747  0.98085003  0.80109733  1
  O  O576  1  0.42629439  0.14558732  0.17478663  1
  O  O577  1  0.42671611  0.14643283  0.42331442  1
  O  O578  1  0.42561857  0.14651215  0.67499011  1
  O  O579  1  0.42643499  0.14724945  0.92485076  1
  O  O580  1  0.42781159  0.48023740  0.17621468  1
  O  O581  1  0.42620313  0.48086905  0.42565380  1
  O  O582  1  0.42651542  0.47931733  0.67662282  1
  O  O583  1  0.42824527  0.48031812  0.92662762  1
  O  O584  1  0.42653823  0.81386332  0.17595019  1
  O  O585  1  0.42717977  0.81194144  0.42468250  1
  O  O586  1  0.42615244  0.81225099  0.67368533  1
  O  O587  1  0.42734061  0.81456183  0.92589043  1
  O  O588  1  0.92623506  0.14847067  0.17580872  1
  O  O589  1  0.92695351  0.14839967  0.42603064  1
  O  O590  1  0.92630976  0.14520622  0.67616288  1
  O  O591  1  0.92836728  0.14696573  0.92617631  1
  O  O592  1  0.92788498  0.48125574  0.17686862  1
  O  O593  1  0.92666974  0.48157598  0.42514953  1
  O  O594  1  0.92578075  0.48037021  0.67450068  1
  O  O595  1  0.92679242  0.48163031  0.92662380  1
  O  O596  1  0.92775046  0.81539862  0.17546204  1
  O  O597  1  0.92744863  0.81376766  0.42685662  1
  O  O598  1  0.92673383  0.81443927  0.67579797  1
  O  O599  1  0.92654417  0.81324640  0.92542658  1
  O  O600  1  0.07304899  0.18563207  0.07422113  1
  O  O601  1  0.07175015  0.18639767  0.32353688  1
  O  O602  1  0.07243098  0.18457109  0.57373983  1
  O  O603  1  0.07366236  0.18657619  0.82552455  1
  O  O604  1  0.07310284  0.52030024  0.07340626  1
  O  O605  1  0.07314846  0.51934090  0.32419331  1
  O  O606  1  0.07239632  0.51967457  0.57346144  1
  O  O607  1  0.07317745  0.52018158  0.82570885  1
  O  O608  1  0.07378764  0.85530628  0.07411514  1
  O  O609  1  0.07239979  0.85222172  0.32409367  1
  O  O610  1  0.07278044  0.85224148  0.57451740  1
  O  O611  1  0.07165016  0.85302704  0.82397054  1
  O  O612  1  0.57359089  0.18790191  0.07512762  1
  O  O613  1  0.57314857  0.18790442  0.32438114  1
  O  O614  1  0.57385214  0.18684579  0.57525667  1
  O  O615  1  0.57282938  0.18828112  0.82577757  1
  O  O616  1  0.57383952  0.51808080  0.07455798  1
  O  O617  1  0.57335165  0.51843965  0.32446485  1
  O  O618  1  0.57228649  0.51872837  0.57321451  1
  O  O619  1  0.57449643  0.51949174  0.82541043  1
  O  O620  1  0.57317127  0.85161162  0.07494654  1
  O  O621  1  0.57225253  0.85198981  0.32293330  1
  O  O622  1  0.57448685  0.85280586  0.57413218  1
  O  O623  1  0.57459350  0.85300378  0.82467668  1
  O  O624  1  0.32377765  0.18599204  0.04855819  1
  O  O625  1  0.32302381  0.18443930  0.30090869  1
  O  O626  1  0.32281846  0.18417570  0.55105903  1
  O  O627  1  0.32134330  0.18504110  0.80149234  1
  O  O628  1  0.32382018  0.52001013  0.04872211  1
  O  O629  1  0.32367601  0.51958906  0.29980310  1
  O  O630  1  0.32340294  0.51993424  0.55019411  1
  O  O631  1  0.32201066  0.51928509  0.80206775  1
  O  O632  1  0.32317100  0.85327365  0.04886615  1
  O  O633  1  0.32148480  0.85296126  0.30185169  1
  O  O634  1  0.32266870  0.85461973  0.54998978  1
  O  O635  1  0.32223307  0.85322370  0.80032343  1
  O  O636  1  0.82310190  0.18742277  0.05063954  1
  O  O637  1  0.82149499  0.18656239  0.30186628  1
  O  O638  1  0.82408805  0.18681826  0.54985068  1
  O  O639  1  0.82230429  0.18589450  0.80293292  1
  O  O640  1  0.82392733  0.52110278  0.05109151  1
  O  O641  1  0.82339020  0.52164217  0.29998574  1
  O  O642  1  0.82230112  0.52148708  0.54929126  1
  O  O643  1  0.82478229  0.52112852  0.79921546  1
  O  O644  1  0.82351204  0.85249441  0.05076635  1
  O  O645  1  0.82315385  0.85194383  0.30164454  1
  O  O646  1  0.82140947  0.85333717  0.55231455  1
  O  O647  1  0.82262019  0.85395888  0.79989773  1
  O  O648  1  0.17619030  0.14620151  0.19968199  1
  O  O649  1  0.17738766  0.14661729  0.44850812  1
  O  O650  1  0.17722856  0.14642280  0.69870965  1
  O  O651  1  0.17864004  0.14701853  0.94721583  1
  O  O652  1  0.17621982  0.47935876  0.19956037  1
  O  O653  1  0.17568682  0.47929333  0.45013540  1
  O  O654  1  0.17617738  0.47958636  0.70136074  1
  O  O655  1  0.17886447  0.48011810  0.94805766  1
  O  O656  1  0.17577672  0.81373501  0.19933607  1
  O  O657  1  0.17670982  0.81524094  0.44938302  1
  O  O658  1  0.17590782  0.81361482  0.70101321  1
  O  O659  1  0.17721297  0.81389841  0.94780832  1
  O  O660  1  0.67584891  0.14700022  0.20028963  1
  O  O661  1  0.67702362  0.14794575  0.44956031  1
  O  O662  1  0.67740220  0.14596755  0.70084511  1
  O  O663  1  0.67884433  0.14703010  0.94846152  1
  O  O664  1  0.67787433  0.47931022  0.20042692  1
  O  O665  1  0.67691379  0.47989911  0.44940026  1
  O  O666  1  0.67573367  0.47957731  0.70085987  1
  O  O667  1  0.67821060  0.47946044  0.95077314  1
  O  O668  1  0.67822213  0.81357049  0.19871284  1
  O  O669  1  0.67805142  0.81407913  0.44813337  1
  O  O670  1  0.67832342  0.81442856  0.69739964  1
  O  O671  1  0.67633416  0.81347212  0.95069120  1
