# generated using pymatgen
data_Na2MnFe(PO4)2
_symmetry_space_group_name_H-M   'P 1'
_cell_length_a   22.34133074
_cell_length_b   20.09503867
_cell_length_c   19.44968403
_cell_angle_alpha   90.01872755
_cell_angle_beta   90.05609485
_cell_angle_gamma   90.01545673
_symmetry_Int_Tables_number   1
_chemical_formula_structural   Na2MnFe(PO4)2
_chemical_formula_sum   'Na96 Mn48 Fe48 P96 O384'
_cell_volume   8731.92882950
_cell_formula_units_Z   48
loop_
 _symmetry_equiv_pos_site_id
 _symmetry_equiv_pos_as_xyz
  1  'x, y, z'
loop_
 _atom_site_type_symbol
 _atom_site_label
 _atom_site_symmetry_multiplicity
 _atom_site_fract_x
 _atom_site_fract_y
 _atom_site_fract_z
 _atom_site_occupancy
  Na  Na0  1  0.14024610  0.24945362  0.24272812  1
  Na  Na1  1  0.13999611  0.24997475  0.49415926  1
  Na  Na2  1  0.14042274  0.24862003  0.74399245  1
  Na  Na3  1  0.13999023  0.24970120  0.99341551  1
  Na  Na4  1  0.13978134  0.58309983  0.24240558  1
  Na  Na5  1  0.13953853  0.58367604  0.49483094  1
  Na  Na6  1  0.13975012  0.58274372  0.74273423  1
  Na  Na7  1  0.13980675  0.58415242  0.99272064  1
  Na  Na8  1  0.14015591  0.91592721  0.24311628  1
  Na  Na9  1  0.14015547  0.91646959  0.49430428  1
  Na  Na10  1  0.14003559  0.91427443  0.74459858  1
  Na  Na11  1  0.14002566  0.91639822  0.99281004  1
  Na  Na12  1  0.64016146  0.25004046  0.24241644  1
  Na  Na13  1  0.64012729  0.24950286  0.49397063  1
  Na  Na14  1  0.64028594  0.25004271  0.74518843  1
  Na  Na15  1  0.64065990  0.25070838  0.99191371  1
  Na  Na16  1  0.64004992  0.58450119  0.24368889  1
  Na  Na17  1  0.63975229  0.58487990  0.49354342  1
  Na  Na18  1  0.64006587  0.58327421  0.74394554  1
  Na  Na19  1  0.64028613  0.58427987  0.99315534  1
  Na  Na20  1  0.64063642  0.91683965  0.24421266  1
  Na  Na21  1  0.64028043  0.91639795  0.49466010  1
  Na  Na22  1  0.64030915  0.91626165  0.74512222  1
  Na  Na23  1  0.64076133  0.91838124  0.99356065  1
  Na  Na24  1  0.36052455  0.08389179  0.00638546  1
  Na  Na25  1  0.36026905  0.08360902  0.25526065  1
  Na  Na26  1  0.35980778  0.08429721  0.50678569  1
  Na  Na27  1  0.35956840  0.08146531  0.75660761  1
  Na  Na28  1  0.35961364  0.41745329  0.00603361  1
  Na  Na29  1  0.35991964  0.41809226  0.25529273  1
  Na  Na30  1  0.35954030  0.41757721  0.50700045  1
  Na  Na31  1  0.35942187  0.41549779  0.75577823  1
  Na  Na32  1  0.35945383  0.75007470  0.00569304  1
  Na  Na33  1  0.35948947  0.74960092  0.25528918  1
  Na  Na34  1  0.36006220  0.74967767  0.50782782  1
  Na  Na35  1  0.35971565  0.74858384  0.75603663  1
  Na  Na36  1  0.86027577  0.08274162  0.00740230  1
  Na  Na37  1  0.86054876  0.08192523  0.25604954  1
  Na  Na38  1  0.86017698  0.08366711  0.50564260  1
  Na  Na39  1  0.85952246  0.08283887  0.75837745  1
  Na  Na40  1  0.86035735  0.41698956  0.00578189  1
  Na  Na41  1  0.85988078  0.41758014  0.25477885  1
  Na  Na42  1  0.85939342  0.41756154  0.50628500  1
  Na  Na43  1  0.85965395  0.41638842  0.75771815  1
  Na  Na44  1  0.86015843  0.75072652  0.00665240  1
  Na  Na45  1  0.85983063  0.75055187  0.25531014  1
  Na  Na46  1  0.86059142  0.75042930  0.50709504  1
  Na  Na47  1  0.86019790  0.74945188  0.75769077  1
  Na  Na48  1  0.10920750  0.08277749  0.11792445  1
  Na  Na49  1  0.10943240  0.08326489  0.36880090  1
  Na  Na50  1  0.10931698  0.08168525  0.61886844  1
  Na  Na51  1  0.10969776  0.08215435  0.86919479  1
  Na  Na52  1  0.10898637  0.41752626  0.11741322  1
  Na  Na53  1  0.10930628  0.41614097  0.36908224  1
  Na  Na54  1  0.10946012  0.41694593  0.61825598  1
  Na  Na55  1  0.10938516  0.41727094  0.86826533  1
  Na  Na56  1  0.10937576  0.74944065  0.11648705  1
  Na  Na57  1  0.10928402  0.74945130  0.36927287  1
  Na  Na58  1  0.10938654  0.74915130  0.61979246  1
  Na  Na59  1  0.10964896  0.74886324  0.86838797  1
  Na  Na60  1  0.60969959  0.08510342  0.11727427  1
  Na  Na61  1  0.60937735  0.08362770  0.36908064  1
  Na  Na62  1  0.60954460  0.08195730  0.62013050  1
  Na  Na63  1  0.61026468  0.08418285  0.86853355  1
  Na  Na64  1  0.60968018  0.41863185  0.11717447  1
  Na  Na65  1  0.60909498  0.41695688  0.36851229  1
  Na  Na66  1  0.60940612  0.41588203  0.61936727  1
  Na  Na67  1  0.60982209  0.41737086  0.86839945  1
  Na  Na68  1  0.60947113  0.75201784  0.11850791  1
  Na  Na69  1  0.60969747  0.74996788  0.36978707  1
  Na  Na70  1  0.60933702  0.74819323  0.61852157  1
  Na  Na71  1  0.60961649  0.75105715  0.86894945  1
  Na  Na72  1  0.39108164  0.25148865  0.13004156  1
  Na  Na73  1  0.39083266  0.25058388  0.38080910  1
  Na  Na74  1  0.39042634  0.24875150  0.63157252  1
  Na  Na75  1  0.39049840  0.24949935  0.88173321  1
  Na  Na76  1  0.38974348  0.58406707  0.13080723  1
  Na  Na77  1  0.39057098  0.58362188  0.38136341  1
  Na  Na78  1  0.38993857  0.58209389  0.63157726  1
  Na  Na79  1  0.38992879  0.58367245  0.88095385  1
  Na  Na80  1  0.39046144  0.91897942  0.13081197  1
  Na  Na81  1  0.39059388  0.91679571  0.38169831  1
  Na  Na82  1  0.39061703  0.91537568  0.63161367  1
  Na  Na83  1  0.39051582  0.91725858  0.88210476  1
  Na  Na84  1  0.89096625  0.25008180  0.13037680  1
  Na  Na85  1  0.89068865  0.24945815  0.38002802  1
  Na  Na86  1  0.89046209  0.24984879  0.63174777  1
  Na  Na87  1  0.89081627  0.24991595  0.88335772  1
  Na  Na88  1  0.89018109  0.58328127  0.13015590  1
  Na  Na89  1  0.89060262  0.58362130  0.38095402  1
  Na  Na90  1  0.89034079  0.58453002  0.63256560  1
  Na  Na91  1  0.89090895  0.58288250  0.88162850  1
  Na  Na92  1  0.89025313  0.91732573  0.13125276  1
  Na  Na93  1  0.89087169  0.91644314  0.38119060  1
  Na  Na94  1  0.89066869  0.91515117  0.63218453  1
  Na  Na95  1  0.89037905  0.91581430  0.88383133  1
  Mn  Mn96  1  0.25002886  -0.00063204  0.87474177  1
  Mn  Mn97  1  0.25021570  -0.00014920  0.37474097  1
  Mn  Mn98  1  0.24999907  0.66643662  0.37500218  1
  Mn  Mn99  1  0.74989223  0.50129059  0.37537501  1
  Mn  Mn100  1  -0.00098292  0.33240585  0.49940512  1
  Mn  Mn101  1  0.75093005  0.66853092  0.37382237  1
  Mn  Mn102  1  0.24950446  0.16596833  0.62480854  1
  Mn  Mn103  1  0.25019277  0.33404813  0.12418611  1
  Mn  Mn104  1  0.24950467  0.50055504  0.37537087  1
  Mn  Mn105  1  0.49966353  0.16639537  0.75060649  1
  Mn  Mn106  1  -0.00061228  -0.00176943  0.75016006  1
  Mn  Mn107  1  0.24992801  0.83289157  0.62518136  1
  Mn  Mn108  1  0.49993895  0.83442735  -0.00049725  1
  Mn  Mn109  1  0.49951693  -0.00049586  0.50021044  1
  Mn  Mn110  1  0.24937976  0.50037090  0.87463513  1
  Mn  Mn111  1  0.74915224  0.50094158  0.62549197  1
  Mn  Mn112  1  0.49997496  0.33254510  0.49918459  1
  Mn  Mn113  1  0.25067337  0.16619670  0.12465478  1
  Mn  Mn114  1  0.00012201  0.33308936  0.24951144  1
  Mn  Mn115  1  0.75049082  -0.00027888  0.62613180  1
  Mn  Mn116  1  0.74977460  0.66735728  0.12470330  1
  Mn  Mn117  1  0.49980867  0.49980191  0.74996199  1
  Mn  Mn118  1  0.24924264  0.33261375  0.87511675  1
  Mn  Mn119  1  0.74975455  0.33397622  0.37440905  1
  Mn  Mn120  1  -0.00039018  0.83372584  0.24946356  1
  Mn  Mn121  1  0.74994932  0.16632211  0.37445931  1
  Mn  Mn122  1  -0.00037554  -0.00058174  0.50029812  1
  Mn  Mn123  1  0.24967113  0.33411411  0.37451240  1
  Mn  Mn124  1  0.75019563  0.33340308  0.62582422  1
  Mn  Mn125  1  0.75013865  0.16683734  0.62599504  1
  Mn  Mn126  1  0.25000609  0.16680080  0.37518385  1
  Mn  Mn127  1  -0.00079251  0.50061320  0.49969944  1
  Mn  Mn128  1  0.74992882  0.66690867  0.87592602  1
  Mn  Mn129  1  0.75001118  0.33433548  0.12367991  1
  Mn  Mn130  1  -0.00041287  0.66602250  0.24901756  1
  Mn  Mn131  1  0.49965096  0.83282923  0.75051296  1
  Mn  Mn132  1  0.75067728  0.16607320  0.12416061  1
  Mn  Mn133  1  0.49972337  0.50124285  -0.00095084  1
  Mn  Mn134  1  0.75062033  0.83261112  0.62565880  1
  Mn  Mn135  1  0.50037841  0.33435107  0.24989496  1
  Mn  Mn136  1  0.00072087  0.33364061  0.75048384  1
  Mn  Mn137  1  0.50067782  0.00202169  0.25115127  1
  Mn  Mn138  1  0.25030951  0.83302425  0.37476651  1
  Mn  Mn139  1  -0.00033742  0.16594234  0.75108760  1
  Mn  Mn140  1  0.24995384  0.83320164  0.12431852  1
  Mn  Mn141  1  0.49947043  0.66674156  0.25004461  1
  Mn  Mn142  1  0.49958559  0.83396576  0.24988097  1
  Mn  Mn143  1  0.74971214  -0.00105501  0.37553549  1
  Fe  Fe144  1  0.25023744  0.66626116  0.87453740  1
  Fe  Fe145  1  0.50026713  0.16789942  0.24914194  1
  Fe  Fe146  1  0.49996221  0.33293220  0.74967423  1
  Fe  Fe147  1  0.24938928  0.66641427  0.62560148  1
  Fe  Fe148  1  0.00082302  0.00012274  0.25003246  1
  Fe  Fe149  1  0.24999891  0.33276337  0.62528261  1
  Fe  Fe150  1  0.74996397  0.83425858  0.12537775  1
  Fe  Fe151  1  0.49995670  -0.00026154  0.75016833  1
  Fe  Fe152  1  0.00063834  0.16633571  0.24949482  1
  Fe  Fe153  1  0.50031444  0.00148159  0.00061625  1
  Fe  Fe154  1  0.49963386  0.49938301  0.50007914  1
  Fe  Fe155  1  0.49995246  0.66629566  0.74922683  1
  Fe  Fe156  1  0.75050895  -0.00026256  0.87572850  1
  Fe  Fe157  1  0.00029619  0.50028397  -0.00089761  1
  Fe  Fe158  1  0.75064439  0.83356520  0.37534673  1
  Fe  Fe159  1  0.50024374  0.50076240  0.24944033  1
  Fe  Fe160  1  -0.00004260  0.66693365  0.50100455  1
  Fe  Fe161  1  0.75072024  0.16645148  0.87564041  1
  Fe  Fe162  1  -0.00024569  0.66684114  0.75077504  1
  Fe  Fe163  1  0.49991967  0.33452542  -0.00011809  1
  Fe  Fe164  1  0.00014641  0.49990015  0.24910791  1
  Fe  Fe165  1  0.24949212  0.66696348  0.12417864  1
  Fe  Fe166  1  -0.00036720  0.50029725  0.74997568  1
  Fe  Fe167  1  0.74986683  0.50041730  0.12438316  1
  Fe  Fe168  1  0.75000589  -0.00019667  0.12492680  1
  Fe  Fe169  1  0.00040097  0.83272137  0.50043388  1
  Fe  Fe170  1  0.00042468  0.33354002  0.00038217  1
  Fe  Fe171  1  0.00000567  0.16613570  0.49978683  1
  Fe  Fe172  1  0.25051868  0.83260822  0.87462558  1
  Fe  Fe173  1  0.50091323  0.16789842  -0.00071507  1
  Fe  Fe174  1  0.24956422  0.49977546  0.62541644  1
  Fe  Fe175  1  0.25027878  0.16569877  0.87456104  1
  Fe  Fe176  1  0.75018287  0.50024287  0.87468388  1
  Fe  Fe177  1  0.24953954  0.50086525  0.12467654  1
  Fe  Fe178  1  0.75004456  0.66703487  0.62570954  1
  Fe  Fe179  1  0.49981342  0.66757474  -0.00005538  1
  Fe  Fe180  1  0.24993830  -0.00076566  0.62565731  1
  Fe  Fe181  1  0.00006132  0.83294081  0.00002156  1
  Fe  Fe182  1  0.49965851  0.66573973  0.49962373  1
  Fe  Fe183  1  0.50028514  0.16623447  0.50027769  1
  Fe  Fe184  1  0.75007631  0.33366546  0.87523679  1
  Fe  Fe185  1  -0.00005310  0.66614232  -0.00112151  1
  Fe  Fe186  1  0.24992507  -0.00014808  0.12419009  1
  Fe  Fe187  1  -0.00001126  0.83232228  0.75112429  1
  Fe  Fe188  1  0.50034891  0.83255386  0.50086510  1
  Fe  Fe189  1  0.00034319  0.16606266  0.00073287  1
  Fe  Fe190  1  -0.00002199  -0.00042710  0.00086155  1
  Fe  Fe191  1  0.74999278  0.83370398  0.87616556  1
  P  P192  1  0.04141553  0.24970181  0.10184277  1
  P  P193  1  0.04243467  0.24824874  0.35223257  1
  P  P194  1  0.04188369  0.24851315  0.60246628  1
  P  P195  1  0.04259350  0.24980812  0.85461313  1
  P  P196  1  0.04097810  0.58332429  0.10080254  1
  P  P197  1  0.04205488  0.58219913  0.35208131  1
  P  P198  1  0.04146790  0.58457528  0.60352200  1
  P  P199  1  0.04122985  0.58304768  0.85195899  1
  P  P200  1  0.04146903  0.91644611  0.10180059  1
  P  P201  1  0.04226481  0.91740515  0.35262069  1
  P  P202  1  0.04195783  0.91433538  0.60314564  1
  P  P203  1  0.04168362  0.91453088  0.85385838  1
  P  P204  1  0.54198671  0.25141590  0.10112056  1
  P  P205  1  0.54252233  0.24894513  0.35222795  1
  P  P206  1  0.54224777  0.24846966  0.60278148  1
  P  P207  1  0.54171908  0.25171502  0.85316689  1
  P  P208  1  0.54223892  0.58532193  0.10213812  1
  P  P209  1  0.54192381  0.58221056  0.35300146  1
  P  P210  1  0.54097513  0.58261890  0.60158887  1
  P  P211  1  0.54195802  0.58521490  0.85238020  1
  P  P212  1  0.54237091  0.91901646  0.10241728  1
  P  P213  1  0.54264820  0.91635657  0.35393818  1
  P  P214  1  0.54218932  0.91501164  0.60335293  1
  P  P215  1  0.54176855  0.91852864  0.85316640  1
  P  P216  1  0.45873128  0.08573452  0.14658261  1
  P  P217  1  0.45759049  0.08502006  0.39751267  1
  P  P218  1  0.45759499  0.08167143  0.64777671  1
  P  P219  1  0.45916011  0.08355710  0.89835390  1
  P  P220  1  0.45814282  0.41860639  0.14674450  1
  P  P221  1  0.45746456  0.41806264  0.39704135  1
  P  P222  1  0.45781942  0.41508121  0.64714295  1
  P  P223  1  0.45762150  0.41577628  0.89683569  1
  P  P224  1  0.45711912  0.75053227  0.14611780  1
  P  P225  1  0.45837593  0.74996413  0.39884476  1
  P  P226  1  0.45786858  0.74814361  0.64676758  1
  P  P227  1  0.45776969  0.74897243  0.89695617  1
  P  P228  1  0.95912513  0.08306240  0.14777351  1
  P  P229  1  0.95815995  0.08413240  0.39677007  1
  P  P230  1  0.95680106  0.08264344  0.64728950  1
  P  P231  1  0.95893235  0.08248843  0.89937506  1
  P  P232  1  0.95839658  0.41771545  0.14611529  1
  P  P233  1  0.95682506  0.41661751  0.39610144  1
  P  P234  1  0.95743650  0.41787643  0.64801984  1
  P  P235  1  0.95924634  0.41671294  0.89814948  1
  P  P236  1  0.95753170  0.75022051  0.14553336  1
  P  P237  1  0.95883970  0.74952357  0.39866207  1
  P  P238  1  0.95869021  0.74994066  0.64868350  1
  P  P239  1  0.95875985  0.74976563  0.89793667  1
  P  P240  1  0.20763350  0.08176975  0.22685952  1
  P  P241  1  0.20714224  0.08293690  0.47868454  1
  P  P242  1  0.20742017  0.08130168  0.72791557  1
  P  P243  1  0.20806610  0.08383413  0.97744179  1
  P  P244  1  0.20728578  0.41813688  0.22667613  1
  P  P245  1  0.20711833  0.41683885  0.47929284  1
  P  P246  1  0.20823142  0.41581762  0.72658289  1
  P  P247  1  0.20708159  0.41745831  0.97824453  1
  P  P248  1  0.20702782  0.74871880  0.22655431  1
  P  P249  1  0.20741219  0.74969764  0.47866964  1
  P  P250  1  0.20797796  0.74831105  0.72847844  1
  P  P251  1  0.20875640  0.74960009  0.97623696  1
  P  P252  1  0.70787510  0.08190013  0.22692456  1
  P  P253  1  0.70700464  0.08312572  0.47847318  1
  P  P254  1  0.70767290  0.08318619  0.73003864  1
  P  P255  1  0.70926967  0.08307990  0.97691137  1
  P  P256  1  0.70736504  0.41848243  0.22666662  1
  P  P257  1  0.70668868  0.41737325  0.47822032  1
  P  P258  1  0.70730681  0.41683652  0.72951959  1
  P  P259  1  0.70878901  0.41777742  0.97644346  1
  P  P260  1  0.70761649  0.75215014  0.22741524  1
  P  P261  1  0.70829198  0.75134402  0.47782327  1
  P  P262  1  0.70770479  0.74884957  0.72841941  1
  P  P263  1  0.70776125  0.75217743  0.97835538  1
  P  P264  1  0.29283087  0.24964949  0.02096246  1
  P  P265  1  0.29298268  0.25022431  0.27153683  1
  P  P266  1  0.29239044  0.25128007  0.52274149  1
  P  P267  1  0.29200001  0.24827094  0.77221295  1
  P  P268  1  0.29103179  0.58407611  0.02261390  1
  P  P269  1  0.29239511  0.58341008  0.27090569  1
  P  P270  1  0.29096079  0.58354631  0.52418926  1
  P  P271  1  0.29169834  0.58392898  0.77158331  1
  P  P272  1  0.29220436  0.91754748  0.02175516  1
  P  P273  1  0.29318650  0.91649820  0.27100390  1
  P  P274  1  0.29263783  0.91781679  0.52295230  1
  P  P275  1  0.29239769  0.91473216  0.77230127  1
  P  P276  1  0.79264350  0.25014120  0.02046333  1
  P  P277  1  0.79276577  0.25014048  0.27105600  1
  P  P278  1  0.79295279  0.25015117  0.52208238  1
  P  P279  1  0.79200460  0.24992096  0.77451617  1
  P  P280  1  0.79180102  0.58229464  0.02189547  1
  P  P281  1  0.79290352  0.58371740  0.27094859  1
  P  P282  1  0.79226967  0.58547660  0.52304511  1
  P  P283  1  0.79221203  0.58284096  0.77286447  1
  P  P284  1  0.79144741  0.91691874  0.02303454  1
  P  P285  1  0.79258160  0.91512369  0.27211920  1
  P  P286  1  0.79331119  0.91629873  0.52238937  1
  P  P287  1  0.79189121  0.91598208  0.77461527  1
  O  O288  1  0.03647651  0.24906885  0.18179365  1
  O  O289  1  0.03691768  0.24812715  0.43214616  1
  O  O290  1  0.03687253  0.24904186  0.68247132  1
  O  O291  1  0.03721093  0.25016566  0.93449240  1
  O  O292  1  0.03669339  0.58295709  0.18074677  1
  O  O293  1  0.03680771  0.58297062  0.43196401  1
  O  O294  1  0.03602690  0.58415052  0.68335882  1
  O  O295  1  0.03629549  0.58314978  0.93183668  1
  O  O296  1  0.03675322  0.91719463  0.18175672  1
  O  O297  1  0.03695428  0.91683102  0.43252693  1
  O  O298  1  0.03672069  0.91408069  0.68309112  1
  O  O299  1  0.03641068  0.91479093  0.93372230  1
  O  O300  1  0.53735600  0.25090287  0.18111274  1
  O  O301  1  0.53723852  0.24864132  0.43215371  1
  O  O302  1  0.53681139  0.24914038  0.68270075  1
  O  O303  1  0.53651039  0.25195002  0.93302797  1
  O  O304  1  0.53716032  0.58436278  0.18206205  1
  O  O305  1  0.53655048  0.58187068  0.43286852  1
  O  O306  1  0.53612737  0.58327611  0.68156828  1
  O  O307  1  0.53661560  0.58547899  0.93228424  1
  O  O308  1  0.53729002  0.91879326  0.18235593  1
  O  O309  1  0.53722359  0.91561206  0.43387602  1
  O  O310  1  0.53660806  0.91558569  0.68328241  1
  O  O311  1  0.53643336  0.91906409  0.93307648  1
  O  O312  1  0.46433854  0.08534124  0.06672833  1
  O  O313  1  0.46302210  0.08533486  0.31757809  1
  O  O314  1  0.46266448  0.08211562  0.56789943  1
  O  O315  1  0.46357925  0.08290066  0.81837109  1
  O  O316  1  0.46328896  0.41804440  0.06679031  1
  O  O317  1  0.46291404  0.41828808  0.31709082  1
  O  O318  1  0.46314249  0.41553116  0.56723643  1
  O  O319  1  0.46301172  0.41550946  0.81692809  1
  O  O320  1  0.46252177  0.75040861  0.06619906  1
  O  O321  1  0.46299250  0.74989014  0.31882219  1
  O  O322  1  0.46326659  0.74861758  0.56691639  1
  O  O323  1  0.46322569  0.74868193  0.81702691  1
  O  O324  1  0.96437672  0.08287385  0.06787145  1
  O  O325  1  0.96391261  0.08390538  0.31691693  1
  O  O326  1  0.96189295  0.08294536  0.56735686  1
  O  O327  1  0.96294851  0.08220725  0.81937499  1
  O  O328  1  0.96421321  0.41723958  0.06627877  1
  O  O329  1  0.96227122  0.41691566  0.31618323  1
  O  O330  1  0.96211407  0.41748391  0.56804129  1
  O  O331  1  0.96397888  0.41727171  0.81819481  1
  O  O332  1  0.96285681  0.75028342  0.06569420  1
  O  O333  1  0.96352157  0.74964397  0.31867802  1
  O  O334  1  0.96361156  0.74981370  0.56880821  1
  O  O335  1  0.96370093  0.74970746  0.81804773  1
  O  O336  1  0.21337941  0.08306811  0.05734974  1
  O  O337  1  0.21248386  0.08229005  0.30685953  1
  O  O338  1  0.21228818  0.08229227  0.55867974  1
  O  O339  1  0.21289605  0.08217061  0.80786963  1
  O  O340  1  0.21253571  0.41829735  0.05812980  1
  O  O341  1  0.21206193  0.41798424  0.30673119  1
  O  O342  1  0.21239814  0.41636798  0.55922310  1
  O  O343  1  0.21284543  0.41609307  0.80661833  1
  O  O344  1  0.21362197  0.74938419  0.05622814  1
  O  O345  1  0.21195024  0.74904602  0.30654949  1
  O  O346  1  0.21242046  0.74945239  0.55865198  1
  O  O347  1  0.21374297  0.74843001  0.80832237  1
  O  O348  1  0.71400772  0.08241635  0.05688428  1
  O  O349  1  0.71264216  0.08214574  0.30691837  1
  O  O350  1  0.71208992  0.08327539  0.55848009  1
  O  O351  1  0.71319466  0.08329837  0.80995297  1
  O  O352  1  0.71350359  0.41802918  0.05644951  1
  O  O353  1  0.71231355  0.41809410  0.30666116  1
  O  O354  1  0.71172289  0.41721222  0.55824033  1
  O  O355  1  0.71279734  0.41696106  0.80944362  1
  O  O356  1  0.71299095  0.75239159  0.05825458  1
  O  O357  1  0.71295524  0.75220955  0.30736575  1
  O  O358  1  0.71335520  0.75014992  0.55777973  1
  O  O359  1  0.71262740  0.74922937  0.80834649  1
  O  O360  1  0.28805431  0.25013644  0.19152987  1
  O  O361  1  0.28734065  0.25108336  0.44274414  1
  O  O362  1  0.28646390  0.24890389  0.69227914  1
  O  O363  1  0.28740040  0.24893634  0.94104267  1
  O  O364  1  0.28721020  0.58340137  0.19095961  1
  O  O365  1  0.28654915  0.58325262  0.44416067  1
  O  O366  1  0.28628893  0.58366889  0.69173441  1
  O  O367  1  0.28606048  0.58433436  0.94260332  1
  O  O368  1  0.28795998  0.91684447  0.19101931  1
  O  O369  1  0.28781271  0.91745963  0.44293110  1
  O  O370  1  0.28707041  0.91567457  0.69239066  1
  O  O371  1  0.28712804  0.91678247  0.94180889  1
  O  O372  1  0.78768545  0.25025309  0.19102525  1
  O  O373  1  0.78785034  0.25015235  0.44207644  1
  O  O374  1  0.78730764  0.25015180  0.69446557  1
  O  O375  1  0.78723774  0.24990037  0.94056423  1
  O  O376  1  0.78746883  0.58323695  0.19100540  1
  O  O377  1  0.78753659  0.58559702  0.44301716  1
  O  O378  1  0.78688184  0.58370464  0.69295279  1
  O  O379  1  0.78643250  0.58212816  0.94196814  1
  O  O380  1  0.78719302  0.91538426  0.19222295  1
  O  O381  1  0.78827263  0.91582551  0.44243539  1
  O  O382  1  0.78745139  0.91615427  0.69462945  1
  O  O383  1  0.78632766  0.91678862  0.94313240  1
  O  O384  1  0.22857753  0.24981690  0.05639985  1
  O  O385  1  0.22844024  0.25011169  0.30630699  1
  O  O386  1  0.22800181  0.25131159  0.55808619  1
  O  O387  1  0.22778944  0.24752650  0.80810898  1
  O  O388  1  0.22686316  0.58381232  0.05854346  1
  O  O389  1  0.22801391  0.58353702  0.30624756  1
  O  O390  1  0.22667711  0.58394082  0.55957768  1
  O  O391  1  0.22752106  0.58448573  0.80755051  1
  O  O392  1  0.22790150  0.91772251  0.05732518  1
  O  O393  1  0.22875915  0.91624490  0.30615905  1
  O  O394  1  0.22818795  0.91784363  0.55816047  1
  O  O395  1  0.22815566  0.91437559  0.80797551  1
  O  O396  1  0.72844294  0.24988727  0.05612550  1
  O  O397  1  0.72829868  0.25015502  0.30597934  1
  O  O398  1  0.72847876  0.25009511  0.55708478  1
  O  O399  1  0.72772387  0.24926884  0.80994391  1
  O  O400  1  0.72764349  0.58248593  0.05779994  1
  O  O401  1  0.72861795  0.58453514  0.30635313  1
  O  O402  1  0.72777501  0.58572290  0.55818215  1
  O  O403  1  0.72793854  0.58244387  0.80848541  1
  O  O404  1  0.72738726  0.91733207  0.05927767  1
  O  O405  1  0.72836499  0.91440634  0.30813618  1
  O  O406  1  0.72892420  0.91622234  0.55755342  1
  O  O407  1  0.72750942  0.91591768  0.80981081  1
  O  O408  1  0.27211331  0.08144635  0.19178749  1
  O  O409  1  0.27156111  0.08331255  0.44353933  1
  O  O410  1  0.27166471  0.08124265  0.69219845  1
  O  O411  1  0.27229352  0.08424322  0.94162686  1
  O  O412  1  0.27175461  0.41852448  0.19163203  1
  O  O413  1  0.27137971  0.41703809  0.44362463  1
  O  O414  1  0.27247237  0.41542718  0.69109584  1
  O  O415  1  0.27130719  0.41702952  0.94274125  1
  O  O416  1  0.27147538  0.74866156  0.19141369  1
  O  O417  1  0.27188226  0.74981977  0.44361486  1
  O  O418  1  0.27196646  0.74811724  0.69205827  1
  O  O419  1  0.27290649  0.74962874  0.94030623  1
  O  O420  1  0.77233316  0.08158539  0.19173598  1
  O  O421  1  0.77141346  0.08293308  0.44340330  1
  O  O422  1  0.77195079  0.08340983  0.69443810  1
  O  O423  1  0.77348795  0.08376244  0.94123939  1
  O  O424  1  0.77180394  0.41862423  0.19142602  1
  O  O425  1  0.77119502  0.41729762  0.44334760  1
  O  O426  1  0.77150225  0.41741143  0.69382315  1
  O  O427  1  0.77298646  0.41792793  0.94076961  1
  O  O428  1  0.77189814  0.75174580  0.19183597  1
  O  O429  1  0.77267694  0.75220761  0.44225905  1
  O  O430  1  0.77215099  0.74826321  0.69309538  1
  O  O431  1  0.77202415  0.75195931  0.94268196  1
  O  O432  1  0.02314087  0.08296273  0.18435878  1
  O  O433  1  0.02211933  0.08419501  0.43354396  1
  O  O434  1  0.02121818  0.08221548  0.68256565  1
  O  O435  1  0.02326742  0.08229280  0.93457715  1
  O  O436  1  0.02236969  0.41782885  0.18279493  1
  O  O437  1  0.02103605  0.41650982  0.43181749  1
  O  O438  1  0.02194714  0.41839596  0.68323929  1
  O  O439  1  0.02338327  0.41605303  0.93401542  1
  O  O440  1  0.02168502  0.75001097  0.18144147  1
  O  O441  1  0.02300490  0.74893063  0.43466738  1
  O  O442  1  0.02277031  0.75033326  0.68499013  1
  O  O443  1  0.02285435  0.75016660  0.93413449  1
  O  O444  1  0.52281474  0.08608982  0.18300078  1
  O  O445  1  0.52184938  0.08436817  0.43341297  1
  O  O446  1  0.52185463  0.08179646  0.68360901  1
  O  O447  1  0.52343560  0.08325333  0.93399734  1
  O  O448  1  0.52238079  0.41877621  0.18261704  1
  O  O449  1  0.52169854  0.41801772  0.43299103  1
  O  O450  1  0.52200520  0.41518571  0.68318261  1
  O  O451  1  0.52183652  0.41612783  0.93278644  1
  O  O452  1  0.52136327  0.75043131  0.18177884  1
  O  O453  1  0.52260702  0.75022312  0.43459020  1
  O  O454  1  0.52197868  0.74831152  0.68312121  1
  O  O455  1  0.52194718  0.74921353  0.93302766  1
  O  O456  1  0.47776559  0.25168832  0.06533699  1
  O  O457  1  0.47827337  0.24933795  0.31629032  1
  O  O458  1  0.47804111  0.24815234  0.56671908  1
  O  O459  1  0.47760861  0.25156527  0.81690860  1
  O  O460  1  0.47787619  0.58569801  0.06645726  1
  O  O461  1  0.47777420  0.58193320  0.31670845  1
  O  O462  1  0.47680798  0.58186354  0.56560604  1
  O  O463  1  0.47774773  0.58488599  0.81641960  1
  O  O464  1  0.47804331  0.91906307  0.06680620  1
  O  O465  1  0.47836312  0.91741755  0.31837851  1
  O  O466  1  0.47804366  0.91451128  0.56719124  1
  O  O467  1  0.47758818  0.91814162  0.81717903  1
  O  O468  1  0.97738649  0.25046266  0.06567557  1
  O  O469  1  0.97828374  0.24839694  0.31610573  1
  O  O470  1  0.97755648  0.24775956  0.56683649  1
  O  O471  1  0.97834843  0.25026062  0.81881704  1
  O  O472  1  0.97674579  0.58368898  0.06521719  1
  O  O473  1  0.97779208  0.58157802  0.31607671  1
  O  O474  1  0.97740018  0.58523583  0.56709057  1
  O  O475  1  0.97713253  0.58253673  0.81577992  1
  O  O476  1  0.97722366  0.91569093  0.06600746  1
  O  O477  1  0.97807668  0.91828718  0.31657149  1
  O  O478  1  0.97776417  0.91448184  0.56723978  1
  O  O479  1  0.97746520  0.91406718  0.81783214  1
  O  O480  1  0.07286781  0.31322076  0.07427386  1
  O  O481  1  0.07359331  0.31202866  0.32468059  1
  O  O482  1  0.07236766  0.31245460  0.57449884  1
  O  O483  1  0.07425796  0.31279596  0.82586413  1
  O  O484  1  0.07180418  0.64700154  0.07237213  1
  O  O485  1  0.07305741  0.64573624  0.32379216  1
  O  O486  1  0.07264484  0.64791020  0.57498150  1
  O  O487  1  0.07154703  0.64701892  0.82348780  1
  O  O488  1  0.07181888  0.98020644  0.07296302  1
  O  O489  1  0.07339738  0.98079544  0.32428021  1
  O  O490  1  0.07303798  0.97807637  0.57556510  1
  O  O491  1  0.07255163  0.97822066  0.82559800  1
  O  O492  1  0.57290337  0.31515956  0.07319220  1
  O  O493  1  0.57360382  0.31280988  0.32477002  1
  O  O494  1  0.57350641  0.31181578  0.57451003  1
  O  O495  1  0.57257165  0.31499435  0.82408946  1
  O  O496  1  0.57298675  0.64907928  0.07419602  1
  O  O497  1  0.57284241  0.64617622  0.32543921  1
  O  O498  1  0.57125388  0.64644214  0.57272945  1
  O  O499  1  0.57296885  0.64837396  0.82349809  1
  O  O500  1  0.57320333  0.98250997  0.07405969  1
  O  O501  1  0.57413793  0.97991091  0.32645486  1
  O  O502  1  0.57334324  0.97852285  0.57541971  1
  O  O503  1  0.57267687  0.98169120  0.82411882  1
  O  O504  1  0.42756848  0.02224900  0.17481955  1
  O  O505  1  0.42611731  0.02140599  0.42493349  1
  O  O506  1  0.42721738  0.01785412  0.67620698  1
  O  O507  1  0.42759894  0.02059570  0.92715613  1
  O  O508  1  0.42686204  0.35521391  0.17488774  1
  O  O509  1  0.42658170  0.35407958  0.42443601  1
  O  O510  1  0.42733950  0.35131867  0.67546013  1
  O  O511  1  0.42663626  0.35269297  0.92585914  1
  O  O512  1  0.42576621  0.68735018  0.17448971  1
  O  O513  1  0.42807420  0.68583603  0.42689901  1
  O  O514  1  0.42719970  0.68446151  0.67515399  1
  O  O515  1  0.42678675  0.68575775  0.92571726  1
  O  O516  1  0.92821091  0.01947447  0.17626336  1
  O  O517  1  0.92678631  0.02059032  0.42466437  1
  O  O518  1  0.92576385  0.01903585  0.67544803  1
  O  O519  1  0.92796145  0.01899268  0.92784813  1
  O  O520  1  0.92699411  0.35422680  0.17402701  1
  O  O521  1  0.92586892  0.35289805  0.42401377  1
  O  O522  1  0.92680800  0.35411409  0.67622498  1
  O  O523  1  0.92794216  0.35333461  0.92628275  1
  O  O524  1  0.92612070  0.68690706  0.17378615  1
  O  O525  1  0.92763044  0.68609539  0.42675731  1
  O  O526  1  0.92825244  0.68617346  0.67761915  1
  O  O527  1  0.92837098  0.68569143  0.92617679  1
  O  O528  1  0.17703897  0.01816242  0.19825158  1
  O  O529  1  0.17594696  0.01976226  0.44998344  1
  O  O530  1  0.17696015  0.01727719  0.70001175  1
  O  O531  1  0.17680295  0.02038331  0.94932235  1
  O  O532  1  0.17650141  0.35427788  0.19888680  1
  O  O533  1  0.17592757  0.35364653  0.45022499  1
  O  O534  1  0.17707789  0.35224193  0.69872244  1
  O  O535  1  0.17599058  0.35370773  0.95072172  1
  O  O536  1  0.17635637  0.68522669  0.19779194  1
  O  O537  1  0.17621235  0.68645540  0.45013037  1
  O  O538  1  0.17682663  0.68502283  0.69974849  1
  O  O539  1  0.17761740  0.68617724  0.94786645  1
  O  O540  1  0.67716831  0.01832737  0.19850135  1
  O  O541  1  0.67594030  0.01954539  0.45052561  1
  O  O542  1  0.67678070  0.01956681  0.70163128  1
  O  O543  1  0.67892424  0.01931006  0.94806072  1
  O  O544  1  0.67640230  0.35485875  0.19849831  1
  O  O545  1  0.67564254  0.35397402  0.44981372  1
  O  O546  1  0.67650412  0.35312288  0.70124987  1
  O  O547  1  0.67862101  0.35352149  0.94828934  1
  O  O548  1  0.67631053  0.68849195  0.19969987  1
  O  O549  1  0.67740183  0.68795998  0.44897554  1
  O  O550  1  0.67695555  0.68537692  0.69953212  1
  O  O551  1  0.67676321  0.68834952  0.95074328  1
  O  O552  1  0.32374943  0.31350737  0.04859261  1
  O  O553  1  0.32379937  0.31392352  0.29953281  1
  O  O554  1  0.32313926  0.31476723  0.55132962  1
  O  O555  1  0.32289197  0.31192185  0.80030988  1
  O  O556  1  0.32186120  0.64768866  0.05100880  1
  O  O557  1  0.32357097  0.64683476  0.29953060  1
  O  O558  1  0.32210457  0.64706287  0.55215934  1
  O  O559  1  0.32299426  0.64705493  0.80049763  1
  O  O560  1  0.32266045  0.98139837  0.05009495  1
  O  O561  1  0.32449987  0.97967179  0.29952162  1
  O  O562  1  0.32320309  0.98139264  0.55155726  1
  O  O563  1  0.32371097  0.97803730  0.80068325  1
  O  O564  1  0.82359088  0.31377991  0.04860932  1
  O  O565  1  0.82377213  0.31367636  0.29915302  1
  O  O566  1  0.82386444  0.31372463  0.55037682  1
  O  O567  1  0.82212106  0.31406068  0.80281129  1
  O  O568  1  0.82282636  0.64623639  0.04917855  1
  O  O569  1  0.82432822  0.64732108  0.29859997  1
  O  O570  1  0.82298429  0.64885517  0.55202047  1
  O  O571  1  0.82341245  0.64614885  0.80143393  1
  O  O572  1  0.82253704  0.98049038  0.05147777  1
  O  O573  1  0.82325954  0.97894801  0.30035702  1
  O  O574  1  0.82408967  0.98003556  0.55050774  1
  O  O575  1  0.82250750  0.97972456  0.80318600  1
  O  O576  1  0.42770697  0.14924056  0.17496096  1
  O  O577  1  0.42714253  0.14850921  0.42649230  1
  O  O578  1  0.42615656  0.14494919  0.67596002  1
  O  O579  1  0.42925874  0.14795509  0.92634355  1
  O  O580  1  0.42756079  0.48232942  0.17498071  1
  O  O581  1  0.42633946  0.48110397  0.42608859  1
  O  O582  1  0.42639703  0.47841222  0.67520784  1
  O  O583  1  0.42650287  0.47972413  0.92408971  1
  O  O584  1  0.42622899  0.81426397  0.17403510  1
  O  O585  1  0.42730635  0.81338273  0.42705762  1
  O  O586  1  0.42638106  0.81140554  0.67513543  1
  O  O587  1  0.42678418  0.81292780  0.92421392  1
  O  O588  1  0.92817974  0.14681742  0.17569944  1
  O  O589  1  0.92723747  0.14758317  0.42536710  1
  O  O590  1  0.92579388  0.14590103  0.67605024  1
  O  O591  1  0.92865518  0.14644541  0.92772684  1
  O  O592  1  0.92760458  0.48128723  0.17456679  1
  O  O593  1  0.92541458  0.47973973  0.42462625  1
  O  O594  1  0.92661496  0.48138156  0.67637783  1
  O  O595  1  0.92883818  0.48059362  0.92674350  1
  O  O596  1  0.92644525  0.81356043  0.17422884  1
  O  O597  1  0.92873065  0.81362590  0.42693148  1
  O  O598  1  0.92735477  0.81319052  0.67731864  1
  O  O599  1  0.92727639  0.81287040  0.92650751  1
  O  O600  1  0.07177624  0.18579968  0.07324608  1
  O  O601  1  0.07344163  0.18503290  0.32337822  1
  O  O602  1  0.07296865  0.18507095  0.57442046  1
  O  O603  1  0.07331434  0.18605675  0.82642473  1
  O  O604  1  0.07162685  0.51977628  0.07194212  1
  O  O605  1  0.07279216  0.51855700  0.32371404  1
  O  O606  1  0.07239486  0.52098389  0.57523288  1
  O  O607  1  0.07261799  0.51978125  0.82346164  1
  O  O608  1  0.07271396  0.85294008  0.07387474  1
  O  O609  1  0.07299130  0.85364074  0.32451482  1
  O  O610  1  0.07286301  0.85103814  0.57423254  1
  O  O611  1  0.07292090  0.85134041  0.82513475  1
  O  O612  1  0.57259523  0.18779942  0.07217713  1
  O  O613  1  0.57333056  0.18572569  0.32319302  1
  O  O614  1  0.57288527  0.18461994  0.57482325  1
  O  O615  1  0.57291423  0.18799716  0.82552517  1
  O  O616  1  0.57330031  0.52202184  0.07341370  1
  O  O617  1  0.57300993  0.51917547  0.32364281  1
  O  O618  1  0.57226376  0.51903252  0.57397372  1
  O  O619  1  0.57296916  0.52131101  0.82498064  1
  O  O620  1  0.57332821  0.85537752  0.07449342  1
  O  O621  1  0.57340126  0.85301517  0.32508366  1
  O  O622  1  0.57308149  0.85134252  0.57539491  1
  O  O623  1  0.57283221  0.85459151  0.82599706  1
  O  O624  1  0.32430028  0.18665279  0.04956657  1
  O  O625  1  0.32389635  0.18675464  0.29988228  1
  O  O626  1  0.32336161  0.18761451  0.55059186  1
  O  O627  1  0.32298857  0.18464361  0.80028475  1
  O  O628  1  0.32186255  0.52025332  0.05054401  1
  O  O629  1  0.32345603  0.52018779  0.29985600  1
  O  O630  1  0.32114735  0.51956068  0.55274113  1
  O  O631  1  0.32260856  0.52016872  0.79969460  1
  O  O632  1  0.32354670  0.85420616  0.04982557  1
  O  O633  1  0.32397392  0.85275638  0.29923590  1
  O  O634  1  0.32359955  0.85415779  0.55085154  1
  O  O635  1  0.32303877  0.85095874  0.80039021  1
  O  O636  1  0.82414005  0.18698918  0.04897820  1
  O  O637  1  0.82362226  0.18648148  0.29902414  1
  O  O638  1  0.82393598  0.18675252  0.55047812  1
  O  O639  1  0.82344683  0.18656377  0.80243671  1
  O  O640  1  0.82269883  0.51899104  0.05060926  1
  O  O641  1  0.82378706  0.52047850  0.29982103  1
  O  O642  1  0.82301728  0.52162231  0.55074358  1
  O  O643  1  0.82309405  0.51917887  0.80090590  1
  O  O644  1  0.82219247  0.85326952  0.05149717  1
  O  O645  1  0.82392422  0.85200381  0.30093665  1
  O  O646  1  0.82461295  0.85320011  0.55117306  1
  O  O647  1  0.82257292  0.85226330  0.80279960  1
  O  O648  1  0.17671436  0.14542188  0.19884885  1
  O  O649  1  0.17633926  0.14673860  0.45077684  1
  O  O650  1  0.17585782  0.14447485  0.69972362  1
  O  O651  1  0.17736629  0.14749159  0.94919878  1
  O  O652  1  0.17647634  0.48152133  0.19795644  1
  O  O653  1  0.17595319  0.48039372  0.45117712  1
  O  O654  1  0.17802349  0.47990133  0.69836900  1
  O  O655  1  0.17586370  0.48057242  0.94941884  1
  O  O656  1  0.17599490  0.81227426  0.19848129  1
  O  O657  1  0.17666334  0.81336806  0.45038116  1
  O  O658  1  0.17678155  0.81192230  0.70062483  1
  O  O659  1  0.17832375  0.81362985  0.94822382  1
  O  O660  1  0.67709483  0.14559076  0.19879390  1
  O  O661  1  0.67606924  0.14648378  0.44992148  1
  O  O662  1  0.67624267  0.14641464  0.70162258  1
  O  O663  1  0.67803178  0.14666609  0.94915631  1
  O  O664  1  0.67678556  0.48212991  0.19826170  1
  O  O665  1  0.67598332  0.48109989  0.45021410  1
  O  O666  1  0.67558365  0.47989838  0.70107999  1
  O  O667  1  0.67733741  0.48094277  0.94806461  1
  O  O668  1  0.67683531  0.81548560  0.19857658  1
  O  O669  1  0.67742651  0.81498703  0.44982797  1
  O  O670  1  0.67685236  0.81248278  0.70028387  1
  O  O671  1  0.67685042  0.81542784  0.94945734  1
