# generated using pymatgen
data_Na2MnFe(PO4)2
_symmetry_space_group_name_H-M   'P 1'
_cell_length_a   22.33795949
_cell_length_b   20.09123947
_cell_length_c   19.45504961
_cell_angle_alpha   89.98721163
_cell_angle_beta   89.97296614
_cell_angle_gamma   89.98416943
_symmetry_Int_Tables_number   1
_chemical_formula_structural   Na2MnFe(PO4)2
_chemical_formula_sum   'Na96 Mn48 Fe48 P96 O384'
_cell_volume   8731.37208838
_cell_formula_units_Z   48
loop_
 _symmetry_equiv_pos_site_id
 _symmetry_equiv_pos_as_xyz
  1  'x, y, z'
loop_
 _atom_site_type_symbol
 _atom_site_label
 _atom_site_symmetry_multiplicity
 _atom_site_fract_x
 _atom_site_fract_y
 _atom_site_fract_z
 _atom_site_occupancy
  Na  Na0  1  0.14084875  0.25009335  0.24479320  1
  Na  Na1  1  0.14011023  0.24936832  0.49439816  1
  Na  Na2  1  0.14001443  0.25037615  0.74461879  1
  Na  Na3  1  0.14041915  0.24856994  0.99255389  1
  Na  Na4  1  0.14072822  0.58355349  0.24323363  1
  Na  Na5  1  0.14073041  0.58182126  0.49374052  1
  Na  Na6  1  0.14118941  0.58439955  0.74402829  1
  Na  Na7  1  0.14107758  0.58207118  0.99505307  1
  Na  Na8  1  0.14059830  0.91637965  0.24420703  1
  Na  Na9  1  0.14063857  0.91625549  0.49383175  1
  Na  Na10  1  0.14077121  0.91707972  0.74428374  1
  Na  Na11  1  0.14109680  0.91559052  0.99394177  1
  Na  Na12  1  0.64000089  0.25064943  0.24393362  1
  Na  Na13  1  0.63944339  0.25006770  0.49343611  1
  Na  Na14  1  0.63969837  0.24970291  0.74249065  1
  Na  Na15  1  0.64024906  0.25088467  0.99346057  1
  Na  Na16  1  0.63992835  0.58490236  0.24181533  1
  Na  Na17  1  0.64036759  0.58407744  0.49203884  1
  Na  Na18  1  0.64018804  0.58364196  0.74332149  1
  Na  Na19  1  0.63993082  0.58451188  0.99205991  1
  Na  Na20  1  0.64077375  0.91619013  0.24289578  1
  Na  Na21  1  0.64023002  0.91632103  0.49345441  1
  Na  Na22  1  0.64082618  0.91729988  0.74320572  1
  Na  Na23  1  0.64051490  0.91737688  0.99475403  1
  Na  Na24  1  0.35964619  0.08184686  0.00578733  1
  Na  Na25  1  0.35989677  0.08362572  0.25714632  1
  Na  Na26  1  0.36054226  0.08312242  0.50731873  1
  Na  Na27  1  0.35998729  0.08425259  0.75730271  1
  Na  Na28  1  0.36041085  0.41644025  0.00720311  1
  Na  Na29  1  0.36021803  0.41690486  0.25695105  1
  Na  Na30  1  0.35967690  0.41568282  0.50556463  1
  Na  Na31  1  0.35958270  0.41734865  0.75720399  1
  Na  Na32  1  0.36000851  0.74806517  0.00746562  1
  Na  Na33  1  0.36063627  0.74939022  0.25606086  1
  Na  Na34  1  0.35997766  0.74796326  0.50591799  1
  Na  Na35  1  0.35993284  0.75039318  0.75628582  1
  Na  Na36  1  0.85929598  0.08319616  0.00726675  1
  Na  Na37  1  0.85948679  0.08299863  0.25663378  1
  Na  Na38  1  0.85918807  0.08354380  0.50841405  1
  Na  Na39  1  0.85907761  0.08406797  0.75605167  1
  Na  Na40  1  0.85903485  0.41685410  0.00518028  1
  Na  Na41  1  0.85923145  0.41776795  0.25634926  1
  Na  Na42  1  0.85875895  0.41567503  0.50584271  1
  Na  Na43  1  0.85869633  0.41570091  0.75582536  1
  Na  Na44  1  0.85914808  0.75141453  0.00571449  1
  Na  Na45  1  0.85913224  0.75063396  0.25572262  1
  Na  Na46  1  0.85919232  0.75121128  0.50564675  1
  Na  Na47  1  0.85937726  0.75067543  0.75577231  1
  Na  Na48  1  0.10986806  0.08283214  0.11971641  1
  Na  Na49  1  0.10969669  0.08353939  0.37036269  1
  Na  Na50  1  0.10965980  0.08379639  0.61990611  1
  Na  Na51  1  0.10988198  0.08343103  0.86859793  1
  Na  Na52  1  0.10969174  0.41611525  0.11923851  1
  Na  Na53  1  0.10967789  0.41580405  0.36917268  1
  Na  Na54  1  0.10965517  0.41539716  0.61952564  1
  Na  Na55  1  0.10984282  0.41510043  0.86859406  1
  Na  Na56  1  0.11045300  0.74958790  0.11888126  1
  Na  Na57  1  0.11004753  0.74938985  0.36811382  1
  Na  Na58  1  0.10982288  0.75169757  0.61898006  1
  Na  Na59  1  0.11034741  0.74960047  0.86917049  1
  Na  Na60  1  0.60990475  0.08442637  0.11831640  1
  Na  Na61  1  0.60941891  0.08359994  0.36921081  1
  Na  Na62  1  0.60920234  0.08498354  0.61742259  1
  Na  Na63  1  0.60949048  0.08317927  0.86924030  1
  Na  Na64  1  0.60933442  0.41782645  0.11792697  1
  Na  Na65  1  0.60903338  0.41666860  0.36781604  1
  Na  Na66  1  0.60934859  0.41648557  0.61817156  1
  Na  Na67  1  0.60990196  0.41674508  0.86775188  1
  Na  Na68  1  0.61027918  0.75016891  0.11776392  1
  Na  Na69  1  0.61001911  0.74891878  0.36686549  1
  Na  Na70  1  0.60975113  0.75069199  0.61776160  1
  Na  Na71  1  0.60998626  0.75025107  0.86866517  1
  Na  Na72  1  0.39058147  0.25124383  0.13108457  1
  Na  Na73  1  0.39046751  0.24970694  0.38237057  1
  Na  Na74  1  0.39002252  0.25044314  0.63093425  1
  Na  Na75  1  0.39019308  0.24967091  0.88249737  1
  Na  Na76  1  0.39087682  0.58299750  0.13249761  1
  Na  Na77  1  0.39037549  0.58254890  0.38062273  1
  Na  Na78  1  0.39033809  0.58349761  0.63089100  1
  Na  Na79  1  0.39092454  0.58323770  0.88255840  1
  Na  Na80  1  0.39055588  0.91557226  0.13146424  1
  Na  Na81  1  0.39114142  0.91546929  0.38132445  1
  Na  Na82  1  0.39073977  0.91709801  0.63161872  1
  Na  Na83  1  0.39072210  0.91600994  0.88173467  1
  Na  Na84  1  0.89011726  0.24892568  0.13115775  1
  Na  Na85  1  0.88973316  0.24962648  0.38205381  1
  Na  Na86  1  0.88935417  0.24952473  0.63171640  1
  Na  Na87  1  0.88938818  0.25018976  0.88053259  1
  Na  Na88  1  0.88980248  0.58393876  0.13063970  1
  Na  Na89  1  0.89017475  0.58360265  0.38004515  1
  Na  Na90  1  0.89048455  0.58342142  0.63067766  1
  Na  Na91  1  0.89020151  0.58306757  0.88042416  1
  Na  Na92  1  0.88994789  0.91687464  0.13205815  1
  Na  Na93  1  0.88991348  0.91766880  0.38171910  1
  Na  Na94  1  0.88958785  0.91801076  0.63157090  1
  Na  Na95  1  0.88994312  0.91673515  0.88103235  1
  Mn  Mn96  1  0.24986962  -0.00104701  0.12557680  1
  Mn  Mn97  1  0.74979870  0.49916789  0.62345095  1
  Mn  Mn98  1  0.74945864  0.16722199  0.37570427  1
  Mn  Mn99  1  0.25028944  0.83271158  0.87548451  1
  Mn  Mn100  1  -0.00003924  0.66656858  -0.00016537  1
  Mn  Mn101  1  0.00003389  0.33299205  0.25020707  1
  Mn  Mn102  1  0.50019494  0.50013292  0.49920459  1
  Mn  Mn103  1  0.74989600  0.66747101  0.87389409  1
  Mn  Mn104  1  0.49921388  0.33311456  0.74981670  1
  Mn  Mn105  1  -0.00040922  0.83504510  0.49938675  1
  Mn  Mn106  1  0.49990337  0.50113358  0.74923820  1
  Mn  Mn107  1  0.50033834  0.83311384  0.00012689  1
  Mn  Mn108  1  0.50065623  0.83261824  0.75050370  1
  Mn  Mn109  1  0.49947800  0.16762001  0.24948237  1
  Mn  Mn110  1  -0.00020672  0.49939862  0.50023140  1
  Mn  Mn111  1  0.25011112  0.49973611  0.37487796  1
  Mn  Mn112  1  -0.00063079  0.33224001  0.00000379  1
  Mn  Mn113  1  0.74939378  0.33358225  0.12468796  1
  Mn  Mn114  1  -0.00032377  0.66592374  0.24954084  1
  Mn  Mn115  1  0.49987576  0.83257351  0.50007435  1
  Mn  Mn116  1  0.49974569  -0.00041273  0.25012587  1
  Mn  Mn117  1  0.25135044  -0.00021350  0.37499034  1
  Mn  Mn118  1  -0.00091131  0.33229946  0.49985021  1
  Mn  Mn119  1  0.25055795  0.83181541  0.37455320  1
  Mn  Mn120  1  0.74873744  0.16716086  0.87504809  1
  Mn  Mn121  1  0.25058650  0.50027027  0.87594125  1
  Mn  Mn122  1  0.25057893  0.33374423  0.62526463  1
  Mn  Mn123  1  0.00040038  0.49906892  0.75013909  1
  Mn  Mn124  1  0.25057713  0.16639433  0.12494211  1
  Mn  Mn125  1  0.75021430  0.66738458  0.62429790  1
  Mn  Mn126  1  0.00039685  0.00039000  -0.00015702  1
  Mn  Mn127  1  0.00002108  0.83352254  0.00048343  1
  Mn  Mn128  1  0.25024238  0.16681806  0.62603484  1
  Mn  Mn129  1  0.00000856  0.16557715  0.25115073  1
  Mn  Mn130  1  0.74942168  0.50150208  0.12476313  1
  Mn  Mn131  1  0.74936792  -0.00039216  0.37554752  1
  Mn  Mn132  1  0.24978824  -0.00056020  0.62544985  1
  Mn  Mn133  1  -0.00044124  0.00050054  0.75046512  1
  Mn  Mn134  1  0.00000843  0.49947885  -0.00048043  1
  Mn  Mn135  1  0.49969145  0.16692975  0.00048270  1
  Mn  Mn136  1  0.00021959  0.83434705  0.25003214  1
  Mn  Mn137  1  0.00045894  0.66704325  0.49985476  1
  Mn  Mn138  1  0.25084066  0.33337741  0.12517980  1
  Mn  Mn139  1  0.25003336  0.66645797  0.62516823  1
  Mn  Mn140  1  0.74926719  0.50068787  0.37439407  1
  Mn  Mn141  1  0.50042973  0.00089986  0.74996181  1
  Mn  Mn142  1  0.74975810  -0.00016398  0.87547497  1
  Mn  Mn143  1  0.00045152  0.66757072  0.75008499  1
  Fe  Fe144  1  -0.00014816  0.00055982  0.25088461  1
  Fe  Fe145  1  -0.00058530  0.33211350  0.74968171  1
  Fe  Fe146  1  0.74863374  0.33323707  0.62504664  1
  Fe  Fe147  1  0.24981127  0.33315562  0.37542621  1
  Fe  Fe148  1  -0.00064595  0.16665780  0.74988326  1
  Fe  Fe149  1  0.75008370  0.66778861  0.12346058  1
  Fe  Fe150  1  -0.00014188  0.83421018  0.74971356  1
  Fe  Fe151  1  0.24999240  0.33371689  0.87550148  1
  Fe  Fe152  1  0.25055700  0.83300486  0.62531862  1
  Fe  Fe153  1  0.50091132  0.83264817  0.25005801  1
  Fe  Fe154  1  0.24993512  0.49966107  0.12555176  1
  Fe  Fe155  1  0.25011225  0.16637540  0.87521328  1
  Fe  Fe156  1  0.49980776  0.16721961  0.74965104  1
  Fe  Fe157  1  0.25086808  0.83224200  0.12485602  1
  Fe  Fe158  1  0.50048741  0.66620298  0.49864032  1
  Fe  Fe159  1  0.25057353  0.66635177  0.87582388  1
  Fe  Fe160  1  0.50047252  0.66585848  0.24909236  1
  Fe  Fe161  1  0.74935159  0.83353845  0.62457529  1
  Fe  Fe162  1  0.74997513  0.83332932  0.37391457  1
  Fe  Fe163  1  0.74954257  0.33346734  0.87451504  1
  Fe  Fe164  1  0.74946050  0.16701876  0.62532553  1
  Fe  Fe165  1  0.24994232  0.66617180  0.37480271  1
  Fe  Fe166  1  0.75002732  0.16725361  0.12524948  1
  Fe  Fe167  1  0.74990962  0.66766063  0.37389591  1
  Fe  Fe168  1  0.50002922  0.33381609  0.25016347  1
  Fe  Fe169  1  0.50006983  -0.00005711  0.50000052  1
  Fe  Fe170  1  0.50028868  0.49984658  0.24932711  1
  Fe  Fe171  1  0.50014243  0.50030137  0.00022063  1
  Fe  Fe172  1  0.49959395  0.16713814  0.49965238  1
  Fe  Fe173  1  0.25079438  -0.00075367  0.87520563  1
  Fe  Fe174  1  0.50060370  0.33395169  0.00011336  1
  Fe  Fe175  1  0.25016597  0.16667075  0.37556982  1
  Fe  Fe176  1  0.75003643  0.83433000  0.87537444  1
  Fe  Fe177  1  0.74991833  0.50022884  0.87405830  1
  Fe  Fe178  1  0.74965102  0.33318963  0.37496023  1
  Fe  Fe179  1  0.49946101  0.33347902  0.49952464  1
  Fe  Fe180  1  0.50013063  0.66668796  0.74994685  1
  Fe  Fe181  1  0.50015893  0.66648373  0.00023212  1
  Fe  Fe182  1  -0.00033047  0.16650254  -0.00004350  1
  Fe  Fe183  1  -0.00011535  0.16639732  0.50081579  1
  Fe  Fe184  1  -0.00013531  0.49942433  0.24983234  1
  Fe  Fe185  1  0.24998322  0.49973300  0.62521826  1
  Fe  Fe186  1  0.00010161  0.00094202  0.50116565  1
  Fe  Fe187  1  0.25050478  0.66605632  0.12532447  1
  Fe  Fe188  1  0.49998598  0.00001323  0.00013417  1
  Fe  Fe189  1  0.75006749  0.83365369  0.12509233  1
  Fe  Fe190  1  0.74983425  0.00023586  0.12552981  1
  Fe  Fe191  1  0.74954295  -0.00033229  0.62529616  1
  P  P192  1  0.04258119  0.24813650  0.10247063  1
  P  P193  1  0.04268055  0.24914773  0.35400216  1
  P  P194  1  0.04178089  0.24851627  0.60351144  1
  P  P195  1  0.04090662  0.24902720  0.85184088  1
  P  P196  1  0.04266761  0.58249078  0.10349888  1
  P  P197  1  0.04242057  0.58159981  0.35217339  1
  P  P198  1  0.04311046  0.58329509  0.60323805  1
  P  P199  1  0.04333186  0.58311776  0.85299912  1
  P  P200  1  0.04327389  0.91736854  0.10379990  1
  P  P201  1  0.04237818  0.91901728  0.35321530  1
  P  P202  1  0.04216051  0.91845574  0.60308339  1
  P  P203  1  0.04246319  0.91582196  0.85247574  1
  P  P204  1  0.54229409  0.25221206  0.10270060  1
  P  P205  1  0.54160269  0.25121500  0.35297885  1
  P  P206  1  0.54062663  0.25049089  0.60136949  1
  P  P207  1  0.54189246  0.24906239  0.85251005  1
  P  P208  1  0.54148928  0.58346524  0.10187722  1
  P  P209  1  0.54152761  0.58307665  0.35087620  1
  P  P210  1  0.54248080  0.58499070  0.60165331  1
  P  P211  1  0.54220421  0.58473952  0.85286153  1
  P  P212  1  0.54203855  0.91760361  0.10288225  1
  P  P213  1  0.54256351  0.91514323  0.35257949  1
  P  P214  1  0.54214057  0.91809879  0.60225865  1
  P  P215  1  0.54304649  0.91691064  0.85350771  1
  P  P216  1  0.45713150  0.08327795  0.14669077  1
  P  P217  1  0.45863869  0.08301826  0.39855790  1
  P  P218  1  0.45770325  0.08538575  0.64691792  1
  P  P219  1  0.45795157  0.08241845  0.89756876  1
  P  P220  1  0.45902204  0.41663966  0.14774100  1
  P  P221  1  0.45787701  0.41536857  0.39658532  1
  P  P222  1  0.45710368  0.41695257  0.64641328  1
  P  P223  1  0.45915202  0.41692134  0.89870952  1
  P  P224  1  0.45946321  0.74950068  0.14819670  1
  P  P225  1  0.45845720  0.74818090  0.39627348  1
  P  P226  1  0.45816233  0.74858837  0.64728124  1
  P  P227  1  0.45807855  0.74825396  0.89776504  1
  P  P228  1  0.95752101  0.08226427  0.14786447  1
  P  P229  1  0.95782814  0.08315165  0.39925495  1
  P  P230  1  0.95735825  0.08468717  0.64729840  1
  P  P231  1  0.95729107  0.08497686  0.89739579  1
  P  P232  1  0.95731326  0.41712103  0.14746767  1
  P  P233  1  0.95662872  0.41658173  0.39635107  1
  P  P234  1  0.95731210  0.41477820  0.64767957  1
  P  P235  1  0.95712413  0.41549278  0.89607820  1
  P  P236  1  0.95708732  0.75032136  0.14695989  1
  P  P237  1  0.95727639  0.75036239  0.39658264  1
  P  P238  1  0.95764544  0.75222464  0.64731718  1
  P  P239  1  0.95722524  0.75062745  0.89626996  1
  P  P240  1  0.20792379  0.08358715  0.22897081  1
  P  P241  1  0.20857290  0.08382136  0.47774128  1
  P  P242  1  0.20774869  0.08326462  0.72964801  1
  P  P243  1  0.20891752  0.08224338  0.97655951  1
  P  P244  1  0.20822560  0.41732477  0.22807461  1
  P  P245  1  0.20758869  0.41550051  0.47790952  1
  P  P246  1  0.20822702  0.41784359  0.72826513  1
  P  P247  1  0.20779784  0.41570001  0.97810156  1
  P  P248  1  0.20896128  0.74941545  0.22674511  1
  P  P249  1  0.20783537  0.74804920  0.47760202  1
  P  P250  1  0.20794682  0.75131687  0.72794603  1
  P  P251  1  0.20851041  0.74787394  0.97872206  1
  P  P252  1  0.70845176  0.08398700  0.22684518  1
  P  P253  1  0.70731008  0.08334973  0.47933690  1
  P  P254  1  0.70804051  0.08337172  0.72640434  1
  P  P255  1  0.70732443  0.08352345  0.97927334  1
  P  P256  1  0.70686213  0.41725724  0.22792243  1
  P  P257  1  0.70710097  0.41516214  0.47703834  1
  P  P258  1  0.70726469  0.41577596  0.72762698  1
  P  P259  1  0.70837420  0.41733672  0.97590335  1
  P  P260  1  0.70868652  0.75023446  0.22630439  1
  P  P261  1  0.70850102  0.75098211  0.47590212  1
  P  P262  1  0.70752121  0.75152043  0.72717047  1
  P  P263  1  0.70802419  0.75192243  0.97755924  1
  P  P264  1  0.29273337  0.24974822  0.02101410  1
  P  P265  1  0.29197663  0.25020127  0.27393281  1
  P  P266  1  0.29244643  0.24976988  0.52142725  1
  P  P267  1  0.29153031  0.25057861  0.77415082  1
  P  P268  1  0.29217306  0.58256205  0.02401199  1
  P  P269  1  0.29220144  0.58462760  0.27184708  1
  P  P270  1  0.29235317  0.58148646  0.52247485  1
  P  P271  1  0.29275924  0.58470147  0.77301383  1
  P  P272  1  0.29257182  0.91488924  0.02240266  1
  P  P273  1  0.29349436  0.91543111  0.27143200  1
  P  P274  1  0.29275467  0.91471567  0.52279204  1
  P  P275  1  0.29296581  0.91726121  0.77267903  1
  P  P276  1  0.79184796  0.24941567  0.02220833  1
  P  P277  1  0.79200848  0.25098860  0.27250507  1
  P  P278  1  0.79064731  0.25054939  0.52354227  1
  P  P279  1  0.79068809  0.25107561  0.77170642  1
  P  P280  1  0.79181199  0.58476337  0.02108697  1
  P  P281  1  0.79153198  0.58566178  0.27144934  1
  P  P282  1  0.79244151  0.58394089  0.52063176  1
  P  P283  1  0.79221829  0.58225774  0.77173888  1
  P  P284  1  0.79137971  0.91685472  0.02379627  1
  P  P285  1  0.79173216  0.91586942  0.27186008  1
  P  P286  1  0.79101837  0.91652234  0.52324744  1
  P  P287  1  0.79166221  0.91583297  0.77189485  1
  O  O288  1  0.03770484  0.24847178  0.18244329  1
  O  O289  1  0.03741437  0.24884635  0.43391663  1
  O  O290  1  0.03628227  0.24898298  0.68340375  1
  O  O291  1  0.03608961  0.24874173  0.93182005  1
  O  O292  1  0.03734465  0.58182840  0.18343803  1
  O  O293  1  0.03734349  0.58213751  0.43215337  1
  O  O294  1  0.03804461  0.58337353  0.68317807  1
  O  O295  1  0.03816411  0.58314255  0.93296158  1
  O  O296  1  0.03820959  0.91798089  0.18377051  1
  O  O297  1  0.03716446  0.91930233  0.43316587  1
  O  O298  1  0.03685977  0.91745750  0.68300573  1
  O  O299  1  0.03748602  0.91610704  0.93243346  1
  O  O300  1  0.53693359  0.25246336  0.18260287  1
  O  O301  1  0.53614547  0.25087107  0.43282901  1
  O  O302  1  0.53585712  0.24985522  0.68132759  1
  O  O303  1  0.53697419  0.24967990  0.93242938  1
  O  O304  1  0.53660469  0.58307758  0.18174464  1
  O  O305  1  0.53707069  0.58308389  0.43082678  1
  O  O306  1  0.53728856  0.58523182  0.68157196  1
  O  O307  1  0.53684544  0.58443068  0.93270688  1
  O  O308  1  0.53678649  0.91661315  0.18278558  1
  O  O309  1  0.53714020  0.91542173  0.43246217  1
  O  O310  1  0.53715676  0.91790622  0.68217760  1
  O  O311  1  0.53773991  0.91727072  0.93343725  1
  O  O312  1  0.46236581  0.08294649  0.06679038  1
  O  O313  1  0.46319988  0.08322639  0.31859193  1
  O  O314  1  0.46282847  0.08505568  0.56706280  1
  O  O315  1  0.46320146  0.08313214  0.81768659  1
  O  O316  1  0.46408658  0.41674405  0.06786227  1
  O  O317  1  0.46339895  0.41546352  0.31676736  1
  O  O318  1  0.46227310  0.41661740  0.56652052  1
  O  O319  1  0.46332155  0.41731193  0.81871820  1
  O  O320  1  0.46429774  0.74918387  0.06826053  1
  O  O321  1  0.46421158  0.74880920  0.31648023  1
  O  O322  1  0.46329773  0.74877546  0.56734280  1
  O  O323  1  0.46328519  0.74821041  0.81785555  1
  O  O324  1  0.96260551  0.08297572  0.06797362  1
  O  O325  1  0.96286063  0.08235741  0.31929091  1
  O  O326  1  0.96267635  0.08446950  0.56746406  1
  O  O327  1  0.96226385  0.08499859  0.81744760  1
  O  O328  1  0.96245832  0.41660583  0.06748109  1
  O  O329  1  0.96195216  0.41699290  0.31640233  1
  O  O330  1  0.96208933  0.41502387  0.56766981  1
  O  O331  1  0.96248956  0.41482100  0.81618174  1
  O  O332  1  0.96202747  0.75022454  0.06700316  1
  O  O333  1  0.96240139  0.75036969  0.31666343  1
  O  O334  1  0.96285589  0.75199520  0.56734928  1
  O  O335  1  0.96251119  0.75141321  0.81631119  1
  O  O336  1  0.21363380  0.08249830  0.05655300  1
  O  O337  1  0.21343169  0.08419267  0.30885989  1
  O  O338  1  0.21326764  0.08352455  0.55773036  1
  O  O339  1  0.21303024  0.08281962  0.80949991  1
  O  O340  1  0.21295559  0.41628840  0.05799661  1
  O  O341  1  0.21340269  0.41655762  0.30797742  1
  O  O342  1  0.21298423  0.41644812  0.55780344  1
  O  O343  1  0.21358072  0.41715726  0.80817577  1
  O  O344  1  0.21404599  0.74811144  0.05855958  1
  O  O345  1  0.21366668  0.74875620  0.30671677  1
  O  O346  1  0.21298721  0.74881340  0.55747563  1
  O  O347  1  0.21297678  0.75090071  0.80782891  1
  O  O348  1  0.71275684  0.08381173  0.05910494  1
  O  O349  1  0.71309869  0.08369286  0.30686238  1
  O  O350  1  0.71261773  0.08348377  0.55916695  1
  O  O351  1  0.71253601  0.08308372  0.80641853  1
  O  O352  1  0.71319433  0.41745742  0.05587722  1
  O  O353  1  0.71193932  0.41696930  0.30779629  1
  O  O354  1  0.71228714  0.41500170  0.55699001  1
  O  O355  1  0.71295781  0.41625171  0.80746122  1
  O  O356  1  0.71357714  0.75134170  0.05739489  1
  O  O357  1  0.71370268  0.75002251  0.30618964  1
  O  O358  1  0.71337783  0.75110668  0.55583841  1
  O  O359  1  0.71267715  0.75135041  0.80704950  1
  O  O360  1  0.28735631  0.24998247  0.19388656  1
  O  O361  1  0.28702874  0.24971667  0.44157438  1
  O  O362  1  0.28703469  0.25042242  0.69412965  1
  O  O363  1  0.28737323  0.25007418  0.94116811  1
  O  O364  1  0.28689834  0.58449633  0.19200827  1
  O  O365  1  0.28722673  0.58187206  0.44258426  1
  O  O366  1  0.28751808  0.58419334  0.69316807  1
  O  O367  1  0.28743539  0.58298596  0.94406264  1
  O  O368  1  0.28824473  0.91504318  0.19151659  1
  O  O369  1  0.28800201  0.91492003  0.44280923  1
  O  O370  1  0.28760783  0.91671298  0.69278002  1
  O  O371  1  0.28712009  0.91561622  0.94248571  1
  O  O372  1  0.78681875  0.25010909  0.19260041  1
  O  O373  1  0.78598307  0.25076113  0.44356548  1
  O  O374  1  0.78528766  0.25086201  0.69187038  1
  O  O375  1  0.78625126  0.24990857  0.94234106  1
  O  O376  1  0.78631749  0.58603336  0.19147811  1
  O  O377  1  0.78688384  0.58457476  0.44073141  1
  O  O378  1  0.78722797  0.58236365  0.69178820  1
  O  O379  1  0.78653704  0.58375413  0.94115756  1
  O  O380  1  0.78620427  0.91630186  0.19207150  1
  O  O381  1  0.78649491  0.91674839  0.44330973  1
  O  O382  1  0.78607335  0.91597578  0.69209354  1
  O  O383  1  0.78675196  0.91694431  0.94382601  1
  O  O384  1  0.22852611  0.24998740  0.05679475  1
  O  O385  1  0.22767915  0.25032789  0.30959030  1
  O  O386  1  0.22830088  0.25011514  0.55737995  1
  O  O387  1  0.22723878  0.25116646  0.80965130  1
  O  O388  1  0.22794241  0.58227369  0.05986978  1
  O  O389  1  0.22805080  0.58451282  0.30802704  1
  O  O390  1  0.22811455  0.58149841  0.55837481  1
  O  O391  1  0.22849304  0.58467993  0.80886560  1
  O  O392  1  0.22839076  0.91402381  0.05842392  1
  O  O393  1  0.22919446  0.91600717  0.30685736  1
  O  O394  1  0.22829919  0.91450748  0.55808946  1
  O  O395  1  0.22869407  0.91768361  0.80851353  1
  O  O396  1  0.72764237  0.24870796  0.05825275  1
  O  O397  1  0.72763198  0.25151773  0.30812950  1
  O  O398  1  0.72637972  0.25038453  0.55934327  1
  O  O399  1  0.72658362  0.25152401  0.80789357  1
  O  O400  1  0.72755014  0.58548710  0.05694348  1
  O  O401  1  0.72729448  0.58555253  0.30723099  1
  O  O402  1  0.72816523  0.58370611  0.55618534  1
  O  O403  1  0.72789331  0.58242574  0.80727786  1
  O  O404  1  0.72721946  0.91644840  0.05967424  1
  O  O405  1  0.72759839  0.91525255  0.30814134  1
  O  O406  1  0.72677488  0.91600094  0.55904958  1
  O  O407  1  0.72758542  0.91565831  0.80834127  1
  O  O408  1  0.27219135  0.08291598  0.19340312  1
  O  O409  1  0.27297160  0.08416514  0.44246970  1
  O  O410  1  0.27196700  0.08291606  0.69389924  1
  O  O411  1  0.27312516  0.08200134  0.94076934  1
  O  O412  1  0.27253025  0.41790510  0.19232150  1
  O  O413  1  0.27179466  0.41480532  0.44191374  1
  O  O414  1  0.27249094  0.41831016  0.69241145  1
  O  O415  1  0.27218953  0.41513585  0.94252724  1
  O  O416  1  0.27320532  0.74984004  0.19088179  1
  O  O417  1  0.27222408  0.74751583  0.44200565  1
  O  O418  1  0.27226501  0.75120755  0.69221443  1
  O  O419  1  0.27264224  0.74811744  0.94245684  1
  O  O420  1  0.77265141  0.08473359  0.19114503  1
  O  O421  1  0.77149645  0.08328592  0.44344726  1
  O  O422  1  0.77228486  0.08382297  0.69085268  1
  O  O423  1  0.77142645  0.08374865  0.94318293  1
  O  O424  1  0.77120204  0.41746705  0.19258314  1
  O  O425  1  0.77134291  0.41565027  0.44122295  1
  O  O426  1  0.77134813  0.41500651  0.69123984  1
  O  O427  1  0.77250676  0.41739237  0.93997224  1
  O  O428  1  0.77277352  0.75020501  0.18997262  1
  O  O429  1  0.77268559  0.75123829  0.43985278  1
  O  O430  1  0.77182999  0.75209007  0.69141455  1
  O  O431  1  0.77206313  0.75197859  0.94109598  1
  O  O432  1  0.02186949  0.08159578  0.18349757  1
  O  O433  1  0.02211288  0.08346212  0.43516735  1
  O  O434  1  0.02150028  0.08472545  0.68338935  1
  O  O435  1  0.02172286  0.08503004  0.93280387  1
  O  O436  1  0.02170636  0.41748606  0.18289578  1
  O  O437  1  0.02099895  0.41596525  0.43162449  1
  O  O438  1  0.02175910  0.41450400  0.68276414  1
  O  O439  1  0.02143927  0.41545419  0.93149493  1
  O  O440  1  0.02156286  0.75012742  0.18181922  1
  O  O441  1  0.02173664  0.75089462  0.43153753  1
  O  O442  1  0.02200739  0.75251505  0.68278165  1
  O  O443  1  0.02161966  0.75023045  0.93153056  1
  O  O444  1  0.52144876  0.08353290  0.18202611  1
  O  O445  1  0.52280671  0.08260097  0.43426771  1
  O  O446  1  0.52201270  0.08581907  0.68274813  1
  O  O447  1  0.52211871  0.08224176  0.93351290  1
  O  O448  1  0.52304401  0.41611621  0.18401564  1
  O  O449  1  0.52195414  0.41520454  0.43288268  1
  O  O450  1  0.52140991  0.41682582  0.68177562  1
  O  O451  1  0.52348426  0.41675406  0.93399707  1
  O  O452  1  0.52362427  0.74974040  0.18407024  1
  O  O453  1  0.52253667  0.74829748  0.43264307  1
  O  O454  1  0.52248206  0.74814944  0.68297912  1
  O  O455  1  0.52236847  0.74838202  0.93342543  1
  O  O456  1  0.47806858  0.25225275  0.06692502  1
  O  O457  1  0.47747510  0.25164227  0.31680965  1
  O  O458  1  0.47651316  0.25104040  0.56546802  1
  O  O459  1  0.47748897  0.24847953  0.81701661  1
  O  O460  1  0.47734909  0.58383218  0.06584637  1
  O  O461  1  0.47733853  0.58338618  0.31521081  1
  O  O462  1  0.47818544  0.58481909  0.56595466  1
  O  O463  1  0.47798866  0.58539654  0.81676769  1
  O  O464  1  0.47789359  0.91780809  0.06688434  1
  O  O465  1  0.47832107  0.91455768  0.31680079  1
  O  O466  1  0.47784839  0.91792312  0.56667343  1
  O  O467  1  0.47878095  0.91671410  0.81806921  1
  O  O468  1  0.97802812  0.24776241  0.06739515  1
  O  O469  1  0.97831490  0.24947589  0.31876878  1
  O  O470  1  0.97759732  0.24779177  0.56739376  1
  O  O471  1  0.97671361  0.24930445  0.81593806  1
  O  O472  1  0.97829997  0.58291001  0.06819543  1
  O  O473  1  0.97802521  0.58129391  0.31677949  1
  O  O474  1  0.97860316  0.58350936  0.56832547  1
  O  O475  1  0.97889484  0.58323438  0.81800240  1
  O  O476  1  0.97879242  0.91745271  0.06877021  1
  O  O477  1  0.97803599  0.91878689  0.31762493  1
  O  O478  1  0.97783366  0.91918331  0.56742497  1
  O  O479  1  0.97803063  0.91568733  0.81718707  1
  O  O480  1  0.07330927  0.31190419  0.07440237  1
  O  O481  1  0.07383593  0.31256521  0.32570762  1
  O  O482  1  0.07264715  0.31220396  0.57527335  1
  O  O483  1  0.07168053  0.31285323  0.82368162  1
  O  O484  1  0.07368764  0.64623807  0.07580387  1
  O  O485  1  0.07330988  0.64537963  0.32432912  1
  O  O486  1  0.07415213  0.64680733  0.57508142  1
  O  O487  1  0.07440427  0.64660421  0.82493804  1
  O  O488  1  0.07464466  0.98033690  0.07479960  1
  O  O489  1  0.07314667  0.98234122  0.32434030  1
  O  O490  1  0.07305532  0.98220827  0.57527817  1
  O  O491  1  0.07325826  0.97969344  0.82484509  1
  O  O492  1  0.57341881  0.31531114  0.07364622  1
  O  O493  1  0.57285835  0.31437445  0.32426537  1
  O  O494  1  0.57175614  0.31414752  0.57351720  1
  O  O495  1  0.57264763  0.31266770  0.82406604  1
  O  O496  1  0.57279475  0.64691807  0.07372840  1
  O  O497  1  0.57287476  0.64632318  0.32236902  1
  O  O498  1  0.57338070  0.64818917  0.57250555  1
  O  O499  1  0.57359358  0.64784583  0.82411456  1
  O  O500  1  0.57252672  0.98152209  0.07488021  1
  O  O501  1  0.57357179  0.97887169  0.32474285  1
  O  O502  1  0.57257451  0.98184031  0.57387420  1
  O  O503  1  0.57440417  0.98007430  0.82499432  1
  O  O504  1  0.42583498  0.02016230  0.17529203  1
  O  O505  1  0.42766295  0.01933075  0.42655099  1
  O  O506  1  0.42672971  0.02175451  0.67520473  1
  O  O507  1  0.42746257  0.01854726  0.92579988  1
  O  O508  1  0.42736773  0.35353399  0.17623573  1
  O  O509  1  0.42679375  0.35217150  0.42552621  1
  O  O510  1  0.42565869  0.35387209  0.67505085  1
  O  O511  1  0.42829960  0.35322581  0.92672146  1
  O  O512  1  0.42865827  0.68582541  0.17657948  1
  O  O513  1  0.42782168  0.68441856  0.42460616  1
  O  O514  1  0.42688954  0.68546051  0.67588195  1
  O  O515  1  0.42716421  0.68506891  0.92683518  1
  O  O516  1  0.92664740  0.01876534  0.17634182  1
  O  O517  1  0.92693220  0.01979192  0.42811238  1
  O  O518  1  0.92613842  0.02117638  0.67548748  1
  O  O519  1  0.92652523  0.02101029  0.92514888  1
  O  O520  1  0.92648476  0.35330174  0.17525140  1
  O  O521  1  0.92537644  0.35306872  0.42435311  1
  O  O522  1  0.92664032  0.35116089  0.67608048  1
  O  O523  1  0.92568890  0.35247863  0.92484754  1
  O  O524  1  0.92587534  0.68690196  0.17495979  1
  O  O525  1  0.92668485  0.68661606  0.42469274  1
  O  O526  1  0.92674771  0.68837666  0.67494255  1
  O  O527  1  0.92621147  0.68683260  0.92389525  1
  O  O528  1  0.17662966  0.02003533  0.20121861  1
  O  O529  1  0.17777280  0.02004766  0.44989200  1
  O  O530  1  0.17622301  0.02023967  0.70080815  1
  O  O531  1  0.17791473  0.01859836  0.94877093  1
  O  O532  1  0.17711863  0.35386884  0.19986082  1
  O  O533  1  0.17662604  0.35187544  0.44993632  1
  O  O534  1  0.17710819  0.35434327  0.70012409  1
  O  O535  1  0.17684283  0.35222818  0.94963784  1
  O  O536  1  0.17813953  0.68591969  0.19813945  1
  O  O537  1  0.17718925  0.68436852  0.44921083  1
  O  O538  1  0.17652207  0.68801127  0.69991090  1
  O  O539  1  0.17802684  0.68420360  0.94996806  1
  O  O540  1  0.67840981  0.01978811  0.19864273  1
  O  O541  1  0.67605678  0.02005095  0.45085331  1
  O  O542  1  0.67779343  0.01943033  0.69797594  1
  O  O543  1  0.67637415  0.01996907  0.95093912  1
  O  O544  1  0.67571615  0.35402684  0.19934229  1
  O  O545  1  0.67662344  0.35164372  0.44825212  1
  O  O546  1  0.67577539  0.35253376  0.69930076  1
  O  O547  1  0.67787282  0.35329554  0.94808878  1
  O  O548  1  0.67764663  0.68690082  0.19742365  1
  O  O549  1  0.67817592  0.68693487  0.44764670  1
  O  O550  1  0.67714589  0.68746121  0.69914780  1
  O  O551  1  0.67661388  0.68861980  0.94925275  1
  O  O552  1  0.32422065  0.31285472  0.04977482  1
  O  O553  1  0.32260929  0.31404221  0.30180244  1
  O  O554  1  0.32385565  0.31306414  0.54978053  1
  O  O555  1  0.32288588  0.31400964  0.80199778  1
  O  O556  1  0.32301429  0.64607322  0.05250270  1
  O  O557  1  0.32281838  0.64808825  0.30086065  1
  O  O558  1  0.32372267  0.64485945  0.55044807  1
  O  O559  1  0.32310113  0.64848631  0.80154608  1
  O  O560  1  0.32339794  0.97850574  0.05052804  1
  O  O561  1  0.32480068  0.97892196  0.29939029  1
  O  O562  1  0.32355819  0.97845678  0.55065856  1
  O  O563  1  0.32385648  0.98081361  0.80097970  1
  O  O564  1  0.82280499  0.31317055  0.04991935  1
  O  O565  1  0.82266371  0.31472719  0.30067800  1
  O  O566  1  0.82159398  0.31400082  0.55193928  1
  O  O567  1  0.82182378  0.31431508  0.80056165  1
  O  O568  1  0.82276706  0.64844145  0.04896167  1
  O  O569  1  0.82253078  0.64885956  0.30036232  1
  O  O570  1  0.82375378  0.64707706  0.54926845  1
  O  O571  1  0.82341428  0.64592676  0.79924807  1
  O  O572  1  0.82147776  0.98095861  0.05232766  1
  O  O573  1  0.82253019  0.97954190  0.30024713  1
  O  O574  1  0.82102216  0.98057773  0.55208357  1
  O  O575  1  0.82277874  0.97955468  0.79982397  1
  O  O576  1  0.42620417  0.14710010  0.17458548  1
  O  O577  1  0.42822445  0.14697081  0.42676739  1
  O  O578  1  0.42681799  0.14877940  0.67594075  1
  O  O579  1  0.42653322  0.14574103  0.92567552  1
  O  O580  1  0.42880635  0.48071379  0.17639780  1
  O  O581  1  0.42678850  0.47913720  0.42437886  1
  O  O582  1  0.42641932  0.48071731  0.67461139  1
  O  O583  1  0.42868539  0.48066995  0.92753185  1
  O  O584  1  0.42858497  0.81323365  0.17624684  1
  O  O585  1  0.42682264  0.81134063  0.42476026  1
  O  O586  1  0.42769711  0.81262856  0.67533213  1
  O  O587  1  0.42704862  0.81206827  0.92543962  1
  O  O588  1  0.92656814  0.14575801  0.17639074  1
  O  O589  1  0.92718204  0.14718538  0.42692658  1
  O  O590  1  0.92640311  0.14805286  0.67608372  1
  O  O591  1  0.92639241  0.14818630  0.92641736  1
  O  O592  1  0.92647406  0.48072679  0.17559231  1
  O  O593  1  0.92561468  0.47992231  0.42492163  1
  O  O594  1  0.92637893  0.47854579  0.67540699  1
  O  O595  1  0.92626821  0.47934889  0.92376590  1
  O  O596  1  0.92630353  0.81394682  0.17509872  1
  O  O597  1  0.92588319  0.81372372  0.42456820  1
  O  O598  1  0.92679104  0.81574228  0.67564578  1
  O  O599  1  0.92602606  0.81377399  0.92510352  1
  O  O600  1  0.07330897  0.18464594  0.07384972  1
  O  O601  1  0.07377323  0.18574469  0.32574890  1
  O  O602  1  0.07310757  0.18522537  0.57506303  1
  O  O603  1  0.07183747  0.18552605  0.82337858  1
  O  O604  1  0.07384412  0.51925065  0.07489258  1
  O  O605  1  0.07317521  0.51799223  0.32397024  1
  O  O606  1  0.07385699  0.51957136  0.57522537  1
  O  O607  1  0.07431340  0.51951284  0.82509004  1
  O  O608  1  0.07402743  0.85351614  0.07595664  1
  O  O609  1  0.07350102  0.85516108  0.32569818  1
  O  O610  1  0.07321056  0.85513715  0.57437683  1
  O  O611  1  0.07326273  0.85239831  0.82392941  1
  O  O612  1  0.57318970  0.18829277  0.07521005  1
  O  O613  1  0.57252875  0.18740046  0.32487931  1
  O  O614  1  0.57112979  0.18680655  0.57247832  1
  O  O615  1  0.57269029  0.18551277  0.82395632  1
  O  O616  1  0.57192891  0.51970747  0.07283897  1
  O  O617  1  0.57171785  0.51899097  0.32249059  1
  O  O618  1  0.57351499  0.52114093  0.57404119  1
  O  O619  1  0.57279017  0.52087929  0.82445447  1
  O  O620  1  0.57339408  0.85425149  0.07469508  1
  O  O621  1  0.57351505  0.85173759  0.32387976  1
  O  O622  1  0.57331636  0.85450058  0.57453516  1
  O  O623  1  0.57395364  0.85316394  0.82554367  1
  O  O624  1  0.32376456  0.18615932  0.04926846  1
  O  O625  1  0.32256758  0.18637860  0.30221512  1
  O  O626  1  0.32350610  0.18636650  0.55002260  1
  O  O627  1  0.32157135  0.18639525  0.80241847  1
  O  O628  1  0.32278784  0.51863405  0.05205952  1
  O  O629  1  0.32356230  0.52108491  0.29971466  1
  O  O630  1  0.32278254  0.51767866  0.55094489  1
  O  O631  1  0.32421569  0.52137882  0.80126356  1
  O  O632  1  0.32372658  0.85129317  0.05030631  1
  O  O633  1  0.32449680  0.85206477  0.29991089  1
  O  O634  1  0.32337905  0.85107084  0.55127901  1
  O  O635  1  0.32413487  0.85377799  0.80082802  1
  O  O636  1  0.82291841  0.18604336  0.05068965  1
  O  O637  1  0.82307886  0.18759609  0.30113584  1
  O  O638  1  0.82123084  0.18661787  0.55178104  1
  O  O639  1  0.82175002  0.18740658  0.79975455  1
  O  O640  1  0.82282336  0.52129203  0.04960833  1
  O  O641  1  0.82254270  0.52179042  0.29891435  1
  O  O642  1  0.82349890  0.52016082  0.54824752  1
  O  O643  1  0.82277825  0.51863588  0.80025969  1
  O  O644  1  0.82281665  0.85356316  0.05196789  1
  O  O645  1  0.82297408  0.85255164  0.30032803  1
  O  O646  1  0.82239310  0.85322362  0.55143693  1
  O  O647  1  0.82259526  0.85254330  0.80089693  1
  O  O648  1  0.17690165  0.14690974  0.20026240  1
  O  O649  1  0.17774773  0.14740386  0.44944066  1
  O  O650  1  0.17688106  0.14701255  0.70153266  1
  O  O651  1  0.17857149  0.14625372  0.94822129  1
  O  O652  1  0.17754147  0.48102830  0.19980974  1
  O  O653  1  0.17653897  0.47893017  0.44949702  1
  O  O654  1  0.17753526  0.48154352  0.69996042  1
  O  O655  1  0.17686083  0.47925544  0.94985591  1
  O  O656  1  0.17819457  0.81333329  0.19895091  1
  O  O657  1  0.17673610  0.81149558  0.44917449  1
  O  O658  1  0.17767397  0.81514638  0.69925320  1
  O  O659  1  0.17685900  0.81120096  0.95073846  1
  O  O660  1  0.67704330  0.14739918  0.19899287  1
  O  O661  1  0.67613263  0.14673005  0.45076313  1
  O  O662  1  0.67688334  0.14696705  0.69857309  1
  O  O663  1  0.67568573  0.14662574  0.95067895  1
  O  O664  1  0.67588043  0.48089076  0.19976881  1
  O  O665  1  0.67575240  0.47889229  0.44962313  1
  O  O666  1  0.67640454  0.47943710  0.69918906  1
  O  O667  1  0.67740014  0.48093013  0.94776358  1
  O  O668  1  0.67782703  0.81403228  0.19816870  1
  O  O669  1  0.67728083  0.81429449  0.44743924  1
  O  O670  1  0.67611872  0.81457496  0.69850030  1
  O  O671  1  0.67730542  0.81565623  0.94930847  1
