# generated using pymatgen
data_Na2MnFe(PO4)2
_symmetry_space_group_name_H-M   'P 1'
_cell_length_a   22.34292651
_cell_length_b   20.09299628
_cell_length_c   19.44970733
_cell_angle_alpha   89.96756985
_cell_angle_beta   89.95510240
_cell_angle_gamma   89.95687551
_symmetry_Int_Tables_number   1
_chemical_formula_structural   Na2MnFe(PO4)2
_chemical_formula_sum   'Na96 Mn48 Fe48 P96 O384'
_cell_volume   8731.67386102
_cell_formula_units_Z   48
loop_
 _symmetry_equiv_pos_site_id
 _symmetry_equiv_pos_as_xyz
  1  'x, y, z'
loop_
 _atom_site_type_symbol
 _atom_site_label
 _atom_site_symmetry_multiplicity
 _atom_site_fract_x
 _atom_site_fract_y
 _atom_site_fract_z
 _atom_site_occupancy
  Na  Na0  1  0.14002805  0.24993029  0.24465181  1
  Na  Na1  1  0.14006395  0.24899264  0.49403484  1
  Na  Na2  1  0.14092902  0.24949583  0.74277984  1
  Na  Na3  1  0.14029279  0.24974408  0.99434998  1
  Na  Na4  1  0.14030379  0.58468282  0.24310185  1
  Na  Na5  1  0.14054928  0.58339428  0.49408846  1
  Na  Na6  1  0.14020633  0.58405985  0.74299416  1
  Na  Na7  1  0.13984853  0.58365752  0.99286025  1
  Na  Na8  1  0.13974128  0.91643040  0.24434618  1
  Na  Na9  1  0.14003009  0.91679075  0.49387897  1
  Na  Na10  1  0.14075196  0.91751963  0.74347673  1
  Na  Na11  1  0.14050409  0.91708419  0.99452214  1
  Na  Na12  1  0.64036076  0.25034706  0.24426264  1
  Na  Na13  1  0.64069519  0.24951876  0.49313102  1
  Na  Na14  1  0.64073823  0.24933935  0.74384237  1
  Na  Na15  1  0.64052832  0.25024133  0.99434918  1
  Na  Na16  1  0.64038665  0.58283363  0.24251622  1
  Na  Na17  1  0.64042456  0.58248759  0.49283815  1
  Na  Na18  1  0.64115828  0.58342845  0.74386729  1
  Na  Na19  1  0.64071089  0.58295390  0.99486697  1
  Na  Na20  1  0.64026691  0.91790141  0.24246725  1
  Na  Na21  1  0.64077867  0.91752915  0.49313895  1
  Na  Na22  1  0.64112799  0.91740511  0.74311041  1
  Na  Na23  1  0.64041497  0.91661424  0.99406820  1
  Na  Na24  1  0.35963595  0.08257076  0.00627542  1
  Na  Na25  1  0.35935568  0.08246526  0.25662961  1
  Na  Na26  1  0.35897250  0.08315210  0.50629700  1
  Na  Na27  1  0.35950770  0.08328195  0.75478714  1
  Na  Na28  1  0.35978982  0.41636504  0.00578529  1
  Na  Na29  1  0.35978347  0.41651389  0.25657142  1
  Na  Na30  1  0.35922347  0.41526175  0.50637457  1
  Na  Na31  1  0.35957347  0.41572938  0.75592983  1
  Na  Na32  1  0.35976679  0.75058186  0.00630115  1
  Na  Na33  1  0.36000432  0.75163070  0.25662057  1
  Na  Na34  1  0.35950761  0.75076089  0.50549886  1
  Na  Na35  1  0.35953666  0.75101005  0.75536944  1
  Na  Na36  1  0.85918719  0.08365026  0.00681196  1
  Na  Na37  1  0.85884781  0.08452760  0.25730744  1
  Na  Na38  1  0.85903627  0.08368604  0.50736349  1
  Na  Na39  1  0.85962310  0.08401340  0.75559206  1
  Na  Na40  1  0.85971457  0.41621850  0.00660294  1
  Na  Na41  1  0.85925726  0.41516315  0.25697088  1
  Na  Na42  1  0.85904329  0.41591748  0.50593040  1
  Na  Na43  1  0.85953207  0.41663078  0.75694227  1
  Na  Na44  1  0.85988601  0.74910306  0.00704177  1
  Na  Na45  1  0.86012703  0.74998208  0.25628317  1
  Na  Na46  1  0.85937897  0.74999344  0.50614895  1
  Na  Na47  1  0.85957607  0.75014768  0.75620573  1
  Na  Na48  1  0.10950522  0.08290104  0.11953446  1
  Na  Na49  1  0.10932009  0.08258048  0.36942886  1
  Na  Na50  1  0.10981218  0.08307294  0.61750492  1
  Na  Na51  1  0.10983581  0.08302755  0.86936851  1
  Na  Na52  1  0.10910997  0.41733307  0.11945754  1
  Na  Na53  1  0.10972424  0.41681252  0.36925279  1
  Na  Na54  1  0.10989936  0.41764731  0.61815377  1
  Na  Na55  1  0.10925627  0.41808627  0.86819769  1
  Na  Na56  1  0.10985515  0.75047633  0.11868337  1
  Na  Na57  1  0.10952037  0.75030609  0.36887429  1
  Na  Na58  1  0.10954876  0.75064046  0.61862426  1
  Na  Na59  1  0.11002989  0.74873563  0.86891065  1
  Na  Na60  1  0.60967067  0.08444931  0.11908005  1
  Na  Na61  1  0.61004981  0.08410758  0.36779013  1
  Na  Na62  1  0.61070328  0.08319766  0.61764792  1
  Na  Na63  1  0.60980443  0.08308800  0.86849201  1
  Na  Na64  1  0.60992885  0.41615902  0.11977309  1
  Na  Na65  1  0.60992012  0.41698829  0.36747989  1
  Na  Na66  1  0.61016872  0.41442092  0.61874397  1
  Na  Na67  1  0.61016163  0.41531305  0.86931956  1
  Na  Na68  1  0.61039236  0.75069693  0.11869682  1
  Na  Na69  1  0.60933084  0.75063625  0.36663912  1
  Na  Na70  1  0.60992577  0.75080428  0.61918371  1
  Na  Na71  1  0.61038508  0.74964301  0.86915542  1
  Na  Na72  1  0.39048893  0.25040313  0.13101396  1
  Na  Na73  1  0.38984851  0.25093948  0.38159167  1
  Na  Na74  1  0.38978767  0.24910833  0.63113979  1
  Na  Na75  1  0.39009254  0.24895327  0.88070229  1
  Na  Na76  1  0.39098151  0.58339092  0.13170038  1
  Na  Na77  1  0.39080133  0.58350884  0.38015175  1
  Na  Na78  1  0.39064207  0.58290791  0.63180249  1
  Na  Na79  1  0.39041347  0.58318752  0.88066180  1
  Na  Na80  1  0.39016152  0.91672856  0.13239175  1
  Na  Na81  1  0.38957188  0.91750401  0.38092502  1
  Na  Na82  1  0.38992849  0.91679388  0.63067949  1
  Na  Na83  1  0.39064020  0.91605144  0.88049381  1
  Na  Na84  1  0.88964746  0.25026491  0.13197735  1
  Na  Na85  1  0.88958289  0.24981057  0.38244271  1
  Na  Na86  1  0.88940266  0.25020487  0.63199522  1
  Na  Na87  1  0.88975499  0.25012909  0.88215549  1
  Na  Na88  1  0.89064409  0.58358913  0.13121355  1
  Na  Na89  1  0.89012846  0.58341692  0.38006420  1
  Na  Na90  1  0.89039628  0.58389696  0.63089476  1
  Na  Na91  1  0.89047921  0.58380594  0.88110287  1
  Na  Na92  1  0.89031890  0.91591329  0.13165772  1
  Na  Na93  1  0.88987901  0.91649807  0.38233998  1
  Na  Na94  1  0.88956874  0.91652229  0.63159786  1
  Na  Na95  1  0.89058633  0.91558970  0.88097984  1
  Mn  Mn96  1  0.00077492  0.83211726  0.75069822  1
  Mn  Mn97  1  0.50055867  0.49874963  0.00086098  1
  Mn  Mn98  1  0.50036284  0.66672947  0.00056683  1
  Mn  Mn99  1  -0.00103251  0.83263962  0.50028017  1
  Mn  Mn100  1  0.50077983  0.00083791  0.49952069  1
  Mn  Mn101  1  0.24985023  0.16599462  0.37542577  1
  Mn  Mn102  1  0.49950995  0.33253466  0.49919258  1
  Mn  Mn103  1  0.50011247  -0.00085784  0.74900969  1
  Mn  Mn104  1  -0.00036184  0.50141266  0.49903184  1
  Mn  Mn105  1  0.24982621  0.50026916  0.12486020  1
  Mn  Mn106  1  0.24976294  0.33310514  0.12469492  1
  Mn  Mn107  1  0.74977009  0.00091273  0.12453474  1
  Mn  Mn108  1  0.50093544  0.49847046  0.75075877  1
  Mn  Mn109  1  0.00034406  0.33423457  0.00023807  1
  Mn  Mn110  1  -0.00095209  0.16708017  0.25018214  1
  Mn  Mn111  1  0.50007083  0.66681198  0.49968395  1
  Mn  Mn112  1  -0.00094465  0.33363705  0.50056183  1
  Mn  Mn113  1  0.00015149  0.50041449  0.24996273  1
  Mn  Mn114  1  -0.00145368  -0.00050109  0.25071395  1
  Mn  Mn115  1  0.49929078  0.16722704  0.24901894  1
  Mn  Mn116  1  0.24974295  0.50075866  0.87458516  1
  Mn  Mn117  1  0.25014032  0.66736113  0.62423361  1
  Mn  Mn118  1  0.49977917  0.83412310  0.00034709  1
  Mn  Mn119  1  0.00003697  -0.00026133  0.74999259  1
  Mn  Mn120  1  0.50003073  0.16652433  -0.00007891  1
  Mn  Mn121  1  0.75025648  0.49893152  0.12467564  1
  Mn  Mn122  1  0.25022583  0.66765065  0.37486197  1
  Mn  Mn123  1  0.50078570  0.66691434  0.75045221  1
  Mn  Mn124  1  0.75014950  0.66709152  0.62394175  1
  Mn  Mn125  1  0.50001462  0.83385802  0.49894404  1
  Mn  Mn126  1  0.00019481  0.83278154  0.00012320  1
  Mn  Mn127  1  0.00022675  0.16609707  0.00102190  1
  Mn  Mn128  1  0.74942281  0.83436989  0.37499994  1
  Mn  Mn129  1  0.75088945  0.00093823  0.87457535  1
  Mn  Mn130  1  0.00057843  0.33457884  0.75059344  1
  Mn  Mn131  1  0.25093841  0.00081364  0.87435759  1
  Mn  Mn132  1  0.24952742  0.33260570  0.87471736  1
  Mn  Mn133  1  0.75010362  0.49970097  0.87546984  1
  Mn  Mn134  1  0.75049510  0.83296628  0.87477827  1
  Mn  Mn135  1  0.74931475  0.66616941  0.37499412  1
  Mn  Mn136  1  0.25054796  0.83350653  0.87470025  1
  Mn  Mn137  1  0.25058008  0.16582653  0.12559303  1
  Mn  Mn138  1  0.25018124  0.49919226  0.37493130  1
  Mn  Mn139  1  0.49980931  0.16646071  0.75017506  1
  Mn  Mn140  1  -0.00030425  0.16646796  0.75045041  1
  Mn  Mn141  1  0.75037842  0.49885327  0.62495653  1
  Mn  Mn142  1  0.50023408  0.49969296  0.49988543  1
  Mn  Mn143  1  0.25084319  0.66785811  0.12467914  1
  Fe  Fe144  1  0.24974725  0.83400639  0.12540256  1
  Fe  Fe145  1  0.75011323  0.33248430  0.87561063  1
  Fe  Fe146  1  0.24921600  0.33265456  0.37576613  1
  Fe  Fe147  1  0.74987451  0.16698822  0.62477063  1
  Fe  Fe148  1  0.00016628  0.66628826  -0.00021288  1
  Fe  Fe149  1  0.24947422  -0.00031920  0.12548981  1
  Fe  Fe150  1  -0.00030574  0.50075279  -0.00003913  1
  Fe  Fe151  1  0.49932012  0.00097815  0.24986492  1
  Fe  Fe152  1  0.25045199  0.66727257  0.87439419  1
  Fe  Fe153  1  -0.00036334  0.66626437  0.75001488  1
  Fe  Fe154  1  0.24987570  0.16624742  0.87442056  1
  Fe  Fe155  1  0.49994912  0.16691132  0.49921475  1
  Fe  Fe156  1  0.75012589  0.33233880  0.12609595  1
  Fe  Fe157  1  0.49994008  0.33355822  0.25031158  1
  Fe  Fe158  1  0.25044299  0.49992782  0.62475449  1
  Fe  Fe159  1  0.75019354  0.16689495  0.37579514  1
  Fe  Fe160  1  0.24928916  -0.00072453  0.37572067  1
  Fe  Fe161  1  0.24991826  0.33277605  0.62519303  1
  Fe  Fe162  1  0.00002204  0.83291384  0.25036899  1
  Fe  Fe163  1  0.50033479  -0.00032088  -0.00025745  1
  Fe  Fe164  1  0.75017455  0.00060594  0.37488907  1
  Fe  Fe165  1  -0.00033611  -0.00058374  0.00044688  1
  Fe  Fe166  1  0.24974199  -0.00007621  0.62472619  1
  Fe  Fe167  1  0.75059982  0.83347365  0.12484642  1
  Fe  Fe168  1  -0.00029910  -0.00034698  0.50015365  1
  Fe  Fe169  1  0.00052197  0.66674594  0.24962690  1
  Fe  Fe170  1  0.74998515  0.66682847  0.87515625  1
  Fe  Fe171  1  0.75011079  0.00062802  0.62464574  1
  Fe  Fe172  1  0.50071821  0.83327946  0.75007041  1
  Fe  Fe173  1  0.75056928  0.66617285  0.12519485  1
  Fe  Fe174  1  0.49985133  0.49995624  0.24968287  1
  Fe  Fe175  1  0.74999333  0.49899035  0.37438816  1
  Fe  Fe176  1  -0.00002928  0.66692794  0.49979111  1
  Fe  Fe177  1  -0.00022250  0.33348161  0.25045788  1
  Fe  Fe178  1  0.50024982  0.33238970  0.74968798  1
  Fe  Fe179  1  0.50026637  0.83426374  0.24948162  1
  Fe  Fe180  1  0.50037028  0.66700579  0.24985996  1
  Fe  Fe181  1  0.24983327  0.83403964  0.62494935  1
  Fe  Fe182  1  -0.00002969  0.50113113  0.74949901  1
  Fe  Fe183  1  0.74982807  0.33248682  0.37551429  1
  Fe  Fe184  1  0.24952673  0.16618340  0.62438777  1
  Fe  Fe185  1  0.74967659  0.33285154  0.62509702  1
  Fe  Fe186  1  0.49972654  0.33314784  0.00035325  1
  Fe  Fe187  1  0.74975202  0.16717529  0.87493998  1
  Fe  Fe188  1  0.24940363  0.83427658  0.37532848  1
  Fe  Fe189  1  -0.00001645  0.16692776  0.50019178  1
  Fe  Fe190  1  0.74975886  0.16739133  0.12582014  1
  Fe  Fe191  1  0.74948229  0.83386100  0.62494280  1
  P  P192  1  0.04261427  0.25057257  0.10408185  1
  P  P193  1  0.04141422  0.25076641  0.35329379  1
  P  P194  1  0.04181906  0.24928419  0.60260383  1
  P  P195  1  0.04294269  0.25021508  0.85344137  1
  P  P196  1  0.04169659  0.58382097  0.10176422  1
  P  P197  1  0.04263948  0.58519204  0.35237037  1
  P  P198  1  0.04209294  0.58501114  0.60272165  1
  P  P199  1  0.04163173  0.58343071  0.85194251  1
  P  P200  1  0.04187046  0.91721008  0.10310570  1
  P  P201  1  0.04116212  0.91540461  0.35321864  1
  P  P202  1  0.04184767  0.91717163  0.60228972  1
  P  P203  1  0.04316928  0.91635110  0.85380281  1
  P  P204  1  0.54201324  0.25139993  0.10282802  1
  P  P205  1  0.54184355  0.25068321  0.35220934  1
  P  P206  1  0.54236524  0.24848056  0.60214763  1
  P  P207  1  0.54209783  0.25092783  0.85282048  1
  P  P208  1  0.54281549  0.58305802  0.10452470  1
  P  P209  1  0.54186752  0.58333382  0.35094183  1
  P  P210  1  0.54328948  0.58308146  0.60311530  1
  P  P211  1  0.54362880  0.58257996  0.85356096  1
  P  P212  1  0.54209000  0.91852452  0.10340598  1
  P  P213  1  0.54139929  0.91786722  0.35080013  1
  P  P214  1  0.54319662  0.91649129  0.60277167  1
  P  P215  1  0.54296306  0.91563993  0.85244790  1
  P  P216  1  0.45735632  0.08217005  0.14675131  1
  P  P217  1  0.45747362  0.08480615  0.39683066  1
  P  P218  1  0.45761531  0.08370254  0.64601651  1
  P  P219  1  0.45780115  0.08167891  0.89749775  1
  P  P220  1  0.45843565  0.41611724  0.14838960  1
  P  P221  1  0.45737533  0.41697077  0.39580994  1
  P  P222  1  0.45796571  0.41465272  0.64758157  1
  P  P223  1  0.45787401  0.41462049  0.89740402  1
  P  P224  1  0.45896606  0.75039897  0.14865039  1
  P  P225  1  0.45757863  0.75029629  0.39529533  1
  P  P226  1  0.45785531  0.75141350  0.64757648  1
  P  P227  1  0.45765058  0.75030851  0.89675987  1
  P  P228  1  0.95647837  0.08282938  0.14702101  1
  P  P229  1  0.95809594  0.08347194  0.39912677  1
  P  P230  1  0.95759766  0.08335504  0.64591339  1
  P  P231  1  0.95747435  0.08181161  0.89820666  1
  P  P232  1  0.95758477  0.41603494  0.14770346  1
  P  P233  1  0.95708348  0.41683490  0.39639436  1
  P  P234  1  0.95753646  0.41856039  0.64776320  1
  P  P235  1  0.95789391  0.41905036  0.89733244  1
  P  P236  1  0.95890446  0.74969374  0.14818742  1
  P  P237  1  0.95743744  0.74846834  0.39671487  1
  P  P238  1  0.95765724  0.74843616  0.64747721  1
  P  P239  1  0.95783334  0.74803342  0.89747544  1
  P  P240  1  0.20755648  0.08133106  0.22837331  1
  P  P241  1  0.20762206  0.08158639  0.47834059  1
  P  P242  1  0.20841851  0.08340102  0.72630859  1
  P  P243  1  0.20799343  0.08402455  0.97769105  1
  P  P244  1  0.20695443  0.41629310  0.22865943  1
  P  P245  1  0.20783825  0.41498259  0.47855712  1
  P  P246  1  0.20859048  0.41664295  0.72620688  1
  P  P247  1  0.20679790  0.41668907  0.97760619  1
  P  P248  1  0.20800457  0.75220593  0.22789635  1
  P  P249  1  0.20781168  0.75191588  0.47780595  1
  P  P250  1  0.20775706  0.75143228  0.72733670  1
  P  P251  1  0.20814298  0.74942938  0.97748671  1
  P  P252  1  0.70788946  0.08495023  0.22827090  1
  P  P253  1  0.70884713  0.08330572  0.47711901  1
  P  P254  1  0.70903896  0.08419087  0.72641767  1
  P  P255  1  0.70788635  0.08518486  0.97760250  1
  P  P256  1  0.70829248  0.41489407  0.22851251  1
  P  P257  1  0.70838612  0.41567502  0.47667943  1
  P  P258  1  0.70817681  0.41459249  0.72813544  1
  P  P259  1  0.70826816  0.41470843  0.97819445  1
  P  P260  1  0.70915551  0.75023010  0.22630200  1
  P  P261  1  0.70670114  0.75067484  0.47804080  1
  P  P262  1  0.70815759  0.75093795  0.72742216  1
  P  P263  1  0.70838439  0.74869415  0.97845064  1
  P  P264  1  0.29292669  0.24909997  0.02137462  1
  P  P265  1  0.29203150  0.25067716  0.27316013  1
  P  P266  1  0.29091327  0.24990077  0.52320336  1
  P  P267  1  0.29187372  0.24840778  0.77140944  1
  P  P268  1  0.29322502  0.58387581  0.02127116  1
  P  P269  1  0.29279153  0.58381971  0.27188368  1
  P  P270  1  0.29256425  0.58205894  0.52245082  1
  P  P271  1  0.29217701  0.58482780  0.77166020  1
  P  P272  1  0.29176219  0.91688646  0.02375469  1
  P  P273  1  0.29094512  0.91700407  0.27308984  1
  P  P274  1  0.29116526  0.91680137  0.52272929  1
  P  P275  1  0.29301243  0.91712359  0.77073795  1
  P  P276  1  0.79139554  0.24994755  0.02338788  1
  P  P277  1  0.79117352  0.24985788  0.27362453  1
  P  P278  1  0.79116484  0.25017176  0.52305565  1
  P  P279  1  0.79171860  0.24993022  0.77304028  1
  P  P280  1  0.79216812  0.58409357  0.02235616  1
  P  P281  1  0.79162026  0.58196665  0.27200708  1
  P  P282  1  0.79244346  0.58215912  0.52097911  1
  P  P283  1  0.79208489  0.58442520  0.77269228  1
  P  P284  1  0.79244294  0.91576358  0.02260491  1
  P  P285  1  0.79204913  0.91823287  0.27229269  1
  P  P286  1  0.79100880  0.91725388  0.52309134  1
  P  P287  1  0.79293697  0.91705600  0.77089831  1
  O  O288  1  0.03708551  0.25111082  0.18405032  1
  O  O289  1  0.03606545  0.24994440  0.43325806  1
  O  O290  1  0.03713186  0.24952782  0.68259916  1
  O  O291  1  0.03799044  0.25015832  0.93343691  1
  O  O292  1  0.03672381  0.58415044  0.18173270  1
  O  O293  1  0.03745091  0.58537188  0.43229624  1
  O  O294  1  0.03654918  0.58439173  0.68259261  1
  O  O295  1  0.03644233  0.58316418  0.93186449  1
  O  O296  1  0.03635037  0.91652762  0.18303307  1
  O  O297  1  0.03572275  0.91589938  0.43313294  1
  O  O298  1  0.03748285  0.91690195  0.68228721  1
  O  O299  1  0.03776163  0.91675739  0.93374748  1
  O  O300  1  0.53645610  0.25143808  0.18272227  1
  O  O301  1  0.53664162  0.24971260  0.43213003  1
  O  O302  1  0.53745497  0.24889095  0.68211728  1
  O  O303  1  0.53667629  0.25105829  0.93274038  1
  O  O304  1  0.53718314  0.58300248  0.18442945  1
  O  O305  1  0.53696137  0.58331994  0.43099758  1
  O  O306  1  0.53849071  0.58285411  0.68312107  1
  O  O307  1  0.53851725  0.58258684  0.93355673  1
  O  O308  1  0.53657775  0.91849069  0.18327762  1
  O  O309  1  0.53716663  0.91753888  0.43083168  1
  O  O310  1  0.53825633  0.91588266  0.68272398  1
  O  O311  1  0.53762504  0.91657399  0.93242041  1
  O  O312  1  0.46275235  0.08181477  0.06684370  1
  O  O313  1  0.46234818  0.08424976  0.31681670  1
  O  O314  1  0.46280029  0.08456582  0.56608301  1
  O  O315  1  0.46303257  0.08194162  0.81754955  1
  O  O316  1  0.46358226  0.41574432  0.06840010  1
  O  O317  1  0.46263563  0.41709393  0.31588857  1
  O  O318  1  0.46282912  0.41510252  0.56758862  1
  O  O319  1  0.46326029  0.41447893  0.81746636  1
  O  O320  1  0.46343599  0.75064467  0.06862421  1
  O  O321  1  0.46310833  0.75032264  0.31540014  1
  O  O322  1  0.46284347  0.75106341  0.56753923  1
  O  O323  1  0.46304308  0.75081533  0.81684720  1
  O  O324  1  0.96181811  0.08228752  0.06712269  1
  O  O325  1  0.96245736  0.08359943  0.31906738  1
  O  O326  1  0.96295081  0.08361930  0.56598710  1
  O  O327  1  0.96271683  0.08230201  0.81821296  1
  O  O328  1  0.96272368  0.41662391  0.06775279  1
  O  O329  1  0.96253279  0.41614044  0.31648773  1
  O  O330  1  0.96233677  0.41821811  0.56776451  1
  O  O331  1  0.96328989  0.41926617  0.81739193  1
  O  O332  1  0.96391745  0.74957137  0.06823268  1
  O  O333  1  0.96317938  0.74909666  0.31686326  1
  O  O334  1  0.96257304  0.74849996  0.56748332  1
  O  O335  1  0.96295191  0.74791622  0.81752941  1
  O  O336  1  0.21315132  0.08302001  0.05764063  1
  O  O337  1  0.21272135  0.08122034  0.30831931  1
  O  O338  1  0.21295467  0.08171522  0.55819952  1
  O  O339  1  0.21350279  0.08425269  0.80625838  1
  O  O340  1  0.21180089  0.41680301  0.05756486  1
  O  O341  1  0.21210748  0.41576638  0.30864790  1
  O  O342  1  0.21357128  0.41538867  0.55841370  1
  O  O343  1  0.21326871  0.41700941  0.80619443  1
  O  O344  1  0.21316851  0.74998773  0.05743202  1
  O  O345  1  0.21301549  0.75223254  0.30783932  1
  O  O346  1  0.21310030  0.75196376  0.55771810  1
  O  O347  1  0.21331452  0.75056005  0.80724222  1
  O  O348  1  0.71309913  0.08521309  0.05753981  1
  O  O349  1  0.71336849  0.08417793  0.30809291  1
  O  O350  1  0.71382638  0.08336472  0.55698184  1
  O  O351  1  0.71365885  0.08448963  0.80636013  1
  O  O352  1  0.71362581  0.41455649  0.05812209  1
  O  O353  1  0.71390330  0.41550196  0.30836713  1
  O  O354  1  0.71347659  0.41547199  0.55667806  1
  O  O355  1  0.71361197  0.41463143  0.80805006  1
  O  O356  1  0.71409382  0.74908325  0.05831552  1
  O  O357  1  0.71347115  0.75022048  0.30632383  1
  O  O358  1  0.71191009  0.75134668  0.55795532  1
  O  O359  1  0.71365383  0.75013351  0.80735200  1
  O  O360  1  0.28704654  0.25028906  0.19320257  1
  O  O361  1  0.28595846  0.25006344  0.44325273  1
  O  O362  1  0.28625179  0.24878646  0.69153902  1
  O  O363  1  0.28769228  0.24854918  0.94142812  1
  O  O364  1  0.28780732  0.58394954  0.19191535  1
  O  O365  1  0.28738435  0.58220486  0.44252294  1
  O  O366  1  0.28696768  0.58417338  0.69172337  1
  O  O367  1  0.28815578  0.58436436  0.94127186  1
  O  O368  1  0.28585401  0.91720990  0.19319566  1
  O  O369  1  0.28565801  0.91673134  0.44282975  1
  O  O370  1  0.28761042  0.91710530  0.69088760  1
  O  O371  1  0.28712996  0.91690019  0.94375453  1
  O  O372  1  0.78624656  0.24947092  0.19375555  1
  O  O373  1  0.78620472  0.25010553  0.44320597  1
  O  O374  1  0.78652359  0.25015516  0.69318482  1
  O  O375  1  0.78611253  0.25000078  0.94352010  1
  O  O376  1  0.78646381  0.58252546  0.19204251  1
  O  O377  1  0.78689290  0.58146394  0.44107333  1
  O  O378  1  0.78691664  0.58387477  0.69273448  1
  O  O379  1  0.78676880  0.58449478  0.94244997  1
  O  O380  1  0.78690962  0.91763390  0.19238423  1
  O  O381  1  0.78600457  0.91808884  0.44312077  1
  O  O382  1  0.78748806  0.91690237  0.69101293  1
  O  O383  1  0.78760575  0.91594959  0.94263782  1
  O  O384  1  0.22857963  0.24903467  0.05677662  1
  O  O385  1  0.22769569  0.25064495  0.30875314  1
  O  O386  1  0.22683365  0.25058686  0.55927874  1
  O  O387  1  0.22777070  0.24794842  0.80784657  1
  O  O388  1  0.22876012  0.58414470  0.05639975  1
  O  O389  1  0.22839745  0.58369983  0.30698844  1
  O  O390  1  0.22824917  0.58227066  0.55799097  1
  O  O391  1  0.22792814  0.58545682  0.80754178  1
  O  O392  1  0.22743264  0.91666607  0.05946298  1
  O  O393  1  0.22682194  0.91684695  0.30948049  1
  O  O394  1  0.22716855  0.91694304  0.55940994  1
  O  O395  1  0.22885491  0.91736950  0.80663105  1
  O  O396  1  0.72735351  0.25005533  0.06002617  1
  O  O397  1  0.72712758  0.25018318  0.30994366  1
  O  O398  1  0.72709914  0.25072050  0.55942823  1
  O  O399  1  0.72761081  0.24968952  0.80952851  1
  O  O400  1  0.72806592  0.58370778  0.05843870  1
  O  O401  1  0.72743038  0.58169333  0.30786129  1
  O  O402  1  0.72827187  0.58255055  0.55671509  1
  O  O403  1  0.72788941  0.58452249  0.80856876  1
  O  O404  1  0.72810188  0.91565470  0.05804794  1
  O  O405  1  0.72769605  0.91918991  0.30794777  1
  O  O406  1  0.72696675  0.91661299  0.55930067  1
  O  O407  1  0.72880102  0.91715573  0.80688730  1
  O  O408  1  0.27184641  0.08102185  0.19260998  1
  O  O409  1  0.27171605  0.08139971  0.44210356  1
  O  O410  1  0.27251305  0.08256938  0.69021106  1
  O  O411  1  0.27228082  0.08507233  0.94179177  1
  O  O412  1  0.27136579  0.41661391  0.19338784  1
  O  O413  1  0.27188401  0.41431828  0.44207587  1
  O  O414  1  0.27285978  0.41588535  0.69058393  1
  O  O415  1  0.27121847  0.41661477  0.94253350  1
  O  O416  1  0.27233184  0.75258541  0.19224960  1
  O  O417  1  0.27200167  0.75221724  0.44187825  1
  O  O418  1  0.27192203  0.75198220  0.69125507  1
  O  O419  1  0.27244059  0.74875284  0.94174503  1
  O  O420  1  0.77193903  0.08528136  0.19184648  1
  O  O421  1  0.77293075  0.08269053  0.44082267  1
  O  O422  1  0.77312414  0.08405425  0.69046672  1
  O  O423  1  0.77215879  0.08572166  0.94176337  1
  O  O424  1  0.77230134  0.41451985  0.19199442  1
  O  O425  1  0.77251960  0.41536332  0.44057620  1
  O  O426  1  0.77234926  0.41421431  0.69206335  1
  O  O427  1  0.77239072  0.41497846  0.94213111  1
  O  O428  1  0.77343127  0.75030686  0.19075157  1
  O  O429  1  0.77108358  0.75034157  0.44280871  1
  O  O430  1  0.77223931  0.75159285  0.69115941  1
  O  O431  1  0.77243805  0.74817922  0.94194626  1
  O  O432  1  0.02073555  0.08294782  0.18244252  1
  O  O433  1  0.02242437  0.08352214  0.43441753  1
  O  O434  1  0.02184955  0.08349861  0.68155909  1
  O  O435  1  0.02180551  0.08127449  0.93370545  1
  O  O436  1  0.02184074  0.41572876  0.18338979  1
  O  O437  1  0.02130785  0.41696706  0.43187638  1
  O  O438  1  0.02200075  0.41911723  0.68288054  1
  O  O439  1  0.02209048  0.41913656  0.93318589  1
  O  O440  1  0.02301739  0.74987166  0.18427594  1
  O  O441  1  0.02152664  0.74852253  0.43303199  1
  O  O442  1  0.02200747  0.74790428  0.68299165  1
  O  O443  1  0.02214103  0.74817277  0.93300146  1
  O  O444  1  0.52157469  0.08250848  0.18252953  1
  O  O445  1  0.52194447  0.08554112  0.43211351  1
  O  O446  1  0.52192334  0.08333995  0.68131603  1
  O  O447  1  0.52210715  0.08162577  0.93309845  1
  O  O448  1  0.52255163  0.41611138  0.18444607  1
  O  O449  1  0.52167653  0.41639272  0.43129402  1
  O  O450  1  0.52240007  0.41419855  0.68282107  1
  O  O451  1  0.52214150  0.41431737  0.93321695  1
  O  O452  1  0.52324682  0.74976876  0.18405203  1
  O  O453  1  0.52182492  0.75008698  0.43096311  1
  O  O454  1  0.52224102  0.75166760  0.68300313  1
  O  O455  1  0.52192106  0.75051190  0.93223463  1
  O  O456  1  0.47787191  0.25120286  0.06683558  1
  O  O457  1  0.47755631  0.25134285  0.31664981  1
  O  O458  1  0.47794532  0.24787664  0.56673940  1
  O  O459  1  0.47788066  0.25110943  0.81694776  1
  O  O460  1  0.47870243  0.58279732  0.06857791  1
  O  O461  1  0.47769390  0.58391697  0.31517218  1
  O  O462  1  0.47871529  0.58314565  0.56841925  1
  O  O463  1  0.47924009  0.58261526  0.81848965  1
  O  O464  1  0.47793815  0.91899497  0.06724632  1
  O  O465  1  0.47698675  0.91791243  0.31577733  1
  O  O466  1  0.47877424  0.91726926  0.56770856  1
  O  O467  1  0.47866213  0.91486822  0.81674909  1
  O  O468  1  0.97837213  0.25038869  0.06860738  1
  O  O469  1  0.97717426  0.25130740  0.31757455  1
  O  O470  1  0.97737592  0.24884229  0.56753739  1
  O  O471  1  0.97843563  0.25062637  0.81867100  1
  O  O472  1  0.97753986  0.58358827  0.06571596  1
  O  O473  1  0.97838162  0.58510190  0.31668994  1
  O  O474  1  0.97792245  0.58556318  0.56656032  1
  O  O475  1  0.97749008  0.58338656  0.81568580  1
  O  O476  1  0.97773585  0.91749644  0.06705036  1
  O  O477  1  0.97699345  0.91468479  0.31738685  1
  O  O478  1  0.97738538  0.91729003  0.56730363  1
  O  O479  1  0.97885250  0.91581546  0.81843720  1
  O  O480  1  0.07408398  0.31357771  0.07546525  1
  O  O481  1  0.07215818  0.31447344  0.32512116  1
  O  O482  1  0.07253210  0.31316394  0.57491309  1
  O  O483  1  0.07404240  0.31369209  0.82526832  1
  O  O484  1  0.07258057  0.64735593  0.07324698  1
  O  O485  1  0.07358220  0.64839652  0.32340110  1
  O  O486  1  0.07323311  0.64835894  0.57425251  1
  O  O487  1  0.07241852  0.64713482  0.82359603  1
  O  O488  1  0.07253691  0.98093351  0.07487972  1
  O  O489  1  0.07209811  0.97907592  0.32527714  1
  O  O490  1  0.07231190  0.98077875  0.57349929  1
  O  O491  1  0.07419221  0.97965424  0.82519095  1
  O  O492  1  0.57297861  0.31467152  0.07424181  1
  O  O493  1  0.57270337  0.31439173  0.32426446  1
  O  O494  1  0.57313797  0.31211958  0.57386991  1
  O  O495  1  0.57313871  0.31399398  0.82371589  1
  O  O496  1  0.57384307  0.64660605  0.07629764  1
  O  O497  1  0.57319561  0.64679257  0.32299761  1
  O  O498  1  0.57404081  0.64667794  0.57483492  1
  O  O499  1  0.57466167  0.64601943  0.82534923  1
  O  O500  1  0.57340909  0.98159403  0.07443267  1
  O  O501  1  0.57211825  0.98163450  0.32282406  1
  O  O502  1  0.57433748  0.98009451  0.57475278  1
  O  O503  1  0.57390480  0.97917176  0.82402758  1
  O  O504  1  0.42651698  0.01906124  0.17612809  1
  O  O505  1  0.42685842  0.02110009  0.42517436  1
  O  O506  1  0.42660189  0.01995325  0.67363409  1
  O  O507  1  0.42709274  0.01809488  0.92579687  1
  O  O508  1  0.42726427  0.35275772  0.17679674  1
  O  O509  1  0.42590392  0.35374019  0.42426213  1
  O  O510  1  0.42725966  0.35100441  0.67577347  1
  O  O511  1  0.42660466  0.35152663  0.92616104  1
  O  O512  1  0.42757343  0.68707963  0.17662210  1
  O  O513  1  0.42628324  0.68706000  0.42397388  1
  O  O514  1  0.42702902  0.68762309  0.67541351  1
  O  O515  1  0.42694257  0.68650496  0.92473984  1
  O  O516  1  0.92510704  0.01976100  0.17569661  1
  O  O517  1  0.92768264  0.01946154  0.42717958  1
  O  O518  1  0.92664838  0.01977910  0.67416982  1
  O  O519  1  0.92655601  0.01825115  0.92628262  1
  O  O520  1  0.92700932  0.35237044  0.17630479  1
  O  O521  1  0.92563836  0.35388049  0.42527514  1
  O  O522  1  0.92705820  0.35464655  0.67584611  1
  O  O523  1  0.92698655  0.35511543  0.92486694  1
  O  O524  1  0.92795179  0.68609935  0.17634824  1
  O  O525  1  0.92667341  0.68493490  0.42521289  1
  O  O526  1  0.92639999  0.68538019  0.67627344  1
  O  O527  1  0.92703737  0.68479263  0.92652822  1
  O  O528  1  0.17633669  0.01831938  0.19943976  1
  O  O529  1  0.17651175  0.01837920  0.44961100  1
  O  O530  1  0.17711720  0.01979059  0.69877666  1
  O  O531  1  0.17744698  0.02033911  0.94921765  1
  O  O532  1  0.17586701  0.35306852  0.20012817  1
  O  O533  1  0.17657761  0.35170581  0.45005991  1
  O  O534  1  0.17714214  0.35324608  0.69852976  1
  O  O535  1  0.17579091  0.35319885  0.94961283  1
  O  O536  1  0.17735870  0.68833484  0.20001611  1
  O  O537  1  0.17718891  0.68787786  0.45021273  1
  O  O538  1  0.17663455  0.68808954  0.69900608  1
  O  O539  1  0.17732543  0.68598189  0.94887662  1
  O  O540  1  0.67673322  0.02164971  0.19959953  1
  O  O541  1  0.67734568  0.02018224  0.44857021  1
  O  O542  1  0.67847243  0.02033597  0.69809419  1
  O  O543  1  0.67756224  0.02106503  0.94976623  1
  O  O544  1  0.67731304  0.35139129  0.20030754  1
  O  O545  1  0.67704185  0.35234768  0.44855283  1
  O  O546  1  0.67695802  0.35150570  0.69940709  1
  O  O547  1  0.67737010  0.35144251  0.94949611  1
  O  O548  1  0.67861437  0.68638935  0.19826401  1
  O  O549  1  0.67573754  0.68698228  0.45024654  1
  O  O550  1  0.67701062  0.68746480  0.69940504  1
  O  O551  1  0.67717644  0.68539247  0.94996568  1
  O  O552  1  0.32363865  0.31294984  0.04919786  1
  O  O553  1  0.32259729  0.31418152  0.30160679  1
  O  O554  1  0.32276965  0.31275408  0.55158680  1
  O  O555  1  0.32276906  0.31213031  0.79942373  1
  O  O556  1  0.32477105  0.64682965  0.04994911  1
  O  O557  1  0.32360463  0.64742503  0.29992131  1
  O  O558  1  0.32389287  0.64566973  0.54983823  1
  O  O559  1  0.32295098  0.64844374  0.79990502  1
  O  O560  1  0.32224272  0.98063467  0.05196917  1
  O  O561  1  0.32179018  0.98047371  0.30186832  1
  O  O562  1  0.32231228  0.98033033  0.55079698  1
  O  O563  1  0.32435025  0.98042339  0.79911240  1
  O  O564  1  0.82246502  0.31343844  0.05183200  1
  O  O565  1  0.82245746  0.31321237  0.30181570  1
  O  O566  1  0.82259507  0.31337934  0.55145606  1
  O  O567  1  0.82255449  0.31344221  0.80178584  1
  O  O568  1  0.82287062  0.64736733  0.05151688  1
  O  O569  1  0.82280645  0.64546040  0.29994560  1
  O  O570  1  0.82355371  0.64590924  0.54841887  1
  O  O571  1  0.82272651  0.64809934  0.80070343  1
  O  O572  1  0.82333885  0.97942268  0.05035497  1
  O  O573  1  0.82322450  0.98150819  0.30075241  1
  O  O574  1  0.82146901  0.98094888  0.55180587  1
  O  O575  1  0.82408689  0.98052628  0.79916693  1
  O  O576  1  0.42614959  0.14604091  0.17402677  1
  O  O577  1  0.42651594  0.14827627  0.42525108  1
  O  O578  1  0.42628890  0.14668086  0.67505785  1
  O  O579  1  0.42677721  0.14540422  0.92516109  1
  O  O580  1  0.42786897  0.48021445  0.17614595  1
  O  O581  1  0.42652020  0.48045640  0.42451431  1
  O  O582  1  0.42716367  0.47833375  0.67570909  1
  O  O583  1  0.42719125  0.47865185  0.92512107  1
  O  O584  1  0.42892083  0.81464775  0.17684498  1
  O  O585  1  0.42648738  0.81385090  0.42357944  1
  O  O586  1  0.42719947  0.81503231  0.67587506  1
  O  O587  1  0.42605655  0.81337830  0.92536002  1
  O  O588  1  0.92550492  0.14656693  0.17495653  1
  O  O589  1  0.92727105  0.14714299  0.42730981  1
  O  O590  1  0.92620648  0.14654235  0.67470340  1
  O  O591  1  0.92668417  0.14566481  0.92597753  1
  O  O592  1  0.92640052  0.47960402  0.17564789  1
  O  O593  1  0.92619501  0.48073406  0.42387166  1
  O  O594  1  0.92647598  0.48194088  0.67605445  1
  O  O595  1  0.92681828  0.48221809  0.92624902  1
  O  O596  1  0.92818079  0.81350991  0.17643948  1
  O  O597  1  0.92586365  0.81178659  0.42506458  1
  O  O598  1  0.92725857  0.81252825  0.67537584  1
  O  O599  1  0.92676812  0.81179897  0.92523546  1
  O  O600  1  0.07361766  0.18668387  0.07654342  1
  O  O601  1  0.07262790  0.18723935  0.32519996  1
  O  O602  1  0.07275128  0.18591125  0.57388611  1
  O  O603  1  0.07372314  0.18659998  0.82524567  1
  O  O604  1  0.07235054  0.51993671  0.07373052  1
  O  O605  1  0.07363399  0.52132400  0.32479142  1
  O  O606  1  0.07304676  0.52139499  0.57429869  1
  O  O607  1  0.07270928  0.52006254  0.82303700  1
  O  O608  1  0.07320567  0.85379498  0.07506135  1
  O  O609  1  0.07223025  0.85196727  0.32480668  1
  O  O610  1  0.07284265  0.85355176  0.57436041  1
  O  O611  1  0.07433889  0.85272348  0.82590531  1
  O  O612  1  0.57304547  0.18752508  0.07526882  1
  O  O613  1  0.57290484  0.18732658  0.32367033  1
  O  O614  1  0.57326040  0.18508624  0.57336783  1
  O  O615  1  0.57296251  0.18689647  0.82539631  1
  O  O616  1  0.57430191  0.51974284  0.07626730  1
  O  O617  1  0.57214208  0.51925160  0.32292452  1
  O  O618  1  0.57422252  0.51954570  0.57473723  1
  O  O619  1  0.57466104  0.51898709  0.82560209  1
  O  O620  1  0.57293381  0.85462889  0.07550744  1
  O  O621  1  0.57199575  0.85409697  0.32218871  1
  O  O622  1  0.57407079  0.85326731  0.57384636  1
  O  O623  1  0.57388125  0.85199115  0.82441807  1
  O  O624  1  0.32438853  0.18611272  0.05023861  1
  O  O625  1  0.32308532  0.18688621  0.30079324  1
  O  O626  1  0.32084437  0.18543119  0.55116290  1
  O  O627  1  0.32303705  0.18503692  0.79991400  1
  O  O628  1  0.32386878  0.51997589  0.04929436  1
  O  O629  1  0.32396150  0.52036846  0.29987527  1
  O  O630  1  0.32305868  0.51834889  0.55105717  1
  O  O631  1  0.32326922  0.52119371  0.79965623  1
  O  O632  1  0.32249249  0.85310941  0.05195201  1
  O  O633  1  0.32194832  0.85340280  0.30147562  1
  O  O634  1  0.32211303  0.85310185  0.55096733  1
  O  O635  1  0.32413263  0.85379585  0.79944096  1
  O  O636  1  0.82227408  0.18633057  0.05192018  1
  O  O637  1  0.82176399  0.18617532  0.30268622  1
  O  O638  1  0.82145454  0.18619395  0.55169247  1
  O  O639  1  0.82272443  0.18633111  0.80149968  1
  O  O640  1  0.82350076  0.52029439  0.04955204  1
  O  O641  1  0.82235889  0.51818777  0.30012840  1
  O  O642  1  0.82376909  0.51902760  0.54970158  1
  O  O643  1  0.82314228  0.52076876  0.80060949  1
  O  O644  1  0.82318845  0.85213549  0.05102132  1
  O  O645  1  0.82266632  0.85443780  0.30058916  1
  O  O646  1  0.82219868  0.85346373  0.55056409  1
  O  O647  1  0.82430522  0.85378994  0.79946384  1
  O  O648  1  0.17688002  0.14539851  0.20079585  1
  O  O649  1  0.17659818  0.14533031  0.45036321  1
  O  O650  1  0.17791793  0.14706877  0.69729873  1
  O  O651  1  0.17680975  0.14744437  0.94949060  1
  O  O652  1  0.17595539  0.48004722  0.20072868  1
  O  O653  1  0.17682956  0.47875415  0.45056445  1
  O  O654  1  0.17857989  0.48081781  0.69779039  1
  O  O655  1  0.17580934  0.48018709  0.94932445  1
  O  O656  1  0.17688509  0.81539014  0.19903466  1
  O  O657  1  0.17651148  0.81505253  0.44916972  1
  O  O658  1  0.17682601  0.81516371  0.69945361  1
  O  O659  1  0.17720834  0.81315968  0.94955536  1
  O  O660  1  0.67680237  0.14850512  0.20004829  1
  O  O661  1  0.67860218  0.14736843  0.44853717  1
  O  O662  1  0.67791395  0.14760176  0.69780461  1
  O  O663  1  0.67648930  0.14821632  0.94887169  1
  O  O664  1  0.67707935  0.47831432  0.20010900  1
  O  O665  1  0.67800703  0.47970902  0.44841580  1
  O  O666  1  0.67741147  0.47857571  0.70044715  1
  O  O667  1  0.67709752  0.47855068  0.95071789  1
  O  O668  1  0.67844824  0.81408902  0.19824533  1
  O  O669  1  0.67553418  0.81384013  0.44909459  1
  O  O670  1  0.67724576  0.81467432  0.69948415  1
  O  O671  1  0.67731116  0.81240215  0.95036578  1
