# generated using pymatgen
data_Na2MnFe(PO4)2
_symmetry_space_group_name_H-M   'P 1'
_cell_length_a   22.34753035
_cell_length_b   20.09579600
_cell_length_c   19.44672847
_cell_angle_alpha   90.03692312
_cell_angle_beta   90.00089167
_cell_angle_gamma   90.04036562
_symmetry_Int_Tables_number   1
_chemical_formula_structural   Na2MnFe(PO4)2
_chemical_formula_sum   'Na96 Mn48 Fe48 P96 O384'
_cell_volume   8733.35474463
_cell_formula_units_Z   48
loop_
 _symmetry_equiv_pos_site_id
 _symmetry_equiv_pos_as_xyz
  1  'x, y, z'
loop_
 _atom_site_type_symbol
 _atom_site_label
 _atom_site_symmetry_multiplicity
 _atom_site_fract_x
 _atom_site_fract_y
 _atom_site_fract_z
 _atom_site_occupancy
  Na  Na0  1  0.13997499  0.25040062  0.24465398  1
  Na  Na1  1  0.13989904  0.24981707  0.49315154  1
  Na  Na2  1  0.14054625  0.25125202  0.74395668  1
  Na  Na3  1  0.14144402  0.25057479  0.99397247  1
  Na  Na4  1  0.13970630  0.58263912  0.24336532  1
  Na  Na5  1  0.14003877  0.58225940  0.49298374  1
  Na  Na6  1  0.13971940  0.58272520  0.74412849  1
  Na  Na7  1  0.13992332  0.58237876  0.99421454  1
  Na  Na8  1  0.14019434  0.91601324  0.24309721  1
  Na  Na9  1  0.13995866  0.91647972  0.49214145  1
  Na  Na10  1  0.14015454  0.91795388  0.74344661  1
  Na  Na11  1  0.13999014  0.91745738  0.99262233  1
  Na  Na12  1  0.64082645  0.24872645  0.24295501  1
  Na  Na13  1  0.64037547  0.24968603  0.49430010  1
  Na  Na14  1  0.64070376  0.24933268  0.74515497  1
  Na  Na15  1  0.64107711  0.24813552  0.99361103  1
  Na  Na16  1  0.64024845  0.58386524  0.24363123  1
  Na  Na17  1  0.64023013  0.58260820  0.49375496  1
  Na  Na18  1  0.64051328  0.58300070  0.74471450  1
  Na  Na19  1  0.64075956  0.58293411  0.99460863  1
  Na  Na20  1  0.64079660  0.91714942  0.24258407  1
  Na  Na21  1  0.64041760  0.91710061  0.49333380  1
  Na  Na22  1  0.64022012  0.91675651  0.74507306  1
  Na  Na23  1  0.64044884  0.91779020  0.99286574  1
  Na  Na24  1  0.36011244  0.08453364  0.00655275  1
  Na  Na25  1  0.36026765  0.08480496  0.25568419  1
  Na  Na26  1  0.35974116  0.08406274  0.50496451  1
  Na  Na27  1  0.35895880  0.08513071  0.75725975  1
  Na  Na28  1  0.35939628  0.41669198  0.00643934  1
  Na  Na29  1  0.35923109  0.41605416  0.25626915  1
  Na  Na30  1  0.35918192  0.41540459  0.50611953  1
  Na  Na31  1  0.35884271  0.41637622  0.75648539  1
  Na  Na32  1  0.35922977  0.75040668  0.00629511  1
  Na  Na33  1  0.35988502  0.74925101  0.25557399  1
  Na  Na34  1  0.35946674  0.74926016  0.50592016  1
  Na  Na35  1  0.35898065  0.75036255  0.75622101  1
  Na  Na36  1  0.86014679  0.08276528  0.00562825  1
  Na  Na37  1  0.86010031  0.08290530  0.25525026  1
  Na  Na38  1  0.85999289  0.08364529  0.50620572  1
  Na  Na39  1  0.85950943  0.08264057  0.75644017  1
  Na  Na40  1  0.85980004  0.41668813  0.00743424  1
  Na  Na41  1  0.85978986  0.41687665  0.25708645  1
  Na  Na42  1  0.85961874  0.41649494  0.50605358  1
  Na  Na43  1  0.85974637  0.41695278  0.75666545  1
  Na  Na44  1  0.85965617  0.75081628  0.00752985  1
  Na  Na45  1  0.86053344  0.74976463  0.25668643  1
  Na  Na46  1  0.86022024  0.74967357  0.50665577  1
  Na  Na47  1  0.85970819  0.75129702  0.75645017  1
  Na  Na48  1  0.10999550  0.08319376  0.11789271  1
  Na  Na49  1  0.10939439  0.08390818  0.36851532  1
  Na  Na50  1  0.10936275  0.08453280  0.61744673  1
  Na  Na51  1  0.11050999  0.08235685  0.86770964  1
  Na  Na52  1  0.10973529  0.41618931  0.11937725  1
  Na  Na53  1  0.10903202  0.41646812  0.36835309  1
  Na  Na54  1  0.10945278  0.41770635  0.61854142  1
  Na  Na55  1  0.11000849  0.41750529  0.86898349  1
  Na  Na56  1  0.10948215  0.74907934  0.11888669  1
  Na  Na57  1  0.10928039  0.74871521  0.36846865  1
  Na  Na58  1  0.10885769  0.75117772  0.61806152  1
  Na  Na59  1  0.10895477  0.74972957  0.86927023  1
  Na  Na60  1  0.61030831  0.08228063  0.11777475  1
  Na  Na61  1  0.61016110  0.08372358  0.36768997  1
  Na  Na62  1  0.60984483  0.08263314  0.61979107  1
  Na  Na63  1  0.61063011  0.08292792  0.86932241  1
  Na  Na64  1  0.60970555  0.41582242  0.11858811  1
  Na  Na65  1  0.60903086  0.41735755  0.36867393  1
  Na  Na66  1  0.60965234  0.41665681  0.61937310  1
  Na  Na67  1  0.60987675  0.41570941  0.86965537  1
  Na  Na68  1  0.60992056  0.74931652  0.11859310  1
  Na  Na69  1  0.60986894  0.75073335  0.36881660  1
  Na  Na70  1  0.60934955  0.74949877  0.61884941  1
  Na  Na71  1  0.60965687  0.75068976  0.87014630  1
  Na  Na72  1  0.39003630  0.24838770  0.13180795  1
  Na  Na73  1  0.38985323  0.24982664  0.38069562  1
  Na  Na74  1  0.38974235  0.24971073  0.63145127  1
  Na  Na75  1  0.38979460  0.24936903  0.88273608  1
  Na  Na76  1  0.39033155  0.58333102  0.13074566  1
  Na  Na77  1  0.39020906  0.58486786  0.38136759  1
  Na  Na78  1  0.38982948  0.58245233  0.63055010  1
  Na  Na79  1  0.39000220  0.58331335  0.88147782  1
  Na  Na80  1  0.39081668  0.91696680  0.13016207  1
  Na  Na81  1  0.39082326  0.91738739  0.37978955  1
  Na  Na82  1  0.39031736  0.91719654  0.63067256  1
  Na  Na83  1  0.39012695  0.91813974  0.88198029  1
  Na  Na84  1  0.89061961  0.24961782  0.13137244  1
  Na  Na85  1  0.89035328  0.24929533  0.38163754  1
  Na  Na86  1  0.89069363  0.25094894  0.63081987  1
  Na  Na87  1  0.89016632  0.25007012  0.88247137  1
  Na  Na88  1  0.89042505  0.58303073  0.13335676  1
  Na  Na89  1  0.89029431  0.58386438  0.38100719  1
  Na  Na90  1  0.89033745  0.58470305  0.63123390  1
  Na  Na91  1  0.89046401  0.58381652  0.88211021  1
  Na  Na92  1  0.89059576  0.91574969  0.13034189  1
  Na  Na93  1  0.89130260  0.91593304  0.38198433  1
  Na  Na94  1  0.89029668  0.91739379  0.63064588  1
  Na  Na95  1  0.89015295  0.91633298  0.88150427  1
  Mn  Mn96  1  0.50000233  0.49965550  0.75024154  1
  Mn  Mn97  1  0.75047326  0.00071024  0.37409291  1
  Mn  Mn98  1  0.50026282  0.00063734  0.75092175  1
  Mn  Mn99  1  -0.00021141  -0.00071480  0.74888487  1
  Mn  Mn100  1  0.50016130  0.33240212  0.00025780  1
  Mn  Mn101  1  -0.00042823  0.16659650  0.24984312  1
  Mn  Mn102  1  0.24964883  0.83363975  0.62438987  1
  Mn  Mn103  1  0.00121619  0.16596756  0.00016192  1
  Mn  Mn104  1  0.00030808  0.33424807  0.00063426  1
  Mn  Mn105  1  0.24993712  0.49972228  0.12529475  1
  Mn  Mn106  1  0.25004164  0.83303094  0.12400993  1
  Mn  Mn107  1  0.24916837  0.66515195  0.62570766  1
  Mn  Mn108  1  -0.00015526  0.66606224  0.00028327  1
  Mn  Mn109  1  0.49912713  0.33229374  0.75022837  1
  Mn  Mn110  1  0.00014043  0.33478227  0.75039424  1
  Mn  Mn111  1  0.50047417  0.83386171  0.24913127  1
  Mn  Mn112  1  -0.00049352  0.50085288  0.49947949  1
  Mn  Mn113  1  -0.00018175  0.16690565  0.74955430  1
  Mn  Mn114  1  0.24904755  0.83442273  0.87506318  1
  Mn  Mn115  1  0.74946039  0.33256759  0.37486536  1
  Mn  Mn116  1  0.25016039  0.00144216  0.12440361  1
  Mn  Mn117  1  0.24948874  0.33308838  0.62537507  1
  Mn  Mn118  1  0.49949557  -0.00017054  0.49960840  1
  Mn  Mn119  1  0.25048864  0.83218343  0.37369544  1
  Mn  Mn120  1  0.24989996  0.00168471  0.62382730  1
  Mn  Mn121  1  0.25011228  0.00096619  0.37389199  1
  Mn  Mn122  1  0.74939984  0.66607194  0.62628947  1
  Mn  Mn123  1  0.75057640  0.16600974  0.62539409  1
  Mn  Mn124  1  0.49946534  0.83369578  0.75009227  1
  Mn  Mn125  1  0.00018047  -0.00125943  0.24991971  1
  Mn  Mn126  1  0.74950142  0.50043916  0.37530310  1
  Mn  Mn127  1  0.49919956  0.50070659  0.24972805  1
  Mn  Mn128  1  0.24927483  0.66608141  0.87465805  1
  Mn  Mn129  1  0.75040664  0.33353439  0.62505545  1
  Mn  Mn130  1  0.75073601  0.66717931  0.87549514  1
  Mn  Mn131  1  0.49989128  0.66724104  0.49991127  1
  Mn  Mn132  1  0.49989903  0.66639876  -0.00025368  1
  Mn  Mn133  1  0.75088351  0.49936933  0.87588822  1
  Mn  Mn134  1  0.50004558  0.16659495  0.49982665  1
  Mn  Mn135  1  0.24987916  0.49917026  0.37441748  1
  Mn  Mn136  1  0.50068276  0.33372947  0.50034280  1
  Mn  Mn137  1  0.75066437  0.33248823  0.12558854  1
  Mn  Mn138  1  -0.00049830  0.66766934  0.75048440  1
  Mn  Mn139  1  0.75096214  0.83267991  0.37453193  1
  Mn  Mn140  1  0.74938705  0.83394556  0.62540278  1
  Mn  Mn141  1  0.49963220  0.66672996  0.75016351  1
  Mn  Mn142  1  0.75007098  0.83371983  0.12532059  1
  Mn  Mn143  1  0.49946109  0.33267042  0.24946224  1
  Fe  Fe144  1  0.74979273  0.83389209  0.87575008  1
  Fe  Fe145  1  0.74981581  -0.00014623  0.62541705  1
  Fe  Fe146  1  -0.00017605  0.83283435  0.00020626  1
  Fe  Fe147  1  0.75031682  -0.00000867  0.87513667  1
  Fe  Fe148  1  0.00008511  0.33335487  0.25033212  1
  Fe  Fe149  1  0.25027428  0.49974690  0.87535573  1
  Fe  Fe150  1  0.24980309  0.66631968  0.12446720  1
  Fe  Fe151  1  0.50015920  0.66718205  0.24992129  1
  Fe  Fe152  1  0.24965616  0.49907132  0.62472157  1
  Fe  Fe153  1  0.00035712  0.66716778  0.49960804  1
  Fe  Fe154  1  0.00070041  0.83281082  0.25025211  1
  Fe  Fe155  1  0.50017112  0.49974586  0.00033087  1
  Fe  Fe156  1  0.49988046  0.16623040  0.75074396  1
  Fe  Fe157  1  0.49973059  0.83323899  0.00032898  1
  Fe  Fe158  1  0.50034112  0.00026104  0.00028243  1
  Fe  Fe159  1  0.25012766  0.33294382  0.12520827  1
  Fe  Fe160  1  0.75016976  0.66629430  0.37556303  1
  Fe  Fe161  1  0.00023887  -0.00020612  0.49967515  1
  Fe  Fe162  1  0.25012349  0.00153326  0.87445468  1
  Fe  Fe163  1  0.24992220  0.16763988  0.87547461  1
  Fe  Fe164  1  0.50091660  0.16615680  0.24974373  1
  Fe  Fe165  1  0.75026001  0.16607828  0.37463709  1
  Fe  Fe166  1  0.00048039  -0.00115422  -0.00052573  1
  Fe  Fe167  1  0.24966428  0.33246025  0.37540025  1
  Fe  Fe168  1  -0.00029467  0.50111603  0.74966453  1
  Fe  Fe169  1  0.50003107  0.83384845  0.49922082  1
  Fe  Fe170  1  0.75092131  0.00043361  0.12399762  1
  Fe  Fe171  1  0.75082631  0.16595241  0.12356545  1
  Fe  Fe172  1  0.24964912  0.66550522  0.37496418  1
  Fe  Fe173  1  0.75009453  0.66699715  0.12522817  1
  Fe  Fe174  1  0.50047863  0.16593637  0.00088617  1
  Fe  Fe175  1  -0.00051502  0.33411322  0.49964789  1
  Fe  Fe176  1  -0.00009183  0.16720364  0.49942475  1
  Fe  Fe177  1  0.24960255  0.16722196  0.37453292  1
  Fe  Fe178  1  -0.00002497  0.83411785  0.74930508  1
  Fe  Fe179  1  0.49926710  0.50036319  0.49976745  1
  Fe  Fe180  1  0.24963407  0.16764697  0.12495132  1
  Fe  Fe181  1  -0.00015985  0.83315024  0.49976737  1
  Fe  Fe182  1  0.75015549  0.33303999  0.87572469  1
  Fe  Fe183  1  0.75005065  0.49963881  0.62538151  1
  Fe  Fe184  1  -0.00031838  0.49951224  0.25080823  1
  Fe  Fe185  1  0.24968270  0.16742836  0.62544142  1
  Fe  Fe186  1  0.24993358  0.33346301  0.87535675  1
  Fe  Fe187  1  0.00000603  0.66658705  0.25020048  1
  Fe  Fe188  1  0.50092436  0.00007897  0.24935315  1
  Fe  Fe189  1  -0.00039824  0.49981021  0.00115333  1
  Fe  Fe190  1  0.75072587  0.16610034  0.87478863  1
  Fe  Fe191  1  0.74986440  0.49990051  0.12556354  1
  P  P192  1  0.04301379  0.25043131  0.10378550  1
  P  P193  1  0.04132834  0.25119931  0.35318610  1
  P  P194  1  0.04099103  0.25113719  0.60110347  1
  P  P195  1  0.04265737  0.25036192  0.85311662  1
  P  P196  1  0.04166400  0.58166121  0.10383032  1
  P  P197  1  0.04117019  0.58335943  0.35177534  1
  P  P198  1  0.04193311  0.58530160  0.60233445  1
  P  P199  1  0.04173386  0.58237147  0.85298751  1
  P  P200  1  0.04191119  0.91566125  0.10168502  1
  P  P201  1  0.04254748  0.91486822  0.35321355  1
  P  P202  1  0.04163019  0.91656562  0.60107760  1
  P  P203  1  0.04185487  0.91524513  0.85272528  1
  P  P204  1  0.54252536  0.24776213  0.10313590  1
  P  P205  1  0.54251445  0.24909088  0.35204195  1
  P  P206  1  0.54280234  0.24933681  0.60390756  1
  P  P207  1  0.54195674  0.24806531  0.85345394  1
  P  P208  1  0.54230993  0.58233501  0.10276368  1
  P  P209  1  0.54191402  0.58494619  0.35260106  1
  P  P210  1  0.54219981  0.58208544  0.60228352  1
  P  P211  1  0.54281223  0.58310699  0.85389803  1
  P  P212  1  0.54163410  0.91671286  0.10156192  1
  P  P213  1  0.54292243  0.91787362  0.35202076  1
  P  P214  1  0.54239770  0.91580040  0.60218545  1
  P  P215  1  0.54234637  0.91675457  0.85449965  1
  P  P216  1  0.45931034  0.08288873  0.14764689  1
  P  P217  1  0.45770126  0.08346847  0.39543741  1
  P  P218  1  0.45714131  0.08428571  0.64811183  1
  P  P219  1  0.45904922  0.08391733  0.89875673  1
  P  P220  1  0.45704715  0.41654144  0.14623034  1
  P  P221  1  0.45733948  0.41788199  0.39749829  1
  P  P222  1  0.45671346  0.41652328  0.64665134  1
  P  P223  1  0.45771514  0.41725323  0.89813694  1
  P  P224  1  0.45812627  0.74914384  0.14688356  1
  P  P225  1  0.45784829  0.75175202  0.39672022  1
  P  P226  1  0.45668931  0.75022277  0.64630787  1
  P  P227  1  0.45702295  0.75139955  0.89786817  1
  P  P228  1  0.95810208  0.08197444  0.14612654  1
  P  P229  1  0.95885443  0.08287208  0.39823052  1
  P  P230  1  0.95743977  0.08349209  0.64539960  1
  P  P231  1  0.95859150  0.08162758  0.89747749  1
  P  P232  1  0.95847212  0.41673200  0.14889228  1
  P  P233  1  0.95755248  0.41587377  0.39669405  1
  P  P234  1  0.95775821  0.41863290  0.64720033  1
  P  P235  1  0.95768728  0.41868481  0.89783073  1
  P  P236  1  0.95900820  0.75013538  0.14841125  1
  P  P237  1  0.95881148  0.74986363  0.39761889  1
  P  P238  1  0.95756160  0.75215168  0.64692312  1
  P  P239  1  0.95733002  0.75113809  0.89777749  1
  P  P240  1  0.20767747  0.08561966  0.22736815  1
  P  P241  1  0.20762168  0.08534855  0.47702516  1
  P  P242  1  0.20740954  0.08535944  0.72786669  1
  P  P243  1  0.20867523  0.08455715  0.97671411  1
  P  P244  1  0.20793988  0.41472693  0.22782529  1
  P  P245  1  0.20732548  0.41499070  0.47737008  1
  P  P246  1  0.20743152  0.41783579  0.72829046  1
  P  P247  1  0.20874479  0.41643433  0.97712047  1
  P  P248  1  0.20806374  0.74802082  0.22723563  1
  P  P249  1  0.20772171  0.74813946  0.47694648  1
  P  P250  1  0.20651204  0.75024663  0.72796618  1
  P  P251  1  0.20681544  0.74954127  0.97826279  1
  P  P252  1  0.70918846  0.08348976  0.22575422  1
  P  P253  1  0.70763705  0.08422629  0.47741025  1
  P  P254  1  0.70827668  0.08175040  0.72852993  1
  P  P255  1  0.70962605  0.08320400  0.97699721  1
  P  P256  1  0.70781651  0.41747082  0.22749730  1
  P  P257  1  0.70689525  0.41659096  0.47845989  1
  P  P258  1  0.70799351  0.41732826  0.72829156  1
  P  P259  1  0.70812430  0.41518494  0.97864040  1
  P  P260  1  0.70815212  0.74858300  0.22793251  1
  P  P261  1  0.70796377  0.74875499  0.47759689  1
  P  P262  1  0.70706781  0.75079451  0.72936619  1
  P  P263  1  0.70827118  0.75116280  0.97836576  1
  P  P264  1  0.29167690  0.25037216  0.02293425  1
  P  P265  1  0.29118859  0.25022595  0.27263971  1
  P  P266  1  0.29183038  0.24871556  0.52217622  1
  P  P267  1  0.29120389  0.25042026  0.77374725  1
  P  P268  1  0.29203312  0.58373367  0.02224963  1
  P  P269  1  0.29199077  0.58422499  0.27199977  1
  P  P270  1  0.29160369  0.58130471  0.52211564  1
  P  P271  1  0.29190848  0.58128227  0.77231296  1
  P  P272  1  0.29232712  0.91797798  0.02090322  1
  P  P273  1  0.29292950  0.91693443  0.27085490  1
  P  P274  1  0.29260096  0.91702962  0.52103008  1
  P  P275  1  0.29199710  0.91892219  0.77240093  1
  P  P276  1  0.79287582  0.24869399  0.02170947  1
  P  P277  1  0.79239654  0.24789842  0.27203489  1
  P  P278  1  0.79290649  0.24937536  0.52161129  1
  P  P279  1  0.79190805  0.25016689  0.77382853  1
  P  P280  1  0.79179458  0.58328825  0.02433350  1
  P  P281  1  0.79201392  0.58472133  0.27213318  1
  P  P282  1  0.79205646  0.58228784  0.52293559  1
  P  P283  1  0.79318135  0.58294060  0.77227397  1
  P  P284  1  0.79194890  0.91791555  0.02160978  1
  P  P285  1  0.79353534  0.91688246  0.27117267  1
  P  P286  1  0.79206329  0.91798335  0.52260753  1
  P  P287  1  0.79139963  0.91701081  0.77348709  1
  O  O288  1  0.03753455  0.25073851  0.18371891  1
  O  O289  1  0.03576534  0.25125371  0.43304873  1
  O  O290  1  0.03621122  0.25089267  0.68112214  1
  O  O291  1  0.03791523  0.25035673  0.93309886  1
  O  O292  1  0.03623192  0.58185650  0.18370210  1
  O  O293  1  0.03622236  0.58419657  0.43172612  1
  O  O294  1  0.03671271  0.58501203  0.68227213  1
  O  O295  1  0.03643431  0.58205714  0.93297098  1
  O  O296  1  0.03706764  0.91540195  0.18170441  1
  O  O297  1  0.03695649  0.91532272  0.43306535  1
  O  O298  1  0.03660479  0.91631857  0.68108459  1
  O  O299  1  0.03653739  0.91578002  0.93263690  1
  O  O300  1  0.53718086  0.24742394  0.18308555  1
  O  O301  1  0.53777133  0.24964475  0.43206211  1
  O  O302  1  0.53742091  0.24890588  0.68387977  1
  O  O303  1  0.53681808  0.24821693  0.93345622  1
  O  O304  1  0.53686849  0.58329463  0.18268687  1
  O  O305  1  0.53663844  0.58433791  0.43252792  1
  O  O306  1  0.53722870  0.58246772  0.68228676  1
  O  O307  1  0.53765267  0.58261712  0.93389088  1
  O  O308  1  0.53687081  0.91755563  0.18155397  1
  O  O309  1  0.53748329  0.91717344  0.43193277  1
  O  O310  1  0.53725886  0.91625962  0.68217296  1
  O  O311  1  0.53711600  0.91664990  0.93438987  1
  O  O312  1  0.46445386  0.08322907  0.06769954  1
  O  O313  1  0.46332395  0.08355611  0.31554019  1
  O  O314  1  0.46193362  0.08380446  0.56810768  1
  O  O315  1  0.46359605  0.08418291  0.81878139  1
  O  O316  1  0.46259794  0.41687464  0.06632447  1
  O  O317  1  0.46234260  0.41745999  0.31748485  1
  O  O318  1  0.46193278  0.41689010  0.56667020  1
  O  O319  1  0.46268725  0.41681177  0.81815793  1
  O  O320  1  0.46338139  0.74963669  0.06695438  1
  O  O321  1  0.46324508  0.75093181  0.31676433  1
  O  O322  1  0.46196680  0.75069097  0.56631232  1
  O  O323  1  0.46187429  0.75100442  0.81785110  1
  O  O324  1  0.96384282  0.08141734  0.06625493  1
  O  O325  1  0.96349181  0.08287323  0.31817771  1
  O  O326  1  0.96281194  0.08344812  0.56549627  1
  O  O327  1  0.96318829  0.08188659  0.81742114  1
  O  O328  1  0.96356504  0.41725149  0.06890295  1
  O  O329  1  0.96317112  0.41596380  0.31681661  1
  O  O330  1  0.96288978  0.41785672  0.56725254  1
  O  O331  1  0.96274020  0.41889763  0.81785938  1
  O  O332  1  0.96370366  0.75000954  0.06843564  1
  O  O333  1  0.96419400  0.74980622  0.31773437  1
  O  O334  1  0.96301809  0.75189902  0.56706494  1
  O  O335  1  0.96231197  0.75106173  0.81784569  1
  O  O336  1  0.21349787  0.08514129  0.05670846  1
  O  O337  1  0.21289654  0.08564668  0.30731162  1
  O  O338  1  0.21258874  0.08565107  0.55702081  1
  O  O339  1  0.21290790  0.08461695  0.80777006  1
  O  O340  1  0.21387103  0.41588824  0.05708467  1
  O  O341  1  0.21318517  0.41461656  0.30773165  1
  O  O342  1  0.21241480  0.41568904  0.55733010  1
  O  O343  1  0.21300688  0.41785138  0.80813471  1
  O  O344  1  0.21233189  0.74911371  0.05821288  1
  O  O345  1  0.21351646  0.74780081  0.30718366  1
  O  O346  1  0.21267186  0.74856178  0.55692939  1
  O  O347  1  0.21149268  0.75048158  0.80795587  1
  O  O348  1  0.71477757  0.08361134  0.05688121  1
  O  O349  1  0.71399500  0.08394723  0.30575159  1
  O  O350  1  0.71270874  0.08347811  0.55735135  1
  O  O351  1  0.71379576  0.08182460  0.80840045  1
  O  O352  1  0.71353342  0.41583209  0.05858935  1
  O  O353  1  0.71256123  0.41730092  0.30749128  1
  O  O354  1  0.71215618  0.41700974  0.55842819  1
  O  O355  1  0.71354040  0.41646571  0.80824936  1
  O  O356  1  0.71348025  0.75055859  0.05835142  1
  O  O357  1  0.71347442  0.74845118  0.30787973  1
  O  O358  1  0.71267452  0.74927295  0.55762446  1
  O  O359  1  0.71265602  0.75149668  0.80929832  1
  O  O360  1  0.28605146  0.25030208  0.19272320  1
  O  O361  1  0.28651606  0.24907384  0.44229133  1
  O  O362  1  0.28643568  0.24994434  0.69377916  1
  O  O363  1  0.28640073  0.25039050  0.94307637  1
  O  O364  1  0.28681900  0.58448964  0.19205076  1
  O  O365  1  0.28641896  0.58199055  0.44213104  1
  O  O366  1  0.28665240  0.58090011  0.69234808  1
  O  O367  1  0.28670691  0.58292119  0.94232028  1
  O  O368  1  0.28768360  0.91693175  0.19088109  1
  O  O369  1  0.28772241  0.91686683  0.44102981  1
  O  O370  1  0.28675196  0.91880743  0.69241214  1
  O  O371  1  0.28692522  0.91856239  0.94096469  1
  O  O372  1  0.78723166  0.24778499  0.19204371  1
  O  O373  1  0.78757301  0.24892718  0.44166414  1
  O  O374  1  0.78710159  0.25008503  0.69382536  1
  O  O375  1  0.78751429  0.24936828  0.94183921  1
  O  O376  1  0.78660384  0.58430725  0.19223643  1
  O  O377  1  0.78670727  0.58315898  0.44297558  1
  O  O378  1  0.78777724  0.58241291  0.69235985  1
  O  O379  1  0.78728454  0.58311547  0.94429877  1
  O  O380  1  0.78842066  0.91717477  0.19120208  1
  O  O381  1  0.78723092  0.91756991  0.44261267  1
  O  O382  1  0.78621066  0.91721837  0.69350358  1
  O  O383  1  0.78629319  0.91739050  0.94175140  1
  O  O384  1  0.22759745  0.25033784  0.05934016  1
  O  O385  1  0.22714047  0.25031148  0.30904535  1
  O  O386  1  0.22764425  0.24858838  0.55835622  1
  O  O387  1  0.22704353  0.25067845  0.80954923  1
  O  O388  1  0.22783436  0.58421847  0.05819227  1
  O  O389  1  0.22768830  0.58388215  0.30767893  1
  O  O390  1  0.22734717  0.58089803  0.55790732  1
  O  O391  1  0.22762130  0.58117343  0.80795281  1
  O  O392  1  0.22808042  0.91768620  0.05638790  1
  O  O393  1  0.22859022  0.91661778  0.30603040  1
  O  O394  1  0.22811899  0.91750487  0.55595151  1
  O  O395  1  0.22767571  0.91945574  0.80796057  1
  O  O396  1  0.72873450  0.24850449  0.05781533  1
  O  O397  1  0.72809765  0.24752828  0.30777082  1
  O  O398  1  0.72868829  0.24954461  0.55716339  1
  O  O399  1  0.72777617  0.25046479  0.80972731  1
  O  O400  1  0.72745606  0.58355758  0.05964043  1
  O  O401  1  0.72785232  0.58534592  0.30825087  1
  O  O402  1  0.72784659  0.58135819  0.55887855  1
  O  O403  1  0.72895888  0.58307788  0.80781013  1
  O  O404  1  0.72794778  0.91830048  0.05804130  1
  O  O405  1  0.72914678  0.91655185  0.30628677  1
  O  O406  1  0.72770172  0.91840415  0.55801708  1
  O  O407  1  0.72733307  0.91729148  0.80972227  1
  O  O408  1  0.27195074  0.08588263  0.19169709  1
  O  O409  1  0.27189679  0.08540096  0.44136141  1
  O  O410  1  0.27163432  0.08582098  0.69183402  1
  O  O411  1  0.27283888  0.08403293  0.94082189  1
  O  O412  1  0.27208284  0.41491781  0.19186484  1
  O  O413  1  0.27160116  0.41473361  0.44170734  1
  O  O414  1  0.27149710  0.41781335  0.69186948  1
  O  O415  1  0.27278953  0.41654488  0.94092061  1
  O  O416  1  0.27220991  0.74804838  0.19120374  1
  O  O417  1  0.27206433  0.74763311  0.44149050  1
  O  O418  1  0.27095446  0.74976149  0.69305239  1
  O  O419  1  0.27102545  0.74996733  0.94274071  1
  O  O420  1  0.77342300  0.08301738  0.18991443  1
  O  O421  1  0.77205387  0.08492722  0.44183498  1
  O  O422  1  0.77234602  0.08131037  0.69218461  1
  O  O423  1  0.77353118  0.08260398  0.94051097  1
  O  O424  1  0.77223942  0.41745282  0.19240105  1
  O  O425  1  0.77121389  0.41631565  0.44313176  1
  O  O426  1  0.77219074  0.41818512  0.69225164  1
  O  O427  1  0.77234722  0.41446192  0.94277068  1
  O  O428  1  0.77237301  0.74892826  0.19215521  1
  O  O429  1  0.77240331  0.74825082  0.44229786  1
  O  O430  1  0.77126085  0.75047999  0.69372364  1
  O  O431  1  0.77248273  0.75170432  0.94266185  1
  O  O432  1  0.02216870  0.08265050  0.18205509  1
  O  O433  1  0.02300353  0.08275370  0.43393637  1
  O  O434  1  0.02164625  0.08346846  0.68120451  1
  O  O435  1  0.02298984  0.08145789  0.93267567  1
  O  O436  1  0.02261597  0.41672528  0.18491839  1
  O  O437  1  0.02158806  0.41581283  0.43304071  1
  O  O438  1  0.02201614  0.41896878  0.68297120  1
  O  O439  1  0.02204734  0.41897633  0.93338537  1
  O  O440  1  0.02311447  0.75052690  0.18439716  1
  O  O441  1  0.02277211  0.75020907  0.43422549  1
  O  O442  1  0.02167543  0.75212048  0.68318342  1
  O  O443  1  0.02162195  0.75089531  0.93343940  1
  O  O444  1  0.52344893  0.08270728  0.18380725  1
  O  O445  1  0.52181700  0.08313341  0.43138358  1
  O  O446  1  0.52164658  0.08488511  0.68332957  1
  O  O447  1  0.52331663  0.08410553  0.93435548  1
  O  O448  1  0.52125688  0.41658711  0.18177539  1
  O  O449  1  0.52170122  0.41862523  0.43293485  1
  O  O450  1  0.52107945  0.41576159  0.68188593  1
  O  O451  1  0.52207082  0.41722927  0.93354824  1
  O  O452  1  0.52233743  0.74892397  0.18272246  1
  O  O453  1  0.52205127  0.75190327  0.43264899  1
  O  O454  1  0.52107757  0.75005042  0.68158971  1
  O  O455  1  0.52145002  0.75156784  0.93308301  1
  O  O456  1  0.47824334  0.24791059  0.06752959  1
  O  O457  1  0.47807936  0.24849935  0.31692582  1
  O  O458  1  0.47850641  0.25001332  0.56850383  1
  O  O459  1  0.47764039  0.24765985  0.81777337  1
  O  O460  1  0.47808733  0.58177080  0.06694096  1
  O  O461  1  0.47764230  0.58551347  0.31686085  1
  O  O462  1  0.47784888  0.58229606  0.56679870  1
  O  O463  1  0.47838589  0.58327271  0.81878346  1
  O  O464  1  0.47750196  0.91618762  0.06565871  1
  O  O465  1  0.47876669  0.91845889  0.31601314  1
  O  O466  1  0.47802232  0.91521401  0.56668680  1
  O  O467  1  0.47812492  0.91736907  0.81876433  1
  O  O468  1  0.97880294  0.24995873  0.06824467  1
  O  O469  1  0.97733727  0.25131879  0.31671471  1
  O  O470  1  0.97686445  0.25135096  0.56526436  1
  O  O471  1  0.97819312  0.25065103  0.81820806  1
  O  O472  1  0.97753782  0.58157252  0.06761668  1
  O  O473  1  0.97711631  0.58258772  0.31572951  1
  O  O474  1  0.97772758  0.58554662  0.56644677  1
  O  O475  1  0.97756933  0.58262765  0.81703929  1
  O  O476  1  0.97772676  0.91589570  0.06572201  1
  O  O477  1  0.97842334  0.91424760  0.31699950  1
  O  O478  1  0.97745266  0.91643771  0.56513799  1
  O  O479  1  0.97767779  0.91496698  0.81660326  1
  O  O480  1  0.07405235  0.31382573  0.07541680  1
  O  O481  1  0.07242997  0.31452056  0.32443982  1
  O  O482  1  0.07205318  0.31480983  0.57340224  1
  O  O483  1  0.07371988  0.31386434  0.82502316  1
  O  O484  1  0.07282498  0.64518023  0.07560196  1
  O  O485  1  0.07157034  0.64702570  0.32279781  1
  O  O486  1  0.07267399  0.64885901  0.57380609  1
  O  O487  1  0.07285253  0.64622185  0.82562901  1
  O  O488  1  0.07269968  0.97950098  0.07358113  1
  O  O489  1  0.07348626  0.97857310  0.32500055  1
  O  O490  1  0.07216338  0.98060866  0.57311004  1
  O  O491  1  0.07296103  0.97871703  0.82418398  1
  O  O492  1  0.57352567  0.31164096  0.07571585  1
  O  O493  1  0.57322172  0.31287674  0.32397583  1
  O  O494  1  0.57416666  0.31279896  0.57593165  1
  O  O495  1  0.57259859  0.31202919  0.82567863  1
  O  O496  1  0.57355303  0.64568815  0.07451786  1
  O  O497  1  0.57267007  0.64859430  0.32426559  1
  O  O498  1  0.57351915  0.64561913  0.57457008  1
  O  O499  1  0.57356423  0.64693150  0.82593864  1
  O  O500  1  0.57218167  0.98038315  0.07276957  1
  O  O501  1  0.57394775  0.98136134  0.32372298  1
  O  O502  1  0.57309769  0.97967613  0.57438012  1
  O  O503  1  0.57381547  0.98005301  0.82614331  1
  O  O504  1  0.42827288  0.01923851  0.17567756  1
  O  O505  1  0.42620749  0.02020503  0.42375419  1
  O  O506  1  0.42658847  0.02046652  0.67626499  1
  O  O507  1  0.42887121  0.01983313  0.92715006  1
  O  O508  1  0.42617772  0.35273817  0.17410187  1
  O  O509  1  0.42677896  0.35396666  0.42532868  1
  O  O510  1  0.42534665  0.35312223  0.67484639  1
  O  O511  1  0.42656104  0.35361559  0.92580824  1
  O  O512  1  0.42751946  0.68549502  0.17538865  1
  O  O513  1  0.42635985  0.68855175  0.42499301  1
  O  O514  1  0.42581386  0.68649202  0.67437261  1
  O  O515  1  0.42603473  0.68768821  0.92562845  1
  O  O516  1  0.92700086  0.01868587  0.17463897  1
  O  O517  1  0.92776669  0.01926534  0.42608436  1
  O  O518  1  0.92626763  0.02011273  0.67389042  1
  O  O519  1  0.92789244  0.01803844  0.92584280  1
  O  O520  1  0.92779716  0.35267907  0.17647792  1
  O  O521  1  0.92648167  0.35258685  0.42541571  1
  O  O522  1  0.92657193  0.35520905  0.67553427  1
  O  O523  1  0.92713059  0.35460651  0.92556431  1
  O  O524  1  0.92878717  0.68606689  0.17687346  1
  O  O525  1  0.92822595  0.68601272  0.42605049  1
  O  O526  1  0.92620309  0.68874222  0.67513512  1
  O  O527  1  0.92628134  0.68746583  0.92584712  1
  O  O528  1  0.17682938  0.02165680  0.19964735  1
  O  O529  1  0.17681660  0.02139149  0.44931357  1
  O  O530  1  0.17626613  0.02197617  0.69911456  1
  O  O531  1  0.17766289  0.02084271  0.94873585  1
  O  O532  1  0.17697383  0.35155477  0.19889450  1
  O  O533  1  0.17669329  0.35127789  0.44909498  1
  O  O534  1  0.17625374  0.35411296  0.70039439  1
  O  O535  1  0.17772785  0.35298253  0.94850444  1
  O  O536  1  0.17695421  0.68474724  0.19860170  1
  O  O537  1  0.17679356  0.68452886  0.44879515  1
  O  O538  1  0.17526915  0.68669443  0.70021852  1
  O  O539  1  0.17557070  0.68618544  0.94996307  1
  O  O540  1  0.67845056  0.01957152  0.19770623  1
  O  O541  1  0.67682216  0.02069659  0.44875056  1
  O  O542  1  0.67712888  0.01850534  0.69959901  1
  O  O543  1  0.67794880  0.01989320  0.94909981  1
  O  O544  1  0.67670752  0.35380778  0.19977780  1
  O  O545  1  0.67582380  0.35299547  0.45032624  1
  O  O546  1  0.67704533  0.35366263  0.70020846  1
  O  O547  1  0.67713137  0.35164213  0.95031225  1
  O  O548  1  0.67727393  0.68534791  0.19887211  1
  O  O549  1  0.67711937  0.68514249  0.44946251  1
  O  O550  1  0.67596161  0.68698156  0.70184789  1
  O  O551  1  0.67724761  0.68749909  0.95041631  1
  O  O552  1  0.32261938  0.31394814  0.05138808  1
  O  O553  1  0.32221767  0.31371031  0.30133038  1
  O  O554  1  0.32290430  0.31227540  0.55056982  1
  O  O555  1  0.32204392  0.31422536  0.80182006  1
  O  O556  1  0.32292121  0.64745975  0.05018893  1
  O  O557  1  0.32275665  0.64746286  0.30120123  1
  O  O558  1  0.32279441  0.64473636  0.55042414  1
  O  O559  1  0.32272576  0.64539360  0.79965718  1
  O  O560  1  0.32366389  0.98116169  0.04943675  1
  O  O561  1  0.32374083  0.98064254  0.29876387  1
  O  O562  1  0.32387928  0.98044322  0.54912287  1
  O  O563  1  0.32306761  0.98232028  0.80089574  1
  O  O564  1  0.82422767  0.31194955  0.05047317  1
  O  O565  1  0.82287351  0.31205194  0.29967100  1
  O  O566  1  0.82394657  0.31305868  0.54957278  1
  O  O567  1  0.82298758  0.31367003  0.80199104  1
  O  O568  1  0.82277808  0.64698531  0.05232699  1
  O  O569  1  0.82330113  0.64791433  0.30096779  1
  O  O570  1  0.82293008  0.64591238  0.55120583  1
  O  O571  1  0.82411895  0.64677178  0.80012816  1
  O  O572  1  0.82308703  0.98139373  0.04989671  1
  O  O573  1  0.82465975  0.98018997  0.29968872  1
  O  O574  1  0.82283915  0.98149294  0.55105820  1
  O  O575  1  0.82289355  0.98031573  0.80162037  1
  O  O576  1  0.42850428  0.14648401  0.17630758  1
  O  O577  1  0.42659772  0.14686413  0.42393736  1
  O  O578  1  0.42630826  0.14768119  0.67667913  1
  O  O579  1  0.42767847  0.14702597  0.92747004  1
  O  O580  1  0.42548289  0.47960068  0.17456482  1
  O  O581  1  0.42641476  0.48143534  0.42561349  1
  O  O582  1  0.42589746  0.47992657  0.67521271  1
  O  O583  1  0.42725747  0.48095484  0.92651714  1
  O  O584  1  0.42684765  0.81265341  0.17465240  1
  O  O585  1  0.42743120  0.81566229  0.42477961  1
  O  O586  1  0.42543862  0.81340941  0.67486414  1
  O  O587  1  0.42636583  0.81492281  0.92636622  1
  O  O588  1  0.92666087  0.14549630  0.17374175  1
  O  O589  1  0.92848787  0.14687818  0.42630606  1
  O  O590  1  0.92631682  0.14687241  0.67400650  1
  O  O591  1  0.92773301  0.14535886  0.92531426  1
  O  O592  1  0.92731866  0.48001044  0.17747431  1
  O  O593  1  0.92638863  0.47954861  0.42452001  1
  O  O594  1  0.92727123  0.48242415  0.67540651  1
  O  O595  1  0.92647739  0.48160253  0.92710515  1
  O  O596  1  0.92769580  0.81342694  0.17665125  1
  O  O597  1  0.92739440  0.81315740  0.42596465  1
  O  O598  1  0.92684010  0.81565909  0.67576007  1
  O  O599  1  0.92664949  0.81448675  0.92670728  1
  O  O600  1  0.07429431  0.18697669  0.07582113  1
  O  O601  1  0.07243770  0.18748541  0.32541552  1
  O  O602  1  0.07134583  0.18722636  0.57261920  1
  O  O603  1  0.07334354  0.18678351  0.82483166  1
  O  O604  1  0.07267269  0.51827572  0.07516780  1
  O  O605  1  0.07253210  0.51967824  0.32443646  1
  O  O606  1  0.07301507  0.52178782  0.57421125  1
  O  O607  1  0.07249210  0.51914565  0.82386018  1
  O  O608  1  0.07268254  0.85209052  0.07324180  1
  O  O609  1  0.07376880  0.85165685  0.32453679  1
  O  O610  1  0.07288595  0.85329996  0.57272447  1
  O  O611  1  0.07275545  0.85179748  0.82414612  1
  O  O612  1  0.57357506  0.18464125  0.07416875  1
  O  O613  1  0.57345947  0.18565701  0.32364757  1
  O  O614  1  0.57379048  0.18599539  0.57532190  1
  O  O615  1  0.57308926  0.18487941  0.82482225  1
  O  O616  1  0.57303010  0.51856085  0.07475194  1
  O  O617  1  0.57296257  0.52141161  0.32445468  1
  O  O618  1  0.57248545  0.51834212  0.57378011  1
  O  O619  1  0.57411372  0.51992663  0.82541422  1
  O  O620  1  0.57254078  0.85282713  0.07410091  1
  O  O621  1  0.57402853  0.85440114  0.32381100  1
  O  O622  1  0.57330694  0.85240522  0.57369197  1
  O  O623  1  0.57316807  0.85331715  0.82583406  1
  O  O624  1  0.32250323  0.18677331  0.05145704  1
  O  O625  1  0.32203730  0.18656883  0.30090006  1
  O  O626  1  0.32280403  0.18542571  0.55090915  1
  O  O627  1  0.32202060  0.18701982  0.80258537  1
  O  O628  1  0.32303994  0.52032142  0.05061749  1
  O  O629  1  0.32306448  0.52038821  0.29935919  1
  O  O630  1  0.32217711  0.51753716  0.55017097  1
  O  O631  1  0.32307437  0.51835140  0.80151403  1
  O  O632  1  0.32336308  0.85429532  0.04857495  1
  O  O633  1  0.32420770  0.85353397  0.29871165  1
  O  O634  1  0.32310648  0.85335132  0.54935410  1
  O  O635  1  0.32268054  0.85501846  0.79998787  1
  O  O636  1  0.82371917  0.18506229  0.04990724  1
  O  O637  1  0.82359467  0.18478932  0.30071908  1
  O  O638  1  0.82416507  0.18629393  0.55027273  1
  O  O639  1  0.82227723  0.18604937  0.80165545  1
  O  O640  1  0.82204388  0.51935861  0.05269515  1
  O  O641  1  0.82280438  0.52099894  0.30032810  1
  O  O642  1  0.82305380  0.51866260  0.55077625  1
  O  O643  1  0.82459517  0.51995597  0.80091958  1
  O  O644  1  0.82312785  0.85449942  0.04987638  1
  O  O645  1  0.82451961  0.85337509  0.29942918  1
  O  O646  1  0.82278790  0.85419688  0.55045374  1
  O  O647  1  0.82172361  0.85301601  0.80169905  1
  O  O648  1  0.17654696  0.14874745  0.19870082  1
  O  O649  1  0.17662245  0.14847124  0.44808624  1
  O  O650  1  0.17645816  0.14891384  0.69963107  1
  O  O651  1  0.17804958  0.14819021  0.94815237  1
  O  O652  1  0.17700360  0.47862922  0.20035462  1
  O  O653  1  0.17610416  0.47831662  0.44904376  1
  O  O654  1  0.17647844  0.48096741  0.69913216  1
  O  O655  1  0.17797338  0.48033758  0.94944769  1
  O  O656  1  0.17715395  0.81195246  0.19979478  1
  O  O657  1  0.17704698  0.81184545  0.44885528  1
  O  O658  1  0.17594053  0.81385170  0.69951230  1
  O  O659  1  0.17561303  0.81311050  0.95057170  1
  O  O660  1  0.67839341  0.14687488  0.19703264  1
  O  O661  1  0.67686546  0.14774834  0.44898599  1
  O  O662  1  0.67740418  0.14555887  0.70076613  1
  O  O663  1  0.67934457  0.14704009  0.94813929  1
  O  O664  1  0.67730639  0.48111543  0.19901789  1
  O  O665  1  0.67575255  0.47979505  0.44987218  1
  O  O666  1  0.67703520  0.48086988  0.70018963  1
  O  O667  1  0.67723594  0.47877570  0.95059842  1
  O  O668  1  0.67693450  0.81230693  0.20041059  1
  O  O669  1  0.67739040  0.81249186  0.44938074  1
  O  O670  1  0.67573047  0.81380206  0.70059938  1
  O  O671  1  0.67738237  0.81472854  0.95017639  1
